data_str_m3_o1_o18_pcu_sym.15
_audit_creation_date              2020-01-03
_audit_creation_method            'Materials Studio'
_symmetry_space_group_name_H-M    'P1'
_symmetry_Int_Tables_number       1
_symmetry_cell_setting            triclinic
loop_
_symmetry_equiv_pos_as_xyz
  x,y,z
_cell_length_a                    29.5526
_cell_length_b                    32.0240
_cell_length_c                    31.1068
_cell_angle_alpha                 89.7210
_cell_angle_beta                  66.6921
_cell_angle_gamma                 90.2311
loop_
_atom_site_label
_atom_site_type_symbol
_atom_site_fract_x
_atom_site_fract_y
_atom_site_fract_z
_atom_site_U_iso_or_equiv
_atom_site_adp_type
_atom_site_occupancy
O1     O     0.12846   0.22775   0.25001   0.00000  Uiso   1.00
O2     O     0.20488   0.10558   0.24999   0.00000  Uiso   1.00
O3     O     0.20490   0.22774   0.25000   0.00000  Uiso   1.00
O4     O     0.12843   0.10559   0.25000   0.00000  Uiso   1.00
C5     C     0.16738   0.24662   0.24856   0.00000  Uiso   1.00
C6     C     0.16595   0.08672   0.25144   0.00000  Uiso   1.00
O7     O     0.10661   0.16667   0.31612   0.00000  Uiso   1.00
O8     O     0.22672   0.16666   0.18387   0.00000  Uiso   1.00
O9     O     0.18305   0.16666   0.31612   0.00000  Uiso   1.00
O10    O     0.15028   0.16667   0.18388   0.00000  Uiso   1.00
C11    C     0.13547   0.16733   0.33821   0.00000  Uiso   1.00
C12    C     0.19787   0.16600   0.16179   0.00000  Uiso   1.00
Zn13   Zn    0.11562   0.16667   0.25000   0.00000  Uiso   1.00
Zn14   Zn    0.21771   0.16666   0.25000   0.00000  Uiso   1.00
C15    C     0.11497   0.17092   0.38926   0.00000  Uiso   1.00
C16    C     0.21836   0.16242   0.11073   0.00000  Uiso   1.00
C17    C     0.05987   0.20087   0.46242   0.00000  Uiso   1.00
C18    C     0.27346   0.13247   0.03758   0.00000  Uiso   1.00
C19    C     0.07139   0.19292   0.41512   0.00000  Uiso   1.00
C20    C     0.26194   0.14041   0.08488   0.00000  Uiso   1.00
C21    C     0.14488   0.15689   0.41135   0.00000  Uiso   1.00
C22    C     0.18845   0.17644   0.08865   0.00000  Uiso   1.00
C23    C     0.13762   0.16980   0.45639   0.00000  Uiso   1.00
C24    C     0.19571   0.16353   0.04361   0.00000  Uiso   1.00
C25    C     0.09255   0.18958   0.48315   0.00000  Uiso   1.00
C26    C     0.24079   0.14376   0.01685   0.00000  Uiso   1.00
C27    C     0.17331   0.16277   0.47576   0.00000  Uiso   1.00
C28    C     0.16003   0.17056   0.02424   0.00000  Uiso   1.00
C29    C     0.11124   0.18421   0.05164   0.00000  Uiso   1.00
C30    C     0.22209   0.14913   0.44836   0.00000  Uiso   1.00
C31    C     0.07973   0.19625   0.03064   0.00000  Uiso   1.00
C32    C     0.25360   0.13708   0.46936   0.00000  Uiso   1.00
H33    H     0.15940   0.19761   0.10779   0.00000  Uiso   1.00
H34    H     0.17394   0.13572   0.39221   0.00000  Uiso   1.00
H35    H     0.02559   0.21646   0.48269   0.00000  Uiso   1.00
H36    H     0.30775   0.11688   0.01731   0.00000  Uiso   1.00
C37    C     0.18742   0.31089   0.27623   0.00000  Uiso   1.00
C38    C     0.14591   0.02245   0.22378   0.00000  Uiso   1.00
H39    H     0.20184   0.29302   0.29768   0.00000  Uiso   1.00
H40    H     0.13149   0.04031   0.20233   0.00000  Uiso   1.00
C41    C     0.18544   0.02041   0.27975   0.00000  Uiso   1.00
C42    C     0.14789   0.31293   0.22026   0.00000  Uiso   1.00
C43    C     0.16502   0.04255   0.25267   0.00000  Uiso   1.00
C44    C     0.16831   0.29079   0.24733   0.00000  Uiso   1.00
C45    C     0.31864   0.13614   0.22744   0.00000  Uiso   1.00
C46    C     0.01469   0.19719   0.27256   0.00000  Uiso   1.00
H47    H     0.30795   0.11171   0.20939   0.00000  Uiso   1.00
H48    H     0.02538   0.22162   0.29061   0.00000  Uiso   1.00
C49    C     0.03325   0.13618   0.22740   0.00000  Uiso   1.00
C50    C     0.30008   0.19716   0.27260   0.00000  Uiso   1.00
H51    H     0.05883   0.11181   0.20924   0.00000  Uiso   1.00
H52    H     0.27451   0.22152   0.29076   0.00000  Uiso   1.00
N53    N     0.04759   0.16668   0.25001   0.00000  Uiso   1.00
N54    N     0.28574   0.16666   0.24999   0.00000  Uiso   1.00
F55    F     0.03519   0.21263   0.05758   0.00000  Uiso   1.00
F56    F     0.29814   0.12071   0.44242   0.00000  Uiso   1.00
N57    N     0.29415   0.12512   0.10575   0.00000  Uiso   1.00
O58    O     0.31616   0.15126   0.12305   0.00000  Uiso   1.00
O59    O     0.30974   0.08683   0.09825   0.00000  Uiso   1.00
N60    N     0.03919   0.20821   0.39425   0.00000  Uiso   1.00
O61    O     0.01717   0.18208   0.37695   0.00000  Uiso   1.00
O62    O     0.02359   0.24650   0.40174   0.00000  Uiso   1.00
F63    F     0.09150   0.18341   0.09911   0.00000  Uiso   1.00
F64    F     0.24184   0.14992   0.40089   0.00000  Uiso   1.00
N65    N     0.20184   0.04060   0.31226   0.00000  Uiso   1.00
O66    O     0.17534   0.06975   0.33952   0.00000  Uiso   1.00
O67    O     0.23902   0.02570   0.31973   0.00000  Uiso   1.00
N68    N     0.13148   0.29273   0.18775   0.00000  Uiso   1.00
O69    O     0.15799   0.26359   0.16048   0.00000  Uiso   1.00
O70    O     0.09429   0.30762   0.18030   0.00000  Uiso   1.00
O71    O     0.46179   0.22775   0.25001   0.00000  Uiso   1.00
O72    O     0.53821   0.10558   0.24999   0.00000  Uiso   1.00
O73    O     0.53823   0.22774   0.25000   0.00000  Uiso   1.00
O74    O     0.46177   0.10559   0.25000   0.00000  Uiso   1.00
C75    C     0.50071   0.24662   0.24856   0.00000  Uiso   1.00
C76    C     0.49929   0.08672   0.25144   0.00000  Uiso   1.00
O77    O     0.43994   0.16667   0.31612   0.00000  Uiso   1.00
O78    O     0.56006   0.16666   0.18387   0.00000  Uiso   1.00
O79    O     0.51639   0.16666   0.31612   0.00000  Uiso   1.00
O80    O     0.48361   0.16667   0.18388   0.00000  Uiso   1.00
C81    C     0.46880   0.16733   0.33821   0.00000  Uiso   1.00
C82    C     0.53120   0.16600   0.16179   0.00000  Uiso   1.00
Zn83   Zn    0.44896   0.16667   0.25000   0.00000  Uiso   1.00
Zn84   Zn    0.55104   0.16666   0.25000   0.00000  Uiso   1.00
C85    C     0.44831   0.17092   0.38926   0.00000  Uiso   1.00
C86    C     0.55169   0.16242   0.11073   0.00000  Uiso   1.00
C87    C     0.39321   0.20087   0.46242   0.00000  Uiso   1.00
C88    C     0.60680   0.13247   0.03758   0.00000  Uiso   1.00
C89    C     0.40473   0.19292   0.41512   0.00000  Uiso   1.00
C90    C     0.59527   0.14041   0.08488   0.00000  Uiso   1.00
C91    C     0.47822   0.15689   0.41135   0.00000  Uiso   1.00
C92    C     0.52178   0.17644   0.08865   0.00000  Uiso   1.00
C93    C     0.47096   0.16980   0.45639   0.00000  Uiso   1.00
C94    C     0.52904   0.16353   0.04361   0.00000  Uiso   1.00
C95    C     0.42588   0.18958   0.48315   0.00000  Uiso   1.00
C96    C     0.57412   0.14376   0.01685   0.00000  Uiso   1.00
C97    C     0.50664   0.16277   0.47576   0.00000  Uiso   1.00
C98    C     0.49336   0.17056   0.02424   0.00000  Uiso   1.00
C99    C     0.44458   0.18421   0.05164   0.00000  Uiso   1.00
C100   C     0.55542   0.14913   0.44836   0.00000  Uiso   1.00
C101   C     0.41306   0.19625   0.03064   0.00000  Uiso   1.00
C102   C     0.58694   0.13708   0.46936   0.00000  Uiso   1.00
H103   H     0.49273   0.19761   0.10779   0.00000  Uiso   1.00
H104   H     0.50727   0.13572   0.39221   0.00000  Uiso   1.00
H105   H     0.35892   0.21646   0.48269   0.00000  Uiso   1.00
H106   H     0.64108   0.11688   0.01731   0.00000  Uiso   1.00
C107   C     0.52076   0.31089   0.27623   0.00000  Uiso   1.00
C108   C     0.47924   0.02245   0.22378   0.00000  Uiso   1.00
H109   H     0.53517   0.29302   0.29768   0.00000  Uiso   1.00
H110   H     0.46483   0.04031   0.20233   0.00000  Uiso   1.00
C111   C     0.51877   0.02041   0.27975   0.00000  Uiso   1.00
C112   C     0.48123   0.31293   0.22026   0.00000  Uiso   1.00
C113   C     0.49836   0.04255   0.25267   0.00000  Uiso   1.00
C114   C     0.50164   0.29079   0.24733   0.00000  Uiso   1.00
C115   C     0.65197   0.13614   0.22744   0.00000  Uiso   1.00
C116   C     0.34803   0.19719   0.27256   0.00000  Uiso   1.00
H117   H     0.64129   0.11171   0.20939   0.00000  Uiso   1.00
H118   H     0.35871   0.22162   0.29061   0.00000  Uiso   1.00
C119   C     0.36658   0.13618   0.22740   0.00000  Uiso   1.00
C120   C     0.63342   0.19716   0.27260   0.00000  Uiso   1.00
H121   H     0.39216   0.11181   0.20924   0.00000  Uiso   1.00
H122   H     0.60784   0.22152   0.29076   0.00000  Uiso   1.00
N123   N     0.38093   0.16668   0.25001   0.00000  Uiso   1.00
N124   N     0.61907   0.16666   0.24999   0.00000  Uiso   1.00
F125   F     0.36853   0.21263   0.05758   0.00000  Uiso   1.00
F126   F     0.63148   0.12071   0.44242   0.00000  Uiso   1.00
N127   N     0.62748   0.12512   0.10575   0.00000  Uiso   1.00
O128   O     0.64949   0.15126   0.12305   0.00000  Uiso   1.00
O129   O     0.64308   0.08683   0.09825   0.00000  Uiso   1.00
N130   N     0.37252   0.20821   0.39425   0.00000  Uiso   1.00
O131   O     0.35051   0.18208   0.37695   0.00000  Uiso   1.00
O132   O     0.35693   0.24650   0.40174   0.00000  Uiso   1.00
F133   F     0.42483   0.18341   0.09911   0.00000  Uiso   1.00
F134   F     0.57517   0.14992   0.40089   0.00000  Uiso   1.00
N135   N     0.53517   0.04060   0.31226   0.00000  Uiso   1.00
O136   O     0.50867   0.06975   0.33952   0.00000  Uiso   1.00
O137   O     0.57235   0.02570   0.31973   0.00000  Uiso   1.00
N138   N     0.46482   0.29273   0.18775   0.00000  Uiso   1.00
O139   O     0.49133   0.26359   0.16048   0.00000  Uiso   1.00
O140   O     0.42763   0.30762   0.18030   0.00000  Uiso   1.00
O141   O     0.79512   0.22775   0.25001   0.00000  Uiso   1.00
O142   O     0.87154   0.10558   0.24999   0.00000  Uiso   1.00
O143   O     0.87157   0.22774   0.25000   0.00000  Uiso   1.00
O144   O     0.79510   0.10559   0.25000   0.00000  Uiso   1.00
C145   C     0.83405   0.24662   0.24856   0.00000  Uiso   1.00
C146   C     0.83262   0.08672   0.25144   0.00000  Uiso   1.00
O147   O     0.77328   0.16667   0.31612   0.00000  Uiso   1.00
O148   O     0.89339   0.16666   0.18387   0.00000  Uiso   1.00
O149   O     0.84972   0.16666   0.31612   0.00000  Uiso   1.00
O150   O     0.81695   0.16667   0.18388   0.00000  Uiso   1.00
C151   C     0.80213   0.16733   0.33821   0.00000  Uiso   1.00
C152   C     0.86454   0.16600   0.16179   0.00000  Uiso   1.00
Zn153  Zn    0.78229   0.16667   0.25000   0.00000  Uiso   1.00
Zn154  Zn    0.88438   0.16666   0.25000   0.00000  Uiso   1.00
C155   C     0.78164   0.17092   0.38926   0.00000  Uiso   1.00
C156   C     0.88503   0.16242   0.11073   0.00000  Uiso   1.00
C157   C     0.72654   0.20087   0.46242   0.00000  Uiso   1.00
C158   C     0.94013   0.13247   0.03758   0.00000  Uiso   1.00
C159   C     0.73806   0.19292   0.41512   0.00000  Uiso   1.00
C160   C     0.92861   0.14041   0.08488   0.00000  Uiso   1.00
C161   C     0.81155   0.15689   0.41135   0.00000  Uiso   1.00
C162   C     0.85512   0.17644   0.08865   0.00000  Uiso   1.00
C163   C     0.80429   0.16980   0.45639   0.00000  Uiso   1.00
C164   C     0.86238   0.16353   0.04361   0.00000  Uiso   1.00
C165   C     0.75921   0.18958   0.48315   0.00000  Uiso   1.00
C166   C     0.90745   0.14376   0.01685   0.00000  Uiso   1.00
C167   C     0.83997   0.16277   0.47576   0.00000  Uiso   1.00
C168   C     0.82670   0.17056   0.02424   0.00000  Uiso   1.00
C169   C     0.77791   0.18421   0.05164   0.00000  Uiso   1.00
C170   C     0.88876   0.14913   0.44836   0.00000  Uiso   1.00
C171   C     0.74640   0.19625   0.03064   0.00000  Uiso   1.00
C172   C     0.92027   0.13708   0.46936   0.00000  Uiso   1.00
H173   H     0.82606   0.19761   0.10779   0.00000  Uiso   1.00
H174   H     0.84061   0.13572   0.39221   0.00000  Uiso   1.00
H175   H     0.69225   0.21646   0.48269   0.00000  Uiso   1.00
H176   H     0.97441   0.11688   0.01731   0.00000  Uiso   1.00
C177   C     0.85409   0.31089   0.27623   0.00000  Uiso   1.00
C178   C     0.81257   0.02245   0.22378   0.00000  Uiso   1.00
H179   H     0.86850   0.29302   0.29768   0.00000  Uiso   1.00
H180   H     0.79816   0.04031   0.20233   0.00000  Uiso   1.00
C181   C     0.85210   0.02041   0.27975   0.00000  Uiso   1.00
C182   C     0.81456   0.31293   0.22026   0.00000  Uiso   1.00
C183   C     0.83169   0.04255   0.25267   0.00000  Uiso   1.00
C184   C     0.83497   0.29079   0.24733   0.00000  Uiso   1.00
C185   C     0.98531   0.13614   0.22744   0.00000  Uiso   1.00
C186   C     0.68136   0.19719   0.27256   0.00000  Uiso   1.00
H187   H     0.97462   0.11171   0.20939   0.00000  Uiso   1.00
H188   H     0.69205   0.22162   0.29061   0.00000  Uiso   1.00
C189   C     0.69992   0.13618   0.22740   0.00000  Uiso   1.00
C190   C     0.96675   0.19716   0.27260   0.00000  Uiso   1.00
H191   H     0.72549   0.11181   0.20924   0.00000  Uiso   1.00
H192   H     0.94117   0.22152   0.29076   0.00000  Uiso   1.00
N193   N     0.71426   0.16668   0.25001   0.00000  Uiso   1.00
N194   N     0.95241   0.16666   0.24999   0.00000  Uiso   1.00
F195   F     0.70186   0.21263   0.05758   0.00000  Uiso   1.00
F196   F     0.96481   0.12071   0.44242   0.00000  Uiso   1.00
N197   N     0.96081   0.12512   0.10575   0.00000  Uiso   1.00
O198   O     0.98283   0.15126   0.12305   0.00000  Uiso   1.00
O199   O     0.97641   0.08683   0.09825   0.00000  Uiso   1.00
N200   N     0.70586   0.20821   0.39425   0.00000  Uiso   1.00
O201   O     0.68384   0.18208   0.37695   0.00000  Uiso   1.00
O202   O     0.69026   0.24650   0.40174   0.00000  Uiso   1.00
F203   F     0.75816   0.18341   0.09911   0.00000  Uiso   1.00
F204   F     0.90850   0.14992   0.40089   0.00000  Uiso   1.00
N205   N     0.86851   0.04060   0.31226   0.00000  Uiso   1.00
O206   O     0.84200   0.06975   0.33952   0.00000  Uiso   1.00
O207   O     0.90568   0.02570   0.31973   0.00000  Uiso   1.00
N208   N     0.79815   0.29273   0.18775   0.00000  Uiso   1.00
O209   O     0.82466   0.26359   0.16048   0.00000  Uiso   1.00
O210   O     0.76096   0.30762   0.18030   0.00000  Uiso   1.00
O211   O     0.12846   0.56108   0.25001   0.00000  Uiso   1.00
O212   O     0.20488   0.43892   0.24999   0.00000  Uiso   1.00
O213   O     0.20490   0.56107   0.25000   0.00000  Uiso   1.00
O214   O     0.12843   0.43893   0.25000   0.00000  Uiso   1.00
C215   C     0.16738   0.57995   0.24856   0.00000  Uiso   1.00
C216   C     0.16595   0.42005   0.25144   0.00000  Uiso   1.00
O217   O     0.10661   0.50001   0.31612   0.00000  Uiso   1.00
O218   O     0.22672   0.49999   0.18387   0.00000  Uiso   1.00
O219   O     0.18305   0.50000   0.31612   0.00000  Uiso   1.00
O220   O     0.15028   0.50000   0.18388   0.00000  Uiso   1.00
C221   C     0.13547   0.50067   0.33821   0.00000  Uiso   1.00
C222   C     0.19787   0.49933   0.16179   0.00000  Uiso   1.00
Zn223  Zn    0.11562   0.50001   0.25000   0.00000  Uiso   1.00
Zn224  Zn    0.21771   0.49999   0.25000   0.00000  Uiso   1.00
C225   C     0.11497   0.50425   0.38926   0.00000  Uiso   1.00
C226   C     0.21836   0.49575   0.11073   0.00000  Uiso   1.00
C227   C     0.05987   0.53420   0.46242   0.00000  Uiso   1.00
C228   C     0.27346   0.46580   0.03758   0.00000  Uiso   1.00
C229   C     0.07139   0.52626   0.41512   0.00000  Uiso   1.00
C230   C     0.26194   0.47374   0.08488   0.00000  Uiso   1.00
C231   C     0.14488   0.49023   0.41135   0.00000  Uiso   1.00
C232   C     0.18845   0.50977   0.08865   0.00000  Uiso   1.00
C233   C     0.13762   0.50314   0.45639   0.00000  Uiso   1.00
C234   C     0.19571   0.49687   0.04361   0.00000  Uiso   1.00
C235   C     0.09255   0.52291   0.48315   0.00000  Uiso   1.00
C236   C     0.24079   0.47709   0.01685   0.00000  Uiso   1.00
C237   C     0.17331   0.49611   0.47576   0.00000  Uiso   1.00
C238   C     0.16003   0.50390   0.02424   0.00000  Uiso   1.00
C239   C     0.11124   0.51754   0.05164   0.00000  Uiso   1.00
C240   C     0.22209   0.48246   0.44836   0.00000  Uiso   1.00
C241   C     0.07973   0.52959   0.03064   0.00000  Uiso   1.00
C242   C     0.25360   0.47042   0.46936   0.00000  Uiso   1.00
H243   H     0.15940   0.53095   0.10779   0.00000  Uiso   1.00
H244   H     0.17394   0.46906   0.39221   0.00000  Uiso   1.00
H245   H     0.02559   0.54979   0.48269   0.00000  Uiso   1.00
H246   H     0.30775   0.45021   0.01731   0.00000  Uiso   1.00
C247   C     0.18742   0.64422   0.27623   0.00000  Uiso   1.00
C248   C     0.14591   0.35578   0.22378   0.00000  Uiso   1.00
H249   H     0.20184   0.62636   0.29768   0.00000  Uiso   1.00
H250   H     0.13149   0.37364   0.20233   0.00000  Uiso   1.00
C251   C     0.18544   0.35374   0.27975   0.00000  Uiso   1.00
C252   C     0.14789   0.64626   0.22026   0.00000  Uiso   1.00
C253   C     0.16502   0.37588   0.25267   0.00000  Uiso   1.00
C254   C     0.16831   0.62412   0.24733   0.00000  Uiso   1.00
C255   C     0.31864   0.46947   0.22744   0.00000  Uiso   1.00
C256   C     0.01469   0.53053   0.27256   0.00000  Uiso   1.00
H257   H     0.30795   0.44504   0.20939   0.00000  Uiso   1.00
H258   H     0.02538   0.55496   0.29061   0.00000  Uiso   1.00
C259   C     0.03325   0.46951   0.22740   0.00000  Uiso   1.00
C260   C     0.30008   0.53049   0.27260   0.00000  Uiso   1.00
H261   H     0.05883   0.44515   0.20924   0.00000  Uiso   1.00
H262   H     0.27451   0.55485   0.29076   0.00000  Uiso   1.00
N263   N     0.04759   0.50001   0.25001   0.00000  Uiso   1.00
N264   N     0.28574   0.49999   0.24999   0.00000  Uiso   1.00
F265   F     0.03519   0.54596   0.05758   0.00000  Uiso   1.00
F266   F     0.29814   0.45404   0.44242   0.00000  Uiso   1.00
N267   N     0.29415   0.45846   0.10575   0.00000  Uiso   1.00
O268   O     0.31616   0.48459   0.12305   0.00000  Uiso   1.00
O269   O     0.30974   0.42017   0.09825   0.00000  Uiso   1.00
N270   N     0.03919   0.54155   0.39425   0.00000  Uiso   1.00
O271   O     0.01717   0.51541   0.37695   0.00000  Uiso   1.00
O272   O     0.02359   0.57984   0.40174   0.00000  Uiso   1.00
F273   F     0.09150   0.51675   0.09911   0.00000  Uiso   1.00
F274   F     0.24184   0.48326   0.40089   0.00000  Uiso   1.00
N275   N     0.20184   0.37394   0.31226   0.00000  Uiso   1.00
O276   O     0.17534   0.40309   0.33952   0.00000  Uiso   1.00
O277   O     0.23902   0.35904   0.31973   0.00000  Uiso   1.00
N278   N     0.13148   0.62606   0.18775   0.00000  Uiso   1.00
O279   O     0.15799   0.59692   0.16048   0.00000  Uiso   1.00
O280   O     0.09429   0.64095   0.18030   0.00000  Uiso   1.00
O281   O     0.46179   0.56108   0.25001   0.00000  Uiso   1.00
O282   O     0.53821   0.43892   0.24999   0.00000  Uiso   1.00
O283   O     0.53823   0.56107   0.25000   0.00000  Uiso   1.00
O284   O     0.46177   0.43893   0.25000   0.00000  Uiso   1.00
C285   C     0.50071   0.57995   0.24856   0.00000  Uiso   1.00
C286   C     0.49929   0.42005   0.25144   0.00000  Uiso   1.00
O287   O     0.43994   0.50001   0.31612   0.00000  Uiso   1.00
O288   O     0.56006   0.49999   0.18387   0.00000  Uiso   1.00
O289   O     0.51639   0.50000   0.31612   0.00000  Uiso   1.00
O290   O     0.48361   0.50000   0.18388   0.00000  Uiso   1.00
C291   C     0.46880   0.50067   0.33821   0.00000  Uiso   1.00
C292   C     0.53120   0.49933   0.16179   0.00000  Uiso   1.00
Zn293  Zn    0.44896   0.50001   0.25000   0.00000  Uiso   1.00
Zn294  Zn    0.55104   0.49999   0.25000   0.00000  Uiso   1.00
C295   C     0.44831   0.50425   0.38926   0.00000  Uiso   1.00
C296   C     0.55169   0.49575   0.11073   0.00000  Uiso   1.00
C297   C     0.39321   0.53420   0.46242   0.00000  Uiso   1.00
C298   C     0.60680   0.46580   0.03758   0.00000  Uiso   1.00
C299   C     0.40473   0.52626   0.41512   0.00000  Uiso   1.00
C300   C     0.59527   0.47374   0.08488   0.00000  Uiso   1.00
C301   C     0.47822   0.49023   0.41135   0.00000  Uiso   1.00
C302   C     0.52178   0.50977   0.08865   0.00000  Uiso   1.00
C303   C     0.47096   0.50314   0.45639   0.00000  Uiso   1.00
C304   C     0.52904   0.49687   0.04361   0.00000  Uiso   1.00
C305   C     0.42588   0.52291   0.48315   0.00000  Uiso   1.00
C306   C     0.57412   0.47709   0.01685   0.00000  Uiso   1.00
C307   C     0.50664   0.49611   0.47576   0.00000  Uiso   1.00
C308   C     0.49336   0.50390   0.02424   0.00000  Uiso   1.00
C309   C     0.44458   0.51754   0.05164   0.00000  Uiso   1.00
C310   C     0.55542   0.48246   0.44836   0.00000  Uiso   1.00
C311   C     0.41306   0.52959   0.03064   0.00000  Uiso   1.00
C312   C     0.58694   0.47042   0.46936   0.00000  Uiso   1.00
H313   H     0.49273   0.53095   0.10779   0.00000  Uiso   1.00
H314   H     0.50727   0.46906   0.39221   0.00000  Uiso   1.00
H315   H     0.35892   0.54979   0.48269   0.00000  Uiso   1.00
H316   H     0.64108   0.45021   0.01731   0.00000  Uiso   1.00
C317   C     0.52076   0.64422   0.27623   0.00000  Uiso   1.00
C318   C     0.47924   0.35578   0.22378   0.00000  Uiso   1.00
H319   H     0.53517   0.62636   0.29768   0.00000  Uiso   1.00
H320   H     0.46483   0.37364   0.20233   0.00000  Uiso   1.00
C321   C     0.51877   0.35374   0.27975   0.00000  Uiso   1.00
C322   C     0.48123   0.64626   0.22026   0.00000  Uiso   1.00
C323   C     0.49836   0.37588   0.25267   0.00000  Uiso   1.00
C324   C     0.50164   0.62412   0.24733   0.00000  Uiso   1.00
C325   C     0.65197   0.46947   0.22744   0.00000  Uiso   1.00
C326   C     0.34803   0.53053   0.27256   0.00000  Uiso   1.00
H327   H     0.64129   0.44504   0.20939   0.00000  Uiso   1.00
H328   H     0.35871   0.55496   0.29061   0.00000  Uiso   1.00
C329   C     0.36658   0.46951   0.22740   0.00000  Uiso   1.00
C330   C     0.63342   0.53049   0.27260   0.00000  Uiso   1.00
H331   H     0.39216   0.44515   0.20924   0.00000  Uiso   1.00
H332   H     0.60784   0.55485   0.29076   0.00000  Uiso   1.00
N333   N     0.38093   0.50001   0.25001   0.00000  Uiso   1.00
N334   N     0.61907   0.49999   0.24999   0.00000  Uiso   1.00
F335   F     0.36853   0.54596   0.05758   0.00000  Uiso   1.00
F336   F     0.63148   0.45404   0.44242   0.00000  Uiso   1.00
N337   N     0.62748   0.45846   0.10575   0.00000  Uiso   1.00
O338   O     0.64949   0.48459   0.12305   0.00000  Uiso   1.00
O339   O     0.64308   0.42017   0.09825   0.00000  Uiso   1.00
N340   N     0.37252   0.54155   0.39425   0.00000  Uiso   1.00
O341   O     0.35051   0.51541   0.37695   0.00000  Uiso   1.00
O342   O     0.35693   0.57984   0.40174   0.00000  Uiso   1.00
F343   F     0.42483   0.51675   0.09911   0.00000  Uiso   1.00
F344   F     0.57517   0.48326   0.40089   0.00000  Uiso   1.00
N345   N     0.53517   0.37394   0.31226   0.00000  Uiso   1.00
O346   O     0.50867   0.40309   0.33952   0.00000  Uiso   1.00
O347   O     0.57235   0.35904   0.31973   0.00000  Uiso   1.00
N348   N     0.46482   0.62606   0.18775   0.00000  Uiso   1.00
O349   O     0.49133   0.59692   0.16048   0.00000  Uiso   1.00
O350   O     0.42763   0.64095   0.18030   0.00000  Uiso   1.00
O351   O     0.79512   0.56108   0.25001   0.00000  Uiso   1.00
O352   O     0.87154   0.43892   0.24999   0.00000  Uiso   1.00
O353   O     0.87157   0.56107   0.25000   0.00000  Uiso   1.00
O354   O     0.79510   0.43893   0.25000   0.00000  Uiso   1.00
C355   C     0.83405   0.57995   0.24856   0.00000  Uiso   1.00
C356   C     0.83262   0.42005   0.25144   0.00000  Uiso   1.00
O357   O     0.77328   0.50001   0.31612   0.00000  Uiso   1.00
O358   O     0.89339   0.49999   0.18387   0.00000  Uiso   1.00
O359   O     0.84972   0.50000   0.31612   0.00000  Uiso   1.00
O360   O     0.81695   0.50000   0.18388   0.00000  Uiso   1.00
C361   C     0.80213   0.50067   0.33821   0.00000  Uiso   1.00
C362   C     0.86454   0.49933   0.16179   0.00000  Uiso   1.00
Zn363  Zn    0.78229   0.50001   0.25000   0.00000  Uiso   1.00
Zn364  Zn    0.88438   0.49999   0.25000   0.00000  Uiso   1.00
C365   C     0.78164   0.50425   0.38926   0.00000  Uiso   1.00
C366   C     0.88503   0.49575   0.11073   0.00000  Uiso   1.00
C367   C     0.72654   0.53420   0.46242   0.00000  Uiso   1.00
C368   C     0.94013   0.46580   0.03758   0.00000  Uiso   1.00
C369   C     0.73806   0.52626   0.41512   0.00000  Uiso   1.00
C370   C     0.92861   0.47374   0.08488   0.00000  Uiso   1.00
C371   C     0.81155   0.49023   0.41135   0.00000  Uiso   1.00
C372   C     0.85512   0.50977   0.08865   0.00000  Uiso   1.00
C373   C     0.80429   0.50314   0.45639   0.00000  Uiso   1.00
C374   C     0.86238   0.49687   0.04361   0.00000  Uiso   1.00
C375   C     0.75921   0.52291   0.48315   0.00000  Uiso   1.00
C376   C     0.90745   0.47709   0.01685   0.00000  Uiso   1.00
C377   C     0.83997   0.49611   0.47576   0.00000  Uiso   1.00
C378   C     0.82670   0.50390   0.02424   0.00000  Uiso   1.00
C379   C     0.77791   0.51754   0.05164   0.00000  Uiso   1.00
C380   C     0.88876   0.48246   0.44836   0.00000  Uiso   1.00
C381   C     0.74640   0.52959   0.03064   0.00000  Uiso   1.00
C382   C     0.92027   0.47042   0.46936   0.00000  Uiso   1.00
H383   H     0.82606   0.53095   0.10779   0.00000  Uiso   1.00
H384   H     0.84061   0.46906   0.39221   0.00000  Uiso   1.00
H385   H     0.69225   0.54979   0.48269   0.00000  Uiso   1.00
H386   H     0.97441   0.45021   0.01731   0.00000  Uiso   1.00
C387   C     0.85409   0.64422   0.27623   0.00000  Uiso   1.00
C388   C     0.81257   0.35578   0.22378   0.00000  Uiso   1.00
H389   H     0.86850   0.62636   0.29768   0.00000  Uiso   1.00
H390   H     0.79816   0.37364   0.20233   0.00000  Uiso   1.00
C391   C     0.85210   0.35374   0.27975   0.00000  Uiso   1.00
C392   C     0.81456   0.64626   0.22026   0.00000  Uiso   1.00
C393   C     0.83169   0.37588   0.25267   0.00000  Uiso   1.00
C394   C     0.83497   0.62412   0.24733   0.00000  Uiso   1.00
C395   C     0.98531   0.46947   0.22744   0.00000  Uiso   1.00
C396   C     0.68136   0.53053   0.27256   0.00000  Uiso   1.00
H397   H     0.97462   0.44504   0.20939   0.00000  Uiso   1.00
H398   H     0.69205   0.55496   0.29061   0.00000  Uiso   1.00
C399   C     0.69992   0.46951   0.22740   0.00000  Uiso   1.00
C400   C     0.96675   0.53049   0.27260   0.00000  Uiso   1.00
H401   H     0.72549   0.44515   0.20924   0.00000  Uiso   1.00
H402   H     0.94117   0.55485   0.29076   0.00000  Uiso   1.00
N403   N     0.71426   0.50001   0.25001   0.00000  Uiso   1.00
N404   N     0.95241   0.49999   0.24999   0.00000  Uiso   1.00
F405   F     0.70186   0.54596   0.05758   0.00000  Uiso   1.00
F406   F     0.96481   0.45404   0.44242   0.00000  Uiso   1.00
N407   N     0.96081   0.45846   0.10575   0.00000  Uiso   1.00
O408   O     0.98283   0.48459   0.12305   0.00000  Uiso   1.00
O409   O     0.97641   0.42017   0.09825   0.00000  Uiso   1.00
N410   N     0.70586   0.54155   0.39425   0.00000  Uiso   1.00
O411   O     0.68384   0.51541   0.37695   0.00000  Uiso   1.00
O412   O     0.69026   0.57984   0.40174   0.00000  Uiso   1.00
F413   F     0.75816   0.51675   0.09911   0.00000  Uiso   1.00
F414   F     0.90850   0.48326   0.40089   0.00000  Uiso   1.00
N415   N     0.86851   0.37394   0.31226   0.00000  Uiso   1.00
O416   O     0.84200   0.40309   0.33952   0.00000  Uiso   1.00
O417   O     0.90568   0.35904   0.31973   0.00000  Uiso   1.00
N418   N     0.79815   0.62606   0.18775   0.00000  Uiso   1.00
O419   O     0.82466   0.59692   0.16048   0.00000  Uiso   1.00
O420   O     0.76096   0.64095   0.18030   0.00000  Uiso   1.00
O421   O     0.12846   0.89442   0.25001   0.00000  Uiso   1.00
O422   O     0.20488   0.77225   0.24999   0.00000  Uiso   1.00
O423   O     0.20490   0.89441   0.25000   0.00000  Uiso   1.00
O424   O     0.12843   0.77226   0.25000   0.00000  Uiso   1.00
C425   C     0.16738   0.91328   0.24856   0.00000  Uiso   1.00
C426   C     0.16595   0.75338   0.25144   0.00000  Uiso   1.00
O427   O     0.10661   0.83334   0.31612   0.00000  Uiso   1.00
O428   O     0.22672   0.83333   0.18387   0.00000  Uiso   1.00
O429   O     0.18305   0.83333   0.31612   0.00000  Uiso   1.00
O430   O     0.15028   0.83334   0.18388   0.00000  Uiso   1.00
C431   C     0.13547   0.83400   0.33821   0.00000  Uiso   1.00
C432   C     0.19787   0.83267   0.16179   0.00000  Uiso   1.00
Zn433  Zn    0.11562   0.83334   0.25000   0.00000  Uiso   1.00
Zn434  Zn    0.21771   0.83333   0.25000   0.00000  Uiso   1.00
C435   C     0.11497   0.83758   0.38926   0.00000  Uiso   1.00
C436   C     0.21836   0.82908   0.11073   0.00000  Uiso   1.00
C437   C     0.05987   0.86753   0.46242   0.00000  Uiso   1.00
C438   C     0.27346   0.79914   0.03758   0.00000  Uiso   1.00
C439   C     0.07139   0.85959   0.41512   0.00000  Uiso   1.00
C440   C     0.26194   0.80708   0.08488   0.00000  Uiso   1.00
C441   C     0.14488   0.82356   0.41135   0.00000  Uiso   1.00
C442   C     0.18845   0.84311   0.08865   0.00000  Uiso   1.00
C443   C     0.13762   0.83647   0.45639   0.00000  Uiso   1.00
C444   C     0.19571   0.83020   0.04361   0.00000  Uiso   1.00
C445   C     0.09255   0.85625   0.48315   0.00000  Uiso   1.00
C446   C     0.24079   0.81042   0.01685   0.00000  Uiso   1.00
C447   C     0.17331   0.82944   0.47576   0.00000  Uiso   1.00
C448   C     0.16003   0.83723   0.02424   0.00000  Uiso   1.00
C449   C     0.11124   0.85088   0.05164   0.00000  Uiso   1.00
C450   C     0.22209   0.81579   0.44836   0.00000  Uiso   1.00
C451   C     0.07973   0.86292   0.03064   0.00000  Uiso   1.00
C452   C     0.25360   0.80375   0.46936   0.00000  Uiso   1.00
H453   H     0.15940   0.86428   0.10779   0.00000  Uiso   1.00
H454   H     0.17394   0.80239   0.39221   0.00000  Uiso   1.00
H455   H     0.02559   0.88313   0.48269   0.00000  Uiso   1.00
H456   H     0.30775   0.78354   0.01731   0.00000  Uiso   1.00
C457   C     0.18742   0.97755   0.27623   0.00000  Uiso   1.00
C458   C     0.14591   0.68911   0.22378   0.00000  Uiso   1.00
H459   H     0.20184   0.95969   0.29768   0.00000  Uiso   1.00
H460   H     0.13149   0.70698   0.20233   0.00000  Uiso   1.00
C461   C     0.18544   0.68707   0.27975   0.00000  Uiso   1.00
C462   C     0.14789   0.97959   0.22026   0.00000  Uiso   1.00
C463   C     0.16502   0.70922   0.25267   0.00000  Uiso   1.00
C464   C     0.16831   0.95745   0.24733   0.00000  Uiso   1.00
C465   C     0.31864   0.80281   0.22744   0.00000  Uiso   1.00
C466   C     0.01469   0.86386   0.27256   0.00000  Uiso   1.00
H467   H     0.30795   0.77838   0.20939   0.00000  Uiso   1.00
H468   H     0.02538   0.88829   0.29061   0.00000  Uiso   1.00
C469   C     0.03325   0.80284   0.22740   0.00000  Uiso   1.00
C470   C     0.30008   0.86382   0.27260   0.00000  Uiso   1.00
H471   H     0.05883   0.77848   0.20924   0.00000  Uiso   1.00
H472   H     0.27451   0.88819   0.29076   0.00000  Uiso   1.00
N473   N     0.04759   0.83334   0.25001   0.00000  Uiso   1.00
N474   N     0.28574   0.83332   0.24999   0.00000  Uiso   1.00
F475   F     0.03519   0.87929   0.05758   0.00000  Uiso   1.00
F476   F     0.29814   0.78738   0.44242   0.00000  Uiso   1.00
N477   N     0.29415   0.79179   0.10575   0.00000  Uiso   1.00
O478   O     0.31616   0.81793   0.12305   0.00000  Uiso   1.00
O479   O     0.30974   0.75350   0.09825   0.00000  Uiso   1.00
N480   N     0.03919   0.87488   0.39425   0.00000  Uiso   1.00
O481   O     0.01717   0.84874   0.37695   0.00000  Uiso   1.00
O482   O     0.02359   0.91317   0.40174   0.00000  Uiso   1.00
F483   F     0.09150   0.85008   0.09911   0.00000  Uiso   1.00
F484   F     0.24184   0.81659   0.40089   0.00000  Uiso   1.00
N485   N     0.20184   0.70727   0.31226   0.00000  Uiso   1.00
O486   O     0.17534   0.73642   0.33952   0.00000  Uiso   1.00
O487   O     0.23902   0.69237   0.31973   0.00000  Uiso   1.00
N488   N     0.13148   0.95939   0.18775   0.00000  Uiso   1.00
O489   O     0.15799   0.93025   0.16048   0.00000  Uiso   1.00
O490   O     0.09429   0.97429   0.18030   0.00000  Uiso   1.00
O491   O     0.46179   0.89442   0.25001   0.00000  Uiso   1.00
O492   O     0.53821   0.77225   0.24999   0.00000  Uiso   1.00
O493   O     0.53823   0.89441   0.25000   0.00000  Uiso   1.00
O494   O     0.46177   0.77226   0.25000   0.00000  Uiso   1.00
C495   C     0.50071   0.91328   0.24856   0.00000  Uiso   1.00
C496   C     0.49929   0.75338   0.25144   0.00000  Uiso   1.00
O497   O     0.43994   0.83334   0.31612   0.00000  Uiso   1.00
O498   O     0.56006   0.83333   0.18387   0.00000  Uiso   1.00
O499   O     0.51639   0.83333   0.31612   0.00000  Uiso   1.00
O500   O     0.48361   0.83334   0.18388   0.00000  Uiso   1.00
C501   C     0.46880   0.83400   0.33821   0.00000  Uiso   1.00
C502   C     0.53120   0.83267   0.16179   0.00000  Uiso   1.00
Zn503  Zn    0.44896   0.83334   0.25000   0.00000  Uiso   1.00
Zn504  Zn    0.55104   0.83333   0.25000   0.00000  Uiso   1.00
C505   C     0.44831   0.83758   0.38926   0.00000  Uiso   1.00
C506   C     0.55169   0.82908   0.11073   0.00000  Uiso   1.00
C507   C     0.39321   0.86753   0.46242   0.00000  Uiso   1.00
C508   C     0.60680   0.79914   0.03758   0.00000  Uiso   1.00
C509   C     0.40473   0.85959   0.41512   0.00000  Uiso   1.00
C510   C     0.59527   0.80708   0.08488   0.00000  Uiso   1.00
C511   C     0.47822   0.82356   0.41135   0.00000  Uiso   1.00
C512   C     0.52178   0.84311   0.08865   0.00000  Uiso   1.00
C513   C     0.47096   0.83647   0.45639   0.00000  Uiso   1.00
C514   C     0.52904   0.83020   0.04361   0.00000  Uiso   1.00
C515   C     0.42588   0.85625   0.48315   0.00000  Uiso   1.00
C516   C     0.57412   0.81042   0.01685   0.00000  Uiso   1.00
C517   C     0.50664   0.82944   0.47576   0.00000  Uiso   1.00
C518   C     0.49336   0.83723   0.02424   0.00000  Uiso   1.00
C519   C     0.44458   0.85088   0.05164   0.00000  Uiso   1.00
C520   C     0.55542   0.81579   0.44836   0.00000  Uiso   1.00
C521   C     0.41306   0.86292   0.03064   0.00000  Uiso   1.00
C522   C     0.58694   0.80375   0.46936   0.00000  Uiso   1.00
H523   H     0.49273   0.86428   0.10779   0.00000  Uiso   1.00
H524   H     0.50727   0.80239   0.39221   0.00000  Uiso   1.00
H525   H     0.35892   0.88313   0.48269   0.00000  Uiso   1.00
H526   H     0.64108   0.78354   0.01731   0.00000  Uiso   1.00
C527   C     0.52076   0.97755   0.27623   0.00000  Uiso   1.00
C528   C     0.47924   0.68911   0.22378   0.00000  Uiso   1.00
H529   H     0.53517   0.95969   0.29768   0.00000  Uiso   1.00
H530   H     0.46483   0.70698   0.20233   0.00000  Uiso   1.00
C531   C     0.51877   0.68707   0.27975   0.00000  Uiso   1.00
C532   C     0.48123   0.97959   0.22026   0.00000  Uiso   1.00
C533   C     0.49836   0.70922   0.25267   0.00000  Uiso   1.00
C534   C     0.50164   0.95745   0.24733   0.00000  Uiso   1.00
C535   C     0.65197   0.80281   0.22744   0.00000  Uiso   1.00
C536   C     0.34803   0.86386   0.27256   0.00000  Uiso   1.00
H537   H     0.64129   0.77838   0.20939   0.00000  Uiso   1.00
H538   H     0.35871   0.88829   0.29061   0.00000  Uiso   1.00
C539   C     0.36658   0.80284   0.22740   0.00000  Uiso   1.00
C540   C     0.63342   0.86382   0.27260   0.00000  Uiso   1.00
H541   H     0.39216   0.77848   0.20924   0.00000  Uiso   1.00
H542   H     0.60784   0.88819   0.29076   0.00000  Uiso   1.00
N543   N     0.38093   0.83334   0.25001   0.00000  Uiso   1.00
N544   N     0.61907   0.83332   0.24999   0.00000  Uiso   1.00
F545   F     0.36853   0.87929   0.05758   0.00000  Uiso   1.00
F546   F     0.63148   0.78738   0.44242   0.00000  Uiso   1.00
N547   N     0.62748   0.79179   0.10575   0.00000  Uiso   1.00
O548   O     0.64949   0.81793   0.12305   0.00000  Uiso   1.00
O549   O     0.64308   0.75350   0.09825   0.00000  Uiso   1.00
N550   N     0.37252   0.87488   0.39425   0.00000  Uiso   1.00
O551   O     0.35051   0.84874   0.37695   0.00000  Uiso   1.00
O552   O     0.35693   0.91317   0.40174   0.00000  Uiso   1.00
F553   F     0.42483   0.85008   0.09911   0.00000  Uiso   1.00
F554   F     0.57517   0.81659   0.40089   0.00000  Uiso   1.00
N555   N     0.53517   0.70727   0.31226   0.00000  Uiso   1.00
O556   O     0.50867   0.73642   0.33952   0.00000  Uiso   1.00
O557   O     0.57235   0.69237   0.31973   0.00000  Uiso   1.00
N558   N     0.46482   0.95939   0.18775   0.00000  Uiso   1.00
O559   O     0.49133   0.93025   0.16048   0.00000  Uiso   1.00
O560   O     0.42763   0.97429   0.18030   0.00000  Uiso   1.00
O561   O     0.79512   0.89442   0.25001   0.00000  Uiso   1.00
O562   O     0.87154   0.77225   0.24999   0.00000  Uiso   1.00
O563   O     0.87157   0.89441   0.25000   0.00000  Uiso   1.00
O564   O     0.79510   0.77226   0.25000   0.00000  Uiso   1.00
C565   C     0.83405   0.91328   0.24856   0.00000  Uiso   1.00
C566   C     0.83262   0.75338   0.25144   0.00000  Uiso   1.00
O567   O     0.77328   0.83334   0.31612   0.00000  Uiso   1.00
O568   O     0.89339   0.83333   0.18387   0.00000  Uiso   1.00
O569   O     0.84972   0.83333   0.31612   0.00000  Uiso   1.00
O570   O     0.81695   0.83334   0.18388   0.00000  Uiso   1.00
C571   C     0.80213   0.83400   0.33821   0.00000  Uiso   1.00
C572   C     0.86454   0.83267   0.16179   0.00000  Uiso   1.00
Zn573  Zn    0.78229   0.83334   0.25000   0.00000  Uiso   1.00
Zn574  Zn    0.88438   0.83333   0.25000   0.00000  Uiso   1.00
C575   C     0.78164   0.83758   0.38926   0.00000  Uiso   1.00
C576   C     0.88503   0.82908   0.11073   0.00000  Uiso   1.00
C577   C     0.72654   0.86753   0.46242   0.00000  Uiso   1.00
C578   C     0.94013   0.79914   0.03758   0.00000  Uiso   1.00
C579   C     0.73806   0.85959   0.41512   0.00000  Uiso   1.00
C580   C     0.92861   0.80708   0.08488   0.00000  Uiso   1.00
C581   C     0.81155   0.82356   0.41135   0.00000  Uiso   1.00
C582   C     0.85512   0.84311   0.08865   0.00000  Uiso   1.00
C583   C     0.80429   0.83647   0.45639   0.00000  Uiso   1.00
C584   C     0.86238   0.83020   0.04361   0.00000  Uiso   1.00
C585   C     0.75921   0.85625   0.48315   0.00000  Uiso   1.00
C586   C     0.90745   0.81042   0.01685   0.00000  Uiso   1.00
C587   C     0.83997   0.82944   0.47576   0.00000  Uiso   1.00
C588   C     0.82670   0.83723   0.02424   0.00000  Uiso   1.00
C589   C     0.77791   0.85088   0.05164   0.00000  Uiso   1.00
C590   C     0.88876   0.81579   0.44836   0.00000  Uiso   1.00
C591   C     0.74640   0.86292   0.03064   0.00000  Uiso   1.00
C592   C     0.92027   0.80375   0.46936   0.00000  Uiso   1.00
H593   H     0.82606   0.86428   0.10779   0.00000  Uiso   1.00
H594   H     0.84061   0.80239   0.39221   0.00000  Uiso   1.00
H595   H     0.69225   0.88313   0.48269   0.00000  Uiso   1.00
H596   H     0.97441   0.78354   0.01731   0.00000  Uiso   1.00
C597   C     0.85409   0.97755   0.27623   0.00000  Uiso   1.00
C598   C     0.81257   0.68911   0.22378   0.00000  Uiso   1.00
H599   H     0.86850   0.95969   0.29768   0.00000  Uiso   1.00
H600   H     0.79816   0.70698   0.20233   0.00000  Uiso   1.00
C601   C     0.85210   0.68707   0.27975   0.00000  Uiso   1.00
C602   C     0.81456   0.97959   0.22026   0.00000  Uiso   1.00
C603   C     0.83169   0.70922   0.25267   0.00000  Uiso   1.00
C604   C     0.83497   0.95745   0.24733   0.00000  Uiso   1.00
C605   C     0.98531   0.80281   0.22744   0.00000  Uiso   1.00
C606   C     0.68136   0.86386   0.27256   0.00000  Uiso   1.00
H607   H     0.97462   0.77838   0.20939   0.00000  Uiso   1.00
H608   H     0.69205   0.88829   0.29061   0.00000  Uiso   1.00
C609   C     0.69992   0.80284   0.22740   0.00000  Uiso   1.00
C610   C     0.96675   0.86382   0.27260   0.00000  Uiso   1.00
H611   H     0.72549   0.77848   0.20924   0.00000  Uiso   1.00
H612   H     0.94117   0.88819   0.29076   0.00000  Uiso   1.00
N613   N     0.71426   0.83334   0.25001   0.00000  Uiso   1.00
N614   N     0.95241   0.83332   0.24999   0.00000  Uiso   1.00
F615   F     0.70186   0.87929   0.05758   0.00000  Uiso   1.00
F616   F     0.96481   0.78738   0.44242   0.00000  Uiso   1.00
N617   N     0.96081   0.79179   0.10575   0.00000  Uiso   1.00
O618   O     0.98283   0.81793   0.12305   0.00000  Uiso   1.00
O619   O     0.97641   0.75350   0.09825   0.00000  Uiso   1.00
N620   N     0.70586   0.87488   0.39425   0.00000  Uiso   1.00
O621   O     0.68384   0.84874   0.37695   0.00000  Uiso   1.00
O622   O     0.69026   0.91317   0.40174   0.00000  Uiso   1.00
F623   F     0.75816   0.85008   0.09911   0.00000  Uiso   1.00
F624   F     0.90850   0.81659   0.40089   0.00000  Uiso   1.00
N625   N     0.86851   0.70727   0.31226   0.00000  Uiso   1.00
O626   O     0.84200   0.73642   0.33952   0.00000  Uiso   1.00
O627   O     0.90568   0.69237   0.31973   0.00000  Uiso   1.00
N628   N     0.79815   0.95939   0.18775   0.00000  Uiso   1.00
O629   O     0.82466   0.93025   0.16048   0.00000  Uiso   1.00
O630   O     0.76096   0.97429   0.18030   0.00000  Uiso   1.00
O631   O     0.12846   0.22775   0.75001   0.00000  Uiso   1.00
O632   O     0.20488   0.10558   0.74999   0.00000  Uiso   1.00
O633   O     0.20490   0.22774   0.75000   0.00000  Uiso   1.00
O634   O     0.12843   0.10559   0.75000   0.00000  Uiso   1.00
C635   C     0.16738   0.24662   0.74856   0.00000  Uiso   1.00
C636   C     0.16595   0.08672   0.75144   0.00000  Uiso   1.00
O637   O     0.10661   0.16667   0.81612   0.00000  Uiso   1.00
O638   O     0.22672   0.16666   0.68387   0.00000  Uiso   1.00
O639   O     0.18305   0.16666   0.81612   0.00000  Uiso   1.00
O640   O     0.15028   0.16667   0.68388   0.00000  Uiso   1.00
C641   C     0.13547   0.16733   0.83821   0.00000  Uiso   1.00
C642   C     0.19787   0.16600   0.66179   0.00000  Uiso   1.00
Zn643  Zn    0.11562   0.16667   0.75000   0.00000  Uiso   1.00
Zn644  Zn    0.21771   0.16666   0.75000   0.00000  Uiso   1.00
C645   C     0.11497   0.17092   0.88926   0.00000  Uiso   1.00
C646   C     0.21836   0.16242   0.61073   0.00000  Uiso   1.00
C647   C     0.05987   0.20087   0.96242   0.00000  Uiso   1.00
C648   C     0.27346   0.13247   0.53758   0.00000  Uiso   1.00
C649   C     0.07139   0.19292   0.91512   0.00000  Uiso   1.00
C650   C     0.26194   0.14041   0.58488   0.00000  Uiso   1.00
C651   C     0.14488   0.15689   0.91135   0.00000  Uiso   1.00
C652   C     0.18845   0.17644   0.58865   0.00000  Uiso   1.00
C653   C     0.13762   0.16980   0.95639   0.00000  Uiso   1.00
C654   C     0.19571   0.16353   0.54361   0.00000  Uiso   1.00
C655   C     0.09255   0.18958   0.98315   0.00000  Uiso   1.00
C656   C     0.24079   0.14376   0.51685   0.00000  Uiso   1.00
C657   C     0.17331   0.16277   0.97576   0.00000  Uiso   1.00
C658   C     0.16003   0.17056   0.52424   0.00000  Uiso   1.00
C659   C     0.11124   0.18421   0.55164   0.00000  Uiso   1.00
C660   C     0.22209   0.14913   0.94836   0.00000  Uiso   1.00
C661   C     0.07973   0.19625   0.53064   0.00000  Uiso   1.00
C662   C     0.25360   0.13708   0.96936   0.00000  Uiso   1.00
H663   H     0.15940   0.19761   0.60779   0.00000  Uiso   1.00
H664   H     0.17394   0.13572   0.89221   0.00000  Uiso   1.00
H665   H     0.02559   0.21646   0.98269   0.00000  Uiso   1.00
H666   H     0.30775   0.11688   0.51731   0.00000  Uiso   1.00
C667   C     0.18742   0.31089   0.77623   0.00000  Uiso   1.00
C668   C     0.14591   0.02245   0.72378   0.00000  Uiso   1.00
H669   H     0.20184   0.29302   0.79768   0.00000  Uiso   1.00
H670   H     0.13149   0.04031   0.70233   0.00000  Uiso   1.00
C671   C     0.18544   0.02041   0.77975   0.00000  Uiso   1.00
C672   C     0.14789   0.31293   0.72026   0.00000  Uiso   1.00
C673   C     0.16502   0.04255   0.75267   0.00000  Uiso   1.00
C674   C     0.16831   0.29079   0.74733   0.00000  Uiso   1.00
C675   C     0.31864   0.13614   0.72744   0.00000  Uiso   1.00
C676   C     0.01469   0.19719   0.77256   0.00000  Uiso   1.00
H677   H     0.30795   0.11171   0.70939   0.00000  Uiso   1.00
H678   H     0.02538   0.22162   0.79061   0.00000  Uiso   1.00
C679   C     0.03325   0.13618   0.72740   0.00000  Uiso   1.00
C680   C     0.30008   0.19716   0.77260   0.00000  Uiso   1.00
H681   H     0.05883   0.11181   0.70924   0.00000  Uiso   1.00
H682   H     0.27451   0.22152   0.79076   0.00000  Uiso   1.00
N683   N     0.04759   0.16668   0.75001   0.00000  Uiso   1.00
N684   N     0.28574   0.16666   0.74999   0.00000  Uiso   1.00
F685   F     0.03519   0.21263   0.55758   0.00000  Uiso   1.00
F686   F     0.29814   0.12071   0.94242   0.00000  Uiso   1.00
N687   N     0.29415   0.12512   0.60575   0.00000  Uiso   1.00
O688   O     0.31616   0.15126   0.62305   0.00000  Uiso   1.00
O689   O     0.30974   0.08683   0.59825   0.00000  Uiso   1.00
N690   N     0.03919   0.20821   0.89425   0.00000  Uiso   1.00
O691   O     0.01717   0.18208   0.87695   0.00000  Uiso   1.00
O692   O     0.02359   0.24650   0.90174   0.00000  Uiso   1.00
F693   F     0.09150   0.18341   0.59911   0.00000  Uiso   1.00
F694   F     0.24184   0.14992   0.90089   0.00000  Uiso   1.00
N695   N     0.20184   0.04060   0.81226   0.00000  Uiso   1.00
O696   O     0.17534   0.06975   0.83952   0.00000  Uiso   1.00
O697   O     0.23902   0.02570   0.81973   0.00000  Uiso   1.00
N698   N     0.13148   0.29273   0.68775   0.00000  Uiso   1.00
O699   O     0.15799   0.26359   0.66048   0.00000  Uiso   1.00
O700   O     0.09429   0.30762   0.68030   0.00000  Uiso   1.00
O701   O     0.46179   0.22775   0.75001   0.00000  Uiso   1.00
O702   O     0.53821   0.10558   0.74999   0.00000  Uiso   1.00
O703   O     0.53823   0.22774   0.75000   0.00000  Uiso   1.00
O704   O     0.46177   0.10559   0.75000   0.00000  Uiso   1.00
C705   C     0.50071   0.24662   0.74856   0.00000  Uiso   1.00
C706   C     0.49929   0.08672   0.75144   0.00000  Uiso   1.00
O707   O     0.43994   0.16667   0.81612   0.00000  Uiso   1.00
O708   O     0.56006   0.16666   0.68387   0.00000  Uiso   1.00
O709   O     0.51639   0.16666   0.81612   0.00000  Uiso   1.00
O710   O     0.48361   0.16667   0.68388   0.00000  Uiso   1.00
C711   C     0.46880   0.16733   0.83821   0.00000  Uiso   1.00
C712   C     0.53120   0.16600   0.66179   0.00000  Uiso   1.00
Zn713  Zn    0.44896   0.16667   0.75000   0.00000  Uiso   1.00
Zn714  Zn    0.55104   0.16666   0.75000   0.00000  Uiso   1.00
C715   C     0.44831   0.17092   0.88926   0.00000  Uiso   1.00
C716   C     0.55169   0.16242   0.61073   0.00000  Uiso   1.00
C717   C     0.39321   0.20087   0.96242   0.00000  Uiso   1.00
C718   C     0.60680   0.13247   0.53758   0.00000  Uiso   1.00
C719   C     0.40473   0.19292   0.91512   0.00000  Uiso   1.00
C720   C     0.59527   0.14041   0.58488   0.00000  Uiso   1.00
C721   C     0.47822   0.15689   0.91135   0.00000  Uiso   1.00
C722   C     0.52178   0.17644   0.58865   0.00000  Uiso   1.00
C723   C     0.47096   0.16980   0.95639   0.00000  Uiso   1.00
C724   C     0.52904   0.16353   0.54361   0.00000  Uiso   1.00
C725   C     0.42588   0.18958   0.98315   0.00000  Uiso   1.00
C726   C     0.57412   0.14376   0.51685   0.00000  Uiso   1.00
C727   C     0.50664   0.16277   0.97576   0.00000  Uiso   1.00
C728   C     0.49336   0.17056   0.52424   0.00000  Uiso   1.00
C729   C     0.44458   0.18421   0.55164   0.00000  Uiso   1.00
C730   C     0.55542   0.14913   0.94836   0.00000  Uiso   1.00
C731   C     0.41306   0.19625   0.53064   0.00000  Uiso   1.00
C732   C     0.58694   0.13708   0.96936   0.00000  Uiso   1.00
H733   H     0.49273   0.19761   0.60779   0.00000  Uiso   1.00
H734   H     0.50727   0.13572   0.89221   0.00000  Uiso   1.00
H735   H     0.35892   0.21646   0.98269   0.00000  Uiso   1.00
H736   H     0.64108   0.11688   0.51731   0.00000  Uiso   1.00
C737   C     0.52076   0.31089   0.77623   0.00000  Uiso   1.00
C738   C     0.47924   0.02245   0.72378   0.00000  Uiso   1.00
H739   H     0.53517   0.29302   0.79768   0.00000  Uiso   1.00
H740   H     0.46483   0.04031   0.70233   0.00000  Uiso   1.00
C741   C     0.51877   0.02041   0.77975   0.00000  Uiso   1.00
C742   C     0.48123   0.31293   0.72026   0.00000  Uiso   1.00
C743   C     0.49836   0.04255   0.75267   0.00000  Uiso   1.00
C744   C     0.50164   0.29079   0.74733   0.00000  Uiso   1.00
C745   C     0.65197   0.13614   0.72744   0.00000  Uiso   1.00
C746   C     0.34803   0.19719   0.77256   0.00000  Uiso   1.00
H747   H     0.64129   0.11171   0.70939   0.00000  Uiso   1.00
H748   H     0.35871   0.22162   0.79061   0.00000  Uiso   1.00
C749   C     0.36658   0.13618   0.72740   0.00000  Uiso   1.00
C750   C     0.63342   0.19716   0.77260   0.00000  Uiso   1.00
H751   H     0.39216   0.11181   0.70924   0.00000  Uiso   1.00
H752   H     0.60784   0.22152   0.79076   0.00000  Uiso   1.00
N753   N     0.38093   0.16668   0.75001   0.00000  Uiso   1.00
N754   N     0.61907   0.16666   0.74999   0.00000  Uiso   1.00
F755   F     0.36853   0.21263   0.55758   0.00000  Uiso   1.00
F756   F     0.63148   0.12071   0.94242   0.00000  Uiso   1.00
N757   N     0.62748   0.12512   0.60575   0.00000  Uiso   1.00
O758   O     0.64949   0.15126   0.62305   0.00000  Uiso   1.00
O759   O     0.64308   0.08683   0.59825   0.00000  Uiso   1.00
N760   N     0.37252   0.20821   0.89425   0.00000  Uiso   1.00
O761   O     0.35051   0.18208   0.87695   0.00000  Uiso   1.00
O762   O     0.35693   0.24650   0.90174   0.00000  Uiso   1.00
F763   F     0.42483   0.18341   0.59911   0.00000  Uiso   1.00
F764   F     0.57517   0.14992   0.90089   0.00000  Uiso   1.00
N765   N     0.53517   0.04060   0.81226   0.00000  Uiso   1.00
O766   O     0.50867   0.06975   0.83952   0.00000  Uiso   1.00
O767   O     0.57235   0.02570   0.81973   0.00000  Uiso   1.00
N768   N     0.46482   0.29273   0.68775   0.00000  Uiso   1.00
O769   O     0.49133   0.26359   0.66048   0.00000  Uiso   1.00
O770   O     0.42763   0.30762   0.68030   0.00000  Uiso   1.00
O771   O     0.79512   0.22775   0.75001   0.00000  Uiso   1.00
O772   O     0.87154   0.10558   0.74999   0.00000  Uiso   1.00
O773   O     0.87157   0.22774   0.75000   0.00000  Uiso   1.00
O774   O     0.79510   0.10559   0.75000   0.00000  Uiso   1.00
C775   C     0.83405   0.24662   0.74856   0.00000  Uiso   1.00
C776   C     0.83262   0.08672   0.75144   0.00000  Uiso   1.00
O777   O     0.77328   0.16667   0.81612   0.00000  Uiso   1.00
O778   O     0.89339   0.16666   0.68387   0.00000  Uiso   1.00
O779   O     0.84972   0.16666   0.81612   0.00000  Uiso   1.00
O780   O     0.81695   0.16667   0.68388   0.00000  Uiso   1.00
C781   C     0.80213   0.16733   0.83821   0.00000  Uiso   1.00
C782   C     0.86454   0.16600   0.66179   0.00000  Uiso   1.00
Zn783  Zn    0.78229   0.16667   0.75000   0.00000  Uiso   1.00
Zn784  Zn    0.88438   0.16666   0.75000   0.00000  Uiso   1.00
C785   C     0.78164   0.17092   0.88926   0.00000  Uiso   1.00
C786   C     0.88503   0.16242   0.61073   0.00000  Uiso   1.00
C787   C     0.72654   0.20087   0.96242   0.00000  Uiso   1.00
C788   C     0.94013   0.13247   0.53758   0.00000  Uiso   1.00
C789   C     0.73806   0.19292   0.91512   0.00000  Uiso   1.00
C790   C     0.92861   0.14041   0.58488   0.00000  Uiso   1.00
C791   C     0.81155   0.15689   0.91135   0.00000  Uiso   1.00
C792   C     0.85512   0.17644   0.58865   0.00000  Uiso   1.00
C793   C     0.80429   0.16980   0.95639   0.00000  Uiso   1.00
C794   C     0.86238   0.16353   0.54361   0.00000  Uiso   1.00
C795   C     0.75921   0.18958   0.98315   0.00000  Uiso   1.00
C796   C     0.90745   0.14376   0.51685   0.00000  Uiso   1.00
C797   C     0.83997   0.16277   0.97576   0.00000  Uiso   1.00
C798   C     0.82670   0.17056   0.52424   0.00000  Uiso   1.00
C799   C     0.77791   0.18421   0.55164   0.00000  Uiso   1.00
C800   C     0.88876   0.14913   0.94836   0.00000  Uiso   1.00
C801   C     0.74640   0.19625   0.53064   0.00000  Uiso   1.00
C802   C     0.92027   0.13708   0.96936   0.00000  Uiso   1.00
H803   H     0.82606   0.19761   0.60779   0.00000  Uiso   1.00
H804   H     0.84061   0.13572   0.89221   0.00000  Uiso   1.00
H805   H     0.69225   0.21646   0.98269   0.00000  Uiso   1.00
H806   H     0.97441   0.11688   0.51731   0.00000  Uiso   1.00
C807   C     0.85409   0.31089   0.77623   0.00000  Uiso   1.00
C808   C     0.81257   0.02245   0.72378   0.00000  Uiso   1.00
H809   H     0.86850   0.29302   0.79768   0.00000  Uiso   1.00
H810   H     0.79816   0.04031   0.70233   0.00000  Uiso   1.00
C811   C     0.85210   0.02041   0.77975   0.00000  Uiso   1.00
C812   C     0.81456   0.31293   0.72026   0.00000  Uiso   1.00
C813   C     0.83169   0.04255   0.75267   0.00000  Uiso   1.00
C814   C     0.83497   0.29079   0.74733   0.00000  Uiso   1.00
C815   C     0.98531   0.13614   0.72744   0.00000  Uiso   1.00
C816   C     0.68136   0.19719   0.77256   0.00000  Uiso   1.00
H817   H     0.97462   0.11171   0.70939   0.00000  Uiso   1.00
H818   H     0.69205   0.22162   0.79061   0.00000  Uiso   1.00
C819   C     0.69992   0.13618   0.72740   0.00000  Uiso   1.00
C820   C     0.96675   0.19716   0.77260   0.00000  Uiso   1.00
H821   H     0.72549   0.11181   0.70924   0.00000  Uiso   1.00
H822   H     0.94117   0.22152   0.79076   0.00000  Uiso   1.00
N823   N     0.71426   0.16668   0.75001   0.00000  Uiso   1.00
N824   N     0.95241   0.16666   0.74999   0.00000  Uiso   1.00
F825   F     0.70186   0.21263   0.55758   0.00000  Uiso   1.00
F826   F     0.96481   0.12071   0.94242   0.00000  Uiso   1.00
N827   N     0.96081   0.12512   0.60575   0.00000  Uiso   1.00
O828   O     0.98283   0.15126   0.62305   0.00000  Uiso   1.00
O829   O     0.97641   0.08683   0.59825   0.00000  Uiso   1.00
N830   N     0.70586   0.20821   0.89425   0.00000  Uiso   1.00
O831   O     0.68384   0.18208   0.87695   0.00000  Uiso   1.00
O832   O     0.69026   0.24650   0.90174   0.00000  Uiso   1.00
F833   F     0.75816   0.18341   0.59911   0.00000  Uiso   1.00
F834   F     0.90850   0.14992   0.90089   0.00000  Uiso   1.00
N835   N     0.86851   0.04060   0.81226   0.00000  Uiso   1.00
O836   O     0.84200   0.06975   0.83952   0.00000  Uiso   1.00
O837   O     0.90568   0.02570   0.81973   0.00000  Uiso   1.00
N838   N     0.79815   0.29273   0.68775   0.00000  Uiso   1.00
O839   O     0.82466   0.26359   0.66048   0.00000  Uiso   1.00
O840   O     0.76096   0.30762   0.68030   0.00000  Uiso   1.00
O841   O     0.12846   0.56108   0.75001   0.00000  Uiso   1.00
O842   O     0.20488   0.43892   0.74999   0.00000  Uiso   1.00
O843   O     0.20490   0.56107   0.75000   0.00000  Uiso   1.00
O844   O     0.12843   0.43893   0.75000   0.00000  Uiso   1.00
C845   C     0.16738   0.57995   0.74856   0.00000  Uiso   1.00
C846   C     0.16595   0.42005   0.75144   0.00000  Uiso   1.00
O847   O     0.10661   0.50001   0.81612   0.00000  Uiso   1.00
O848   O     0.22672   0.49999   0.68387   0.00000  Uiso   1.00
O849   O     0.18305   0.50000   0.81612   0.00000  Uiso   1.00
O850   O     0.15028   0.50000   0.68388   0.00000  Uiso   1.00
C851   C     0.13547   0.50067   0.83821   0.00000  Uiso   1.00
C852   C     0.19787   0.49933   0.66179   0.00000  Uiso   1.00
Zn853  Zn    0.11562   0.50001   0.75000   0.00000  Uiso   1.00
Zn854  Zn    0.21771   0.49999   0.75000   0.00000  Uiso   1.00
C855   C     0.11497   0.50425   0.88926   0.00000  Uiso   1.00
C856   C     0.21836   0.49575   0.61073   0.00000  Uiso   1.00
C857   C     0.05987   0.53420   0.96242   0.00000  Uiso   1.00
C858   C     0.27346   0.46580   0.53758   0.00000  Uiso   1.00
C859   C     0.07139   0.52626   0.91512   0.00000  Uiso   1.00
C860   C     0.26194   0.47374   0.58488   0.00000  Uiso   1.00
C861   C     0.14488   0.49023   0.91135   0.00000  Uiso   1.00
C862   C     0.18845   0.50977   0.58865   0.00000  Uiso   1.00
C863   C     0.13762   0.50314   0.95639   0.00000  Uiso   1.00
C864   C     0.19571   0.49687   0.54361   0.00000  Uiso   1.00
C865   C     0.09255   0.52291   0.98315   0.00000  Uiso   1.00
C866   C     0.24079   0.47709   0.51685   0.00000  Uiso   1.00
C867   C     0.17331   0.49611   0.97576   0.00000  Uiso   1.00
C868   C     0.16003   0.50390   0.52424   0.00000  Uiso   1.00
C869   C     0.11124   0.51754   0.55164   0.00000  Uiso   1.00
C870   C     0.22209   0.48246   0.94836   0.00000  Uiso   1.00
C871   C     0.07973   0.52959   0.53064   0.00000  Uiso   1.00
C872   C     0.25360   0.47042   0.96936   0.00000  Uiso   1.00
H873   H     0.15940   0.53095   0.60779   0.00000  Uiso   1.00
H874   H     0.17394   0.46906   0.89221   0.00000  Uiso   1.00
H875   H     0.02559   0.54979   0.98269   0.00000  Uiso   1.00
H876   H     0.30775   0.45021   0.51731   0.00000  Uiso   1.00
C877   C     0.18742   0.64422   0.77623   0.00000  Uiso   1.00
C878   C     0.14591   0.35578   0.72378   0.00000  Uiso   1.00
H879   H     0.20184   0.62636   0.79768   0.00000  Uiso   1.00
H880   H     0.13149   0.37364   0.70233   0.00000  Uiso   1.00
C881   C     0.18544   0.35374   0.77975   0.00000  Uiso   1.00
C882   C     0.14789   0.64626   0.72026   0.00000  Uiso   1.00
C883   C     0.16502   0.37588   0.75267   0.00000  Uiso   1.00
C884   C     0.16831   0.62412   0.74733   0.00000  Uiso   1.00
C885   C     0.31864   0.46947   0.72744   0.00000  Uiso   1.00
C886   C     0.01469   0.53053   0.77256   0.00000  Uiso   1.00
H887   H     0.30795   0.44504   0.70939   0.00000  Uiso   1.00
H888   H     0.02538   0.55496   0.79061   0.00000  Uiso   1.00
C889   C     0.03325   0.46951   0.72740   0.00000  Uiso   1.00
C890   C     0.30008   0.53049   0.77260   0.00000  Uiso   1.00
H891   H     0.05883   0.44515   0.70924   0.00000  Uiso   1.00
H892   H     0.27451   0.55485   0.79076   0.00000  Uiso   1.00
N893   N     0.04759   0.50001   0.75001   0.00000  Uiso   1.00
N894   N     0.28574   0.49999   0.74999   0.00000  Uiso   1.00
F895   F     0.03519   0.54596   0.55758   0.00000  Uiso   1.00
F896   F     0.29814   0.45404   0.94242   0.00000  Uiso   1.00
N897   N     0.29415   0.45846   0.60575   0.00000  Uiso   1.00
O898   O     0.31616   0.48459   0.62305   0.00000  Uiso   1.00
O899   O     0.30974   0.42017   0.59825   0.00000  Uiso   1.00
N900   N     0.03919   0.54155   0.89425   0.00000  Uiso   1.00
O901   O     0.01717   0.51541   0.87695   0.00000  Uiso   1.00
O902   O     0.02359   0.57984   0.90174   0.00000  Uiso   1.00
F903   F     0.09150   0.51675   0.59911   0.00000  Uiso   1.00
F904   F     0.24184   0.48326   0.90089   0.00000  Uiso   1.00
N905   N     0.20184   0.37394   0.81226   0.00000  Uiso   1.00
O906   O     0.17534   0.40309   0.83952   0.00000  Uiso   1.00
O907   O     0.23902   0.35904   0.81973   0.00000  Uiso   1.00
N908   N     0.13148   0.62606   0.68775   0.00000  Uiso   1.00
O909   O     0.15799   0.59692   0.66048   0.00000  Uiso   1.00
O910   O     0.09429   0.64095   0.68030   0.00000  Uiso   1.00
O911   O     0.46179   0.56108   0.75001   0.00000  Uiso   1.00
O912   O     0.53821   0.43892   0.74999   0.00000  Uiso   1.00
O913   O     0.53823   0.56107   0.75000   0.00000  Uiso   1.00
O914   O     0.46177   0.43893   0.75000   0.00000  Uiso   1.00
C915   C     0.50071   0.57995   0.74856   0.00000  Uiso   1.00
C916   C     0.49929   0.42005   0.75144   0.00000  Uiso   1.00
O917   O     0.43994   0.50001   0.81612   0.00000  Uiso   1.00
O918   O     0.56006   0.49999   0.68387   0.00000  Uiso   1.00
O919   O     0.51639   0.50000   0.81612   0.00000  Uiso   1.00
O920   O     0.48361   0.50000   0.68388   0.00000  Uiso   1.00
C921   C     0.46880   0.50067   0.83821   0.00000  Uiso   1.00
C922   C     0.53120   0.49933   0.66179   0.00000  Uiso   1.00
Zn923  Zn    0.44896   0.50001   0.75000   0.00000  Uiso   1.00
Zn924  Zn    0.55104   0.49999   0.75000   0.00000  Uiso   1.00
C925   C     0.44831   0.50425   0.88926   0.00000  Uiso   1.00
C926   C     0.55169   0.49575   0.61073   0.00000  Uiso   1.00
C927   C     0.39321   0.53420   0.96242   0.00000  Uiso   1.00
C928   C     0.60680   0.46580   0.53758   0.00000  Uiso   1.00
C929   C     0.40473   0.52626   0.91512   0.00000  Uiso   1.00
C930   C     0.59527   0.47374   0.58488   0.00000  Uiso   1.00
C931   C     0.47822   0.49023   0.91135   0.00000  Uiso   1.00
C932   C     0.52178   0.50977   0.58865   0.00000  Uiso   1.00
C933   C     0.47096   0.50314   0.95639   0.00000  Uiso   1.00
C934   C     0.52904   0.49687   0.54361   0.00000  Uiso   1.00
C935   C     0.42588   0.52291   0.98315   0.00000  Uiso   1.00
C936   C     0.57412   0.47709   0.51685   0.00000  Uiso   1.00
C937   C     0.50664   0.49611   0.97576   0.00000  Uiso   1.00
C938   C     0.49336   0.50390   0.52424   0.00000  Uiso   1.00
C939   C     0.44458   0.51754   0.55164   0.00000  Uiso   1.00
C940   C     0.55542   0.48246   0.94836   0.00000  Uiso   1.00
C941   C     0.41306   0.52959   0.53064   0.00000  Uiso   1.00
C942   C     0.58694   0.47042   0.96936   0.00000  Uiso   1.00
H943   H     0.49273   0.53095   0.60779   0.00000  Uiso   1.00
H944   H     0.50727   0.46906   0.89221   0.00000  Uiso   1.00
H945   H     0.35892   0.54979   0.98269   0.00000  Uiso   1.00
H946   H     0.64108   0.45021   0.51731   0.00000  Uiso   1.00
C947   C     0.52076   0.64422   0.77623   0.00000  Uiso   1.00
C948   C     0.47924   0.35578   0.72378   0.00000  Uiso   1.00
H949   H     0.53517   0.62636   0.79768   0.00000  Uiso   1.00
H950   H     0.46483   0.37364   0.70233   0.00000  Uiso   1.00
C951   C     0.51877   0.35374   0.77975   0.00000  Uiso   1.00
C952   C     0.48123   0.64626   0.72026   0.00000  Uiso   1.00
C953   C     0.49836   0.37588   0.75267   0.00000  Uiso   1.00
C954   C     0.50164   0.62412   0.74733   0.00000  Uiso   1.00
C955   C     0.65197   0.46947   0.72744   0.00000  Uiso   1.00
C956   C     0.34803   0.53053   0.77256   0.00000  Uiso   1.00
H957   H     0.64129   0.44504   0.70939   0.00000  Uiso   1.00
H958   H     0.35871   0.55496   0.79061   0.00000  Uiso   1.00
C959   C     0.36658   0.46951   0.72740   0.00000  Uiso   1.00
C960   C     0.63342   0.53049   0.77260   0.00000  Uiso   1.00
H961   H     0.39216   0.44515   0.70924   0.00000  Uiso   1.00
H962   H     0.60784   0.55485   0.79076   0.00000  Uiso   1.00
N963   N     0.38093   0.50001   0.75001   0.00000  Uiso   1.00
N964   N     0.61907   0.49999   0.74999   0.00000  Uiso   1.00
F965   F     0.36853   0.54596   0.55758   0.00000  Uiso   1.00
F966   F     0.63148   0.45404   0.94242   0.00000  Uiso   1.00
N967   N     0.62748   0.45846   0.60575   0.00000  Uiso   1.00
O968   O     0.64949   0.48459   0.62305   0.00000  Uiso   1.00
O969   O     0.64308   0.42017   0.59825   0.00000  Uiso   1.00
N970   N     0.37252   0.54155   0.89425   0.00000  Uiso   1.00
O971   O     0.35051   0.51541   0.87695   0.00000  Uiso   1.00
O972   O     0.35693   0.57984   0.90174   0.00000  Uiso   1.00
F973   F     0.42483   0.51675   0.59911   0.00000  Uiso   1.00
F974   F     0.57517   0.48326   0.90089   0.00000  Uiso   1.00
N975   N     0.53517   0.37394   0.81226   0.00000  Uiso   1.00
O976   O     0.50867   0.40309   0.83952   0.00000  Uiso   1.00
O977   O     0.57235   0.35904   0.81973   0.00000  Uiso   1.00
N978   N     0.46482   0.62606   0.68775   0.00000  Uiso   1.00
O979   O     0.49133   0.59692   0.66048   0.00000  Uiso   1.00
O980   O     0.42763   0.64095   0.68030   0.00000  Uiso   1.00
O981   O     0.79512   0.56108   0.75001   0.00000  Uiso   1.00
O982   O     0.87154   0.43892   0.74999   0.00000  Uiso   1.00
O983   O     0.87157   0.56107   0.75000   0.00000  Uiso   1.00
O984   O     0.79510   0.43893   0.75000   0.00000  Uiso   1.00
C985   C     0.83405   0.57995   0.74856   0.00000  Uiso   1.00
C986   C     0.83262   0.42005   0.75144   0.00000  Uiso   1.00
O987   O     0.77328   0.50001   0.81612   0.00000  Uiso   1.00
O988   O     0.89339   0.49999   0.68387   0.00000  Uiso   1.00
O989   O     0.84972   0.50000   0.81612   0.00000  Uiso   1.00
O990   O     0.81695   0.50000   0.68388   0.00000  Uiso   1.00
C991   C     0.80213   0.50067   0.83821   0.00000  Uiso   1.00
C992   C     0.86454   0.49933   0.66179   0.00000  Uiso   1.00
Zn993  Zn    0.78229   0.50001   0.75000   0.00000  Uiso   1.00
Zn994  Zn    0.88438   0.49999   0.75000   0.00000  Uiso   1.00
C995   C     0.78164   0.50425   0.88926   0.00000  Uiso   1.00
C996   C     0.88503   0.49575   0.61073   0.00000  Uiso   1.00
C997   C     0.72654   0.53420   0.96242   0.00000  Uiso   1.00
C998   C     0.94013   0.46580   0.53758   0.00000  Uiso   1.00
C999   C     0.73806   0.52626   0.91512   0.00000  Uiso   1.00
C1000  C     0.92861   0.47374   0.58488   0.00000  Uiso   1.00
C1001  C     0.81155   0.49023   0.91135   0.00000  Uiso   1.00
C1002  C     0.85512   0.50977   0.58865   0.00000  Uiso   1.00
C1003  C     0.80429   0.50314   0.95639   0.00000  Uiso   1.00
C1004  C     0.86238   0.49687   0.54361   0.00000  Uiso   1.00
C1005  C     0.75921   0.52291   0.98315   0.00000  Uiso   1.00
C1006  C     0.90745   0.47709   0.51685   0.00000  Uiso   1.00
C1007  C     0.83997   0.49611   0.97576   0.00000  Uiso   1.00
C1008  C     0.82670   0.50390   0.52424   0.00000  Uiso   1.00
C1009  C     0.77791   0.51754   0.55164   0.00000  Uiso   1.00
C1010  C     0.88876   0.48246   0.94836   0.00000  Uiso   1.00
C1011  C     0.74640   0.52959   0.53064   0.00000  Uiso   1.00
C1012  C     0.92027   0.47042   0.96936   0.00000  Uiso   1.00
H1013  H     0.82606   0.53095   0.60779   0.00000  Uiso   1.00
H1014  H     0.84061   0.46906   0.89221   0.00000  Uiso   1.00
H1015  H     0.69225   0.54979   0.98269   0.00000  Uiso   1.00
H1016  H     0.97441   0.45021   0.51731   0.00000  Uiso   1.00
C1017  C     0.85409   0.64422   0.77623   0.00000  Uiso   1.00
C1018  C     0.81257   0.35578   0.72378   0.00000  Uiso   1.00
H1019  H     0.86850   0.62636   0.79768   0.00000  Uiso   1.00
H1020  H     0.79816   0.37364   0.70233   0.00000  Uiso   1.00
C1021  C     0.85210   0.35374   0.77975   0.00000  Uiso   1.00
C1022  C     0.81456   0.64626   0.72026   0.00000  Uiso   1.00
C1023  C     0.83169   0.37588   0.75267   0.00000  Uiso   1.00
C1024  C     0.83497   0.62412   0.74733   0.00000  Uiso   1.00
C1025  C     0.98531   0.46947   0.72744   0.00000  Uiso   1.00
C1026  C     0.68136   0.53053   0.77256   0.00000  Uiso   1.00
H1027  H     0.97462   0.44504   0.70939   0.00000  Uiso   1.00
H1028  H     0.69205   0.55496   0.79061   0.00000  Uiso   1.00
C1029  C     0.69992   0.46951   0.72740   0.00000  Uiso   1.00
C1030  C     0.96675   0.53049   0.77260   0.00000  Uiso   1.00
H1031  H     0.72549   0.44515   0.70924   0.00000  Uiso   1.00
H1032  H     0.94117   0.55485   0.79076   0.00000  Uiso   1.00
N1033  N     0.71426   0.50001   0.75001   0.00000  Uiso   1.00
N1034  N     0.95241   0.49999   0.74999   0.00000  Uiso   1.00
F1035  F     0.70186   0.54596   0.55758   0.00000  Uiso   1.00
F1036  F     0.96481   0.45404   0.94242   0.00000  Uiso   1.00
N1037  N     0.96081   0.45846   0.60575   0.00000  Uiso   1.00
O1038  O     0.98283   0.48459   0.62305   0.00000  Uiso   1.00
O1039  O     0.97641   0.42017   0.59825   0.00000  Uiso   1.00
N1040  N     0.70586   0.54155   0.89425   0.00000  Uiso   1.00
O1041  O     0.68384   0.51541   0.87695   0.00000  Uiso   1.00
O1042  O     0.69026   0.57984   0.90174   0.00000  Uiso   1.00
F1043  F     0.75816   0.51675   0.59911   0.00000  Uiso   1.00
F1044  F     0.90850   0.48326   0.90089   0.00000  Uiso   1.00
N1045  N     0.86851   0.37394   0.81226   0.00000  Uiso   1.00
O1046  O     0.84200   0.40309   0.83952   0.00000  Uiso   1.00
O1047  O     0.90568   0.35904   0.81973   0.00000  Uiso   1.00
N1048  N     0.79815   0.62606   0.68775   0.00000  Uiso   1.00
O1049  O     0.82466   0.59692   0.66048   0.00000  Uiso   1.00
O1050  O     0.76096   0.64095   0.68030   0.00000  Uiso   1.00
O1051  O     0.12846   0.89442   0.75001   0.00000  Uiso   1.00
O1052  O     0.20488   0.77225   0.74999   0.00000  Uiso   1.00
O1053  O     0.20490   0.89441   0.75000   0.00000  Uiso   1.00
O1054  O     0.12843   0.77226   0.75000   0.00000  Uiso   1.00
C1055  C     0.16738   0.91328   0.74856   0.00000  Uiso   1.00
C1056  C     0.16595   0.75338   0.75144   0.00000  Uiso   1.00
O1057  O     0.10661   0.83334   0.81612   0.00000  Uiso   1.00
O1058  O     0.22672   0.83333   0.68387   0.00000  Uiso   1.00
O1059  O     0.18305   0.83333   0.81612   0.00000  Uiso   1.00
O1060  O     0.15028   0.83334   0.68388   0.00000  Uiso   1.00
C1061  C     0.13547   0.83400   0.83821   0.00000  Uiso   1.00
C1062  C     0.19787   0.83267   0.66179   0.00000  Uiso   1.00
Zn1063 Zn    0.11562   0.83334   0.75000   0.00000  Uiso   1.00
Zn1064 Zn    0.21771   0.83333   0.75000   0.00000  Uiso   1.00
C1065  C     0.11497   0.83758   0.88926   0.00000  Uiso   1.00
C1066  C     0.21836   0.82908   0.61073   0.00000  Uiso   1.00
C1067  C     0.05987   0.86753   0.96242   0.00000  Uiso   1.00
C1068  C     0.27346   0.79914   0.53758   0.00000  Uiso   1.00
C1069  C     0.07139   0.85959   0.91512   0.00000  Uiso   1.00
C1070  C     0.26194   0.80708   0.58488   0.00000  Uiso   1.00
C1071  C     0.14488   0.82356   0.91135   0.00000  Uiso   1.00
C1072  C     0.18845   0.84311   0.58865   0.00000  Uiso   1.00
C1073  C     0.13762   0.83647   0.95639   0.00000  Uiso   1.00
C1074  C     0.19571   0.83020   0.54361   0.00000  Uiso   1.00
C1075  C     0.09255   0.85625   0.98315   0.00000  Uiso   1.00
C1076  C     0.24079   0.81042   0.51685   0.00000  Uiso   1.00
C1077  C     0.17331   0.82944   0.97576   0.00000  Uiso   1.00
C1078  C     0.16003   0.83723   0.52424   0.00000  Uiso   1.00
C1079  C     0.11124   0.85088   0.55164   0.00000  Uiso   1.00
C1080  C     0.22209   0.81579   0.94836   0.00000  Uiso   1.00
C1081  C     0.07973   0.86292   0.53064   0.00000  Uiso   1.00
C1082  C     0.25360   0.80375   0.96936   0.00000  Uiso   1.00
H1083  H     0.15940   0.86428   0.60779   0.00000  Uiso   1.00
H1084  H     0.17394   0.80239   0.89221   0.00000  Uiso   1.00
H1085  H     0.02559   0.88313   0.98269   0.00000  Uiso   1.00
H1086  H     0.30775   0.78354   0.51731   0.00000  Uiso   1.00
C1087  C     0.18742   0.97755   0.77623   0.00000  Uiso   1.00
C1088  C     0.14591   0.68911   0.72378   0.00000  Uiso   1.00
H1089  H     0.20184   0.95969   0.79768   0.00000  Uiso   1.00
H1090  H     0.13149   0.70698   0.70233   0.00000  Uiso   1.00
C1091  C     0.18544   0.68707   0.77975   0.00000  Uiso   1.00
C1092  C     0.14789   0.97959   0.72026   0.00000  Uiso   1.00
C1093  C     0.16502   0.70922   0.75267   0.00000  Uiso   1.00
C1094  C     0.16831   0.95745   0.74733   0.00000  Uiso   1.00
C1095  C     0.31864   0.80281   0.72744   0.00000  Uiso   1.00
C1096  C     0.01469   0.86386   0.77256   0.00000  Uiso   1.00
H1097  H     0.30795   0.77838   0.70939   0.00000  Uiso   1.00
H1098  H     0.02538   0.88829   0.79061   0.00000  Uiso   1.00
C1099  C     0.03325   0.80284   0.72740   0.00000  Uiso   1.00
C1100  C     0.30008   0.86382   0.77260   0.00000  Uiso   1.00
H1101  H     0.05883   0.77848   0.70924   0.00000  Uiso   1.00
H1102  H     0.27451   0.88819   0.79076   0.00000  Uiso   1.00
N1103  N     0.04759   0.83334   0.75001   0.00000  Uiso   1.00
N1104  N     0.28574   0.83332   0.74999   0.00000  Uiso   1.00
F1105  F     0.03519   0.87929   0.55758   0.00000  Uiso   1.00
F1106  F     0.29814   0.78738   0.94242   0.00000  Uiso   1.00
N1107  N     0.29415   0.79179   0.60575   0.00000  Uiso   1.00
O1108  O     0.31616   0.81793   0.62305   0.00000  Uiso   1.00
O1109  O     0.30974   0.75350   0.59825   0.00000  Uiso   1.00
N1110  N     0.03919   0.87488   0.89425   0.00000  Uiso   1.00
O1111  O     0.01717   0.84874   0.87695   0.00000  Uiso   1.00
O1112  O     0.02359   0.91317   0.90174   0.00000  Uiso   1.00
F1113  F     0.09150   0.85008   0.59911   0.00000  Uiso   1.00
F1114  F     0.24184   0.81659   0.90089   0.00000  Uiso   1.00
N1115  N     0.20184   0.70727   0.81226   0.00000  Uiso   1.00
O1116  O     0.17534   0.73642   0.83952   0.00000  Uiso   1.00
O1117  O     0.23902   0.69237   0.81973   0.00000  Uiso   1.00
N1118  N     0.13148   0.95939   0.68775   0.00000  Uiso   1.00
O1119  O     0.15799   0.93025   0.66048   0.00000  Uiso   1.00
O1120  O     0.09429   0.97429   0.68030   0.00000  Uiso   1.00
O1121  O     0.46179   0.89442   0.75001   0.00000  Uiso   1.00
O1122  O     0.53821   0.77225   0.74999   0.00000  Uiso   1.00
O1123  O     0.53823   0.89441   0.75000   0.00000  Uiso   1.00
O1124  O     0.46177   0.77226   0.75000   0.00000  Uiso   1.00
C1125  C     0.50071   0.91328   0.74856   0.00000  Uiso   1.00
C1126  C     0.49929   0.75338   0.75144   0.00000  Uiso   1.00
O1127  O     0.43994   0.83334   0.81612   0.00000  Uiso   1.00
O1128  O     0.56006   0.83333   0.68387   0.00000  Uiso   1.00
O1129  O     0.51639   0.83333   0.81612   0.00000  Uiso   1.00
O1130  O     0.48361   0.83334   0.68388   0.00000  Uiso   1.00
C1131  C     0.46880   0.83400   0.83821   0.00000  Uiso   1.00
C1132  C     0.53120   0.83267   0.66179   0.00000  Uiso   1.00
Zn1133 Zn    0.44896   0.83334   0.75000   0.00000  Uiso   1.00
Zn1134 Zn    0.55104   0.83333   0.75000   0.00000  Uiso   1.00
C1135  C     0.44831   0.83758   0.88926   0.00000  Uiso   1.00
C1136  C     0.55169   0.82908   0.61073   0.00000  Uiso   1.00
C1137  C     0.39321   0.86753   0.96242   0.00000  Uiso   1.00
C1138  C     0.60680   0.79914   0.53758   0.00000  Uiso   1.00
C1139  C     0.40473   0.85959   0.91512   0.00000  Uiso   1.00
C1140  C     0.59527   0.80708   0.58488   0.00000  Uiso   1.00
C1141  C     0.47822   0.82356   0.91135   0.00000  Uiso   1.00
C1142  C     0.52178   0.84311   0.58865   0.00000  Uiso   1.00
C1143  C     0.47096   0.83647   0.95639   0.00000  Uiso   1.00
C1144  C     0.52904   0.83020   0.54361   0.00000  Uiso   1.00
C1145  C     0.42588   0.85625   0.98315   0.00000  Uiso   1.00
C1146  C     0.57412   0.81042   0.51685   0.00000  Uiso   1.00
C1147  C     0.50664   0.82944   0.97576   0.00000  Uiso   1.00
C1148  C     0.49336   0.83723   0.52424   0.00000  Uiso   1.00
C1149  C     0.44458   0.85088   0.55164   0.00000  Uiso   1.00
C1150  C     0.55542   0.81579   0.94836   0.00000  Uiso   1.00
C1151  C     0.41306   0.86292   0.53064   0.00000  Uiso   1.00
C1152  C     0.58694   0.80375   0.96936   0.00000  Uiso   1.00
H1153  H     0.49273   0.86428   0.60779   0.00000  Uiso   1.00
H1154  H     0.50727   0.80239   0.89221   0.00000  Uiso   1.00
H1155  H     0.35892   0.88313   0.98269   0.00000  Uiso   1.00
H1156  H     0.64108   0.78354   0.51731   0.00000  Uiso   1.00
C1157  C     0.52076   0.97755   0.77623   0.00000  Uiso   1.00
C1158  C     0.47924   0.68911   0.72378   0.00000  Uiso   1.00
H1159  H     0.53517   0.95969   0.79768   0.00000  Uiso   1.00
H1160  H     0.46483   0.70698   0.70233   0.00000  Uiso   1.00
C1161  C     0.51877   0.68707   0.77975   0.00000  Uiso   1.00
C1162  C     0.48123   0.97959   0.72026   0.00000  Uiso   1.00
C1163  C     0.49836   0.70922   0.75267   0.00000  Uiso   1.00
C1164  C     0.50164   0.95745   0.74733   0.00000  Uiso   1.00
C1165  C     0.65197   0.80281   0.72744   0.00000  Uiso   1.00
C1166  C     0.34803   0.86386   0.77256   0.00000  Uiso   1.00
H1167  H     0.64129   0.77838   0.70939   0.00000  Uiso   1.00
H1168  H     0.35871   0.88829   0.79061   0.00000  Uiso   1.00
C1169  C     0.36658   0.80284   0.72740   0.00000  Uiso   1.00
C1170  C     0.63342   0.86382   0.77260   0.00000  Uiso   1.00
H1171  H     0.39216   0.77848   0.70924   0.00000  Uiso   1.00
H1172  H     0.60784   0.88819   0.79076   0.00000  Uiso   1.00
N1173  N     0.38093   0.83334   0.75001   0.00000  Uiso   1.00
N1174  N     0.61907   0.83332   0.74999   0.00000  Uiso   1.00
F1175  F     0.36853   0.87929   0.55758   0.00000  Uiso   1.00
F1176  F     0.63148   0.78738   0.94242   0.00000  Uiso   1.00
N1177  N     0.62748   0.79179   0.60575   0.00000  Uiso   1.00
O1178  O     0.64949   0.81793   0.62305   0.00000  Uiso   1.00
O1179  O     0.64308   0.75350   0.59825   0.00000  Uiso   1.00
N1180  N     0.37252   0.87488   0.89425   0.00000  Uiso   1.00
O1181  O     0.35051   0.84874   0.87695   0.00000  Uiso   1.00
O1182  O     0.35693   0.91317   0.90174   0.00000  Uiso   1.00
F1183  F     0.42483   0.85008   0.59911   0.00000  Uiso   1.00
F1184  F     0.57517   0.81659   0.90089   0.00000  Uiso   1.00
N1185  N     0.53517   0.70727   0.81226   0.00000  Uiso   1.00
O1186  O     0.50867   0.73642   0.83952   0.00000  Uiso   1.00
O1187  O     0.57235   0.69237   0.81973   0.00000  Uiso   1.00
N1188  N     0.46482   0.95939   0.68775   0.00000  Uiso   1.00
O1189  O     0.49133   0.93025   0.66048   0.00000  Uiso   1.00
O1190  O     0.42763   0.97429   0.68030   0.00000  Uiso   1.00
O1191  O     0.79512   0.89442   0.75001   0.00000  Uiso   1.00
O1192  O     0.87154   0.77225   0.74999   0.00000  Uiso   1.00
O1193  O     0.87157   0.89441   0.75000   0.00000  Uiso   1.00
O1194  O     0.79510   0.77226   0.75000   0.00000  Uiso   1.00
C1195  C     0.83405   0.91328   0.74856   0.00000  Uiso   1.00
C1196  C     0.83262   0.75338   0.75144   0.00000  Uiso   1.00
O1197  O     0.77328   0.83334   0.81612   0.00000  Uiso   1.00
O1198  O     0.89339   0.83333   0.68387   0.00000  Uiso   1.00
O1199  O     0.84972   0.83333   0.81612   0.00000  Uiso   1.00
O1200  O     0.81695   0.83334   0.68388   0.00000  Uiso   1.00
C1201  C     0.80213   0.83400   0.83821   0.00000  Uiso   1.00
C1202  C     0.86454   0.83267   0.66179   0.00000  Uiso   1.00
Zn1203 Zn    0.78229   0.83334   0.75000   0.00000  Uiso   1.00
Zn1204 Zn    0.88438   0.83333   0.75000   0.00000  Uiso   1.00
C1205  C     0.78164   0.83758   0.88926   0.00000  Uiso   1.00
C1206  C     0.88503   0.82908   0.61073   0.00000  Uiso   1.00
C1207  C     0.72654   0.86753   0.96242   0.00000  Uiso   1.00
C1208  C     0.94013   0.79914   0.53758   0.00000  Uiso   1.00
C1209  C     0.73806   0.85959   0.91512   0.00000  Uiso   1.00
C1210  C     0.92861   0.80708   0.58488   0.00000  Uiso   1.00
C1211  C     0.81155   0.82356   0.91135   0.00000  Uiso   1.00
C1212  C     0.85512   0.84311   0.58865   0.00000  Uiso   1.00
C1213  C     0.80429   0.83647   0.95639   0.00000  Uiso   1.00
C1214  C     0.86238   0.83020   0.54361   0.00000  Uiso   1.00
C1215  C     0.75921   0.85625   0.98315   0.00000  Uiso   1.00
C1216  C     0.90745   0.81042   0.51685   0.00000  Uiso   1.00
C1217  C     0.83997   0.82944   0.97576   0.00000  Uiso   1.00
C1218  C     0.82670   0.83723   0.52424   0.00000  Uiso   1.00
C1219  C     0.77791   0.85088   0.55164   0.00000  Uiso   1.00
C1220  C     0.88876   0.81579   0.94836   0.00000  Uiso   1.00
C1221  C     0.74640   0.86292   0.53064   0.00000  Uiso   1.00
C1222  C     0.92027   0.80375   0.96936   0.00000  Uiso   1.00
H1223  H     0.82606   0.86428   0.60779   0.00000  Uiso   1.00
H1224  H     0.84061   0.80239   0.89221   0.00000  Uiso   1.00
H1225  H     0.69225   0.88313   0.98269   0.00000  Uiso   1.00
H1226  H     0.97441   0.78354   0.51731   0.00000  Uiso   1.00
C1227  C     0.85409   0.97755   0.77623   0.00000  Uiso   1.00
C1228  C     0.81257   0.68911   0.72378   0.00000  Uiso   1.00
H1229  H     0.86850   0.95969   0.79768   0.00000  Uiso   1.00
H1230  H     0.79816   0.70698   0.70233   0.00000  Uiso   1.00
C1231  C     0.85210   0.68707   0.77975   0.00000  Uiso   1.00
C1232  C     0.81456   0.97959   0.72026   0.00000  Uiso   1.00
C1233  C     0.83169   0.70922   0.75267   0.00000  Uiso   1.00
C1234  C     0.83497   0.95745   0.74733   0.00000  Uiso   1.00
C1235  C     0.98531   0.80281   0.72744   0.00000  Uiso   1.00
C1236  C     0.68136   0.86386   0.77256   0.00000  Uiso   1.00
H1237  H     0.97462   0.77838   0.70939   0.00000  Uiso   1.00
H1238  H     0.69205   0.88829   0.79061   0.00000  Uiso   1.00
C1239  C     0.69992   0.80284   0.72740   0.00000  Uiso   1.00
C1240  C     0.96675   0.86382   0.77260   0.00000  Uiso   1.00
H1241  H     0.72549   0.77848   0.70924   0.00000  Uiso   1.00
H1242  H     0.94117   0.88819   0.79076   0.00000  Uiso   1.00
N1243  N     0.71426   0.83334   0.75001   0.00000  Uiso   1.00
N1244  N     0.95241   0.83332   0.74999   0.00000  Uiso   1.00
F1245  F     0.70186   0.87929   0.55758   0.00000  Uiso   1.00
F1246  F     0.96481   0.78738   0.94242   0.00000  Uiso   1.00
N1247  N     0.96081   0.79179   0.60575   0.00000  Uiso   1.00
O1248  O     0.98283   0.81793   0.62305   0.00000  Uiso   1.00
O1249  O     0.97641   0.75350   0.59825   0.00000  Uiso   1.00
N1250  N     0.70586   0.87488   0.89425   0.00000  Uiso   1.00
O1251  O     0.68384   0.84874   0.87695   0.00000  Uiso   1.00
O1252  O     0.69026   0.91317   0.90174   0.00000  Uiso   1.00
F1253  F     0.75816   0.85008   0.59911   0.00000  Uiso   1.00
F1254  F     0.90850   0.81659   0.90089   0.00000  Uiso   1.00
N1255  N     0.86851   0.70727   0.81226   0.00000  Uiso   1.00
O1256  O     0.84200   0.73642   0.83952   0.00000  Uiso   1.00
O1257  O     0.90568   0.69237   0.81973   0.00000  Uiso   1.00
N1258  N     0.79815   0.95939   0.68775   0.00000  Uiso   1.00
O1259  O     0.82466   0.93025   0.66048   0.00000  Uiso   1.00
O1260  O     0.76096   0.97429   0.68030   0.00000  Uiso   1.00
loop_
_geom_bond_atom_site_label_1
_geom_bond_atom_site_label_2
_geom_bond_distance
_geom_bond_site_symmetry_2
_ccdc_geom_bond_type
O1     C5      1.282   .     A
O1     Zn13    1.991   .     S
O2     C6      1.282   .     A
O2     Zn14    1.991   .     S
O3     C5      1.281   .     A
O3     Zn14    1.994   .     S
O4     C6      1.281   .     A
O4     Zn13    1.994   .     S
C5     C44     1.415   .     S
C6     C43     1.415   .     S
O7     C11     1.290   .     A
O7     Zn13    1.967   .     S
O8     C12     1.290   .     A
O8     Zn14    1.967   .     S
O9     Zn14    1.901   .     S
O9     C11     1.299   .     A
O10    C12     1.299   .     A
O10    Zn13    1.901   .     S
C11    C15     1.464   .     S
C12    C16     1.464   .     S
Zn13   N53     2.010   .     S
Zn14   N54     2.010   .     S
C15    C21     1.391   .     A
C15    C19     1.413   .     A
C16    C20     1.413   .     A
C16    C22     1.391   .     A
C17    C25     1.404   .     A
C17    C19     1.397   .     A
C17    H35     1.084   .     S
C18    C26     1.404   .     A
C18    H36     1.084   .     S
C18    C20     1.397   .     A
C19    N60     1.434   .     S
C20    N57     1.434   .     S
C21    C23     1.396   .     A
C21    H34     1.075   .     S
C22    C24     1.396   .     A
C22    H33     1.075   .     S
C23    C27     1.424   .     A
C23    C25     1.415   .     A
C24    C26     1.415   .     A
C24    C28     1.424   .     A
C25    C661    1.390   .     S
C26    C662    1.390   1_554 S
C27    C30     1.425   .     A
C27    C658    1.424   .     S
C28    C29     1.426   .     A
C28    C657    1.424   1_554 S
C29    F63     1.356   .     S
C29    C31     1.387   .     A
C30    C32     1.387   .     A
C30    F64     1.356   .     S
C31    F55     1.359   .     S
C31    C655    1.390   1_554 S
C32    F56     1.359   .     S
C32    C656    1.390   .     S
C37    C44     1.395   .     A
C37    H39     1.085   .     S
C37    C251    1.377   .     S
C38    C43     1.395   .     A
C38    H40     1.085   .     S
C38    C462    1.377   1_545 S
C41    C43     1.406   .     A
C41    N65     1.438   .     S
C41    C457    1.377   1_545 S
C42    N68     1.438   .     S
C42    C44     1.405   .     A
C42    C248    1.377   .     S
C45    N54     1.366   .     A
C45    H47     1.082   .     S
C45    C119    1.416   .     S
C46    N53     1.366   .     A
C46    H48     1.082   .     S
C46    C190    1.416   1_455 S
C49    N53     1.367   .     A
C49    H51     1.082   .     S
C49    C185    1.416   1_455 S
C50    H52     1.082   .     S
C50    N54     1.367   .     A
C50    C116    1.416   .     S
N57    O58     1.300   .     A
N57    O59     1.301   .     A
N60    O61     1.300   .     A
N60    O62     1.301   .     A
N65    O66     1.301   .     A
N65    O67     1.302   .     A
N68    O70     1.302   .     A
N68    O69     1.301   .     A
O71    C75     1.282   .     A
O71    Zn83    1.991   .     S
O72    C76     1.282   .     A
O72    Zn84    1.991   .     S
O73    C75     1.281   .     A
O73    Zn84    1.994   .     S
O74    C76     1.281   .     A
O74    Zn83    1.994   .     S
C75    C114    1.415   .     S
C76    C113    1.415   .     S
O77    C81     1.290   .     A
O77    Zn83    1.967   .     S
O78    C82     1.290   .     A
O78    Zn84    1.967   .     S
O79    Zn84    1.901   .     S
O79    C81     1.299   .     A
O80    C82     1.299   .     A
O80    Zn83    1.901   .     S
C81    C85     1.464   .     S
C82    C86     1.464   .     S
Zn83   N123    2.010   .     S
Zn84   N124    2.010   .     S
C85    C91     1.391   .     A
C85    C89     1.413   .     A
C86    C90     1.413   .     A
C86    C92     1.391   .     A
C87    C95     1.404   .     A
C87    C89     1.397   .     A
C87    H105    1.084   .     S
C88    C96     1.404   .     A
C88    H106    1.084   .     S
C88    C90     1.397   .     A
C89    N130    1.434   .     S
C90    N127    1.434   .     S
C91    C93     1.396   .     A
C91    H104    1.075   .     S
C92    C94     1.396   .     A
C92    H103    1.075   .     S
C93    C97     1.424   .     A
C93    C95     1.415   .     A
C94    C96     1.415   .     A
C94    C98     1.424   .     A
C95    C731    1.390   .     S
C96    C732    1.390   1_554 S
C97    C100    1.425   .     A
C97    C728    1.424   .     S
C98    C99     1.426   .     A
C98    C727    1.424   1_554 S
C99    F133    1.356   .     S
C99    C101    1.387   .     A
C100   C102    1.387   .     A
C100   F134    1.356   .     S
C101   F125    1.359   .     S
C101   C725    1.390   1_554 S
C102   F126    1.359   .     S
C102   C726    1.390   .     S
C107   C114    1.395   .     A
C107   H109    1.085   .     S
C107   C321    1.377   .     S
C108   C113    1.395   .     A
C108   H110    1.085   .     S
C108   C532    1.377   1_545 S
C111   C113    1.406   .     A
C111   N135    1.438   .     S
C111   C527    1.377   1_545 S
C112   N138    1.438   .     S
C112   C114    1.405   .     A
C112   C318    1.377   .     S
C115   N124    1.366   .     A
C115   H117    1.082   .     S
C115   C189    1.416   .     S
C116   N123    1.366   .     A
C116   H118    1.082   .     S
C119   N123    1.367   .     A
C119   H121    1.082   .     S
C120   H122    1.082   .     S
C120   N124    1.367   .     A
C120   C186    1.416   .     S
N127   O128    1.300   .     A
N127   O129    1.301   .     A
N130   O131    1.300   .     A
N130   O132    1.301   .     A
N135   O136    1.301   .     A
N135   O137    1.302   .     A
N138   O140    1.302   .     A
N138   O139    1.301   .     A
O141   C145    1.282   .     A
O141   Zn153   1.991   .     S
O142   C146    1.282   .     A
O142   Zn154   1.991   .     S
O143   C145    1.281   .     A
O143   Zn154   1.994   .     S
O144   C146    1.281   .     A
O144   Zn153   1.994   .     S
C145   C184    1.415   .     S
C146   C183    1.415   .     S
O147   C151    1.290   .     A
O147   Zn153   1.967   .     S
O148   C152    1.290   .     A
O148   Zn154   1.967   .     S
O149   Zn154   1.901   .     S
O149   C151    1.299   .     A
O150   C152    1.299   .     A
O150   Zn153   1.901   .     S
C151   C155    1.464   .     S
C152   C156    1.464   .     S
Zn153  N193    2.010   .     S
Zn154  N194    2.010   .     S
C155   C161    1.391   .     A
C155   C159    1.413   .     A
C156   C160    1.413   .     A
C156   C162    1.391   .     A
C157   C165    1.404   .     A
C157   C159    1.397   .     A
C157   H175    1.084   .     S
C158   C166    1.404   .     A
C158   H176    1.084   .     S
C158   C160    1.397   .     A
C159   N200    1.434   .     S
C160   N197    1.434   .     S
C161   C163    1.396   .     A
C161   H174    1.075   .     S
C162   C164    1.396   .     A
C162   H173    1.075   .     S
C163   C167    1.424   .     A
C163   C165    1.415   .     A
C164   C166    1.415   .     A
C164   C168    1.424   .     A
C165   C801    1.390   .     S
C166   C802    1.390   1_554 S
C167   C170    1.425   .     A
C167   C798    1.424   .     S
C168   C169    1.426   .     A
C168   C797    1.424   1_554 S
C169   F203    1.356   .     S
C169   C171    1.387   .     A
C170   C172    1.387   .     A
C170   F204    1.356   .     S
C171   F195    1.359   .     S
C171   C795    1.390   1_554 S
C172   F196    1.359   .     S
C172   C796    1.390   .     S
C177   C184    1.395   .     A
C177   H179    1.085   .     S
C177   C391    1.377   .     S
C178   C183    1.395   .     A
C178   H180    1.085   .     S
C178   C602    1.377   1_545 S
C181   C183    1.406   .     A
C181   N205    1.438   .     S
C181   C597    1.377   1_545 S
C182   N208    1.438   .     S
C182   C184    1.405   .     A
C182   C388    1.377   .     S
C185   N194    1.366   .     A
C185   H187    1.082   .     S
C185   C49     1.416   1_655 S
C186   N193    1.366   .     A
C186   H188    1.082   .     S
C189   N193    1.367   .     A
C189   H191    1.082   .     S
C190   H192    1.082   .     S
C190   N194    1.367   .     A
C190   C46     1.416   1_655 S
N197   O198    1.300   .     A
N197   O199    1.301   .     A
N200   O201    1.300   .     A
N200   O202    1.301   .     A
N205   O206    1.301   .     A
N205   O207    1.302   .     A
N208   O210    1.302   .     A
N208   O209    1.301   .     A
O211   C215    1.282   .     A
O211   Zn223   1.991   .     S
O212   C216    1.282   .     A
O212   Zn224   1.991   .     S
O213   C215    1.281   .     A
O213   Zn224   1.994   .     S
O214   C216    1.281   .     A
O214   Zn223   1.994   .     S
C215   C254    1.415   .     S
C216   C253    1.415   .     S
O217   C221    1.290   .     A
O217   Zn223   1.967   .     S
O218   C222    1.290   .     A
O218   Zn224   1.967   .     S
O219   Zn224   1.901   .     S
O219   C221    1.299   .     A
O220   C222    1.299   .     A
O220   Zn223   1.901   .     S
C221   C225    1.464   .     S
C222   C226    1.464   .     S
Zn223  N263    2.010   .     S
Zn224  N264    2.010   .     S
C225   C231    1.391   .     A
C225   C229    1.413   .     A
C226   C230    1.413   .     A
C226   C232    1.391   .     A
C227   C235    1.404   .     A
C227   C229    1.397   .     A
C227   H245    1.084   .     S
C228   C236    1.404   .     A
C228   H246    1.084   .     S
C228   C230    1.397   .     A
C229   N270    1.434   .     S
C230   N267    1.434   .     S
C231   C233    1.396   .     A
C231   H244    1.075   .     S
C232   C234    1.396   .     A
C232   H243    1.075   .     S
C233   C237    1.424   .     A
C233   C235    1.415   .     A
C234   C236    1.415   .     A
C234   C238    1.424   .     A
C235   C871    1.390   .     S
C236   C872    1.390   1_554 S
C237   C240    1.425   .     A
C237   C868    1.424   .     S
C238   C239    1.426   .     A
C238   C867    1.424   1_554 S
C239   F273    1.356   .     S
C239   C241    1.387   .     A
C240   C242    1.387   .     A
C240   F274    1.356   .     S
C241   F265    1.359   .     S
C241   C865    1.390   1_554 S
C242   F266    1.359   .     S
C242   C866    1.390   .     S
C247   C254    1.395   .     A
C247   H249    1.085   .     S
C247   C461    1.377   .     S
C248   C253    1.395   .     A
C248   H250    1.085   .     S
C251   C253    1.406   .     A
C251   N275    1.438   .     S
C252   N278    1.438   .     S
C252   C254    1.405   .     A
C252   C458    1.377   .     S
C255   N264    1.366   .     A
C255   H257    1.082   .     S
C255   C329    1.416   .     S
C256   N263    1.366   .     A
C256   H258    1.082   .     S
C256   C400    1.416   1_455 S
C259   N263    1.367   .     A
C259   H261    1.082   .     S
C259   C395    1.416   1_455 S
C260   H262    1.082   .     S
C260   N264    1.367   .     A
C260   C326    1.416   .     S
N267   O268    1.300   .     A
N267   O269    1.301   .     A
N270   O271    1.300   .     A
N270   O272    1.301   .     A
N275   O276    1.301   .     A
N275   O277    1.302   .     A
N278   O280    1.302   .     A
N278   O279    1.301   .     A
O281   C285    1.282   .     A
O281   Zn293   1.991   .     S
O282   C286    1.282   .     A
O282   Zn294   1.991   .     S
O283   C285    1.281   .     A
O283   Zn294   1.994   .     S
O284   C286    1.281   .     A
O284   Zn293   1.994   .     S
C285   C324    1.415   .     S
C286   C323    1.415   .     S
O287   C291    1.290   .     A
O287   Zn293   1.967   .     S
O288   C292    1.290   .     A
O288   Zn294   1.967   .     S
O289   Zn294   1.901   .     S
O289   C291    1.299   .     A
O290   C292    1.299   .     A
O290   Zn293   1.901   .     S
C291   C295    1.464   .     S
C292   C296    1.464   .     S
Zn293  N333    2.010   .     S
Zn294  N334    2.010   .     S
C295   C301    1.391   .     A
C295   C299    1.413   .     A
C296   C300    1.413   .     A
C296   C302    1.391   .     A
C297   C305    1.404   .     A
C297   C299    1.397   .     A
C297   H315    1.084   .     S
C298   C306    1.404   .     A
C298   H316    1.084   .     S
C298   C300    1.397   .     A
C299   N340    1.434   .     S
C300   N337    1.434   .     S
C301   C303    1.396   .     A
C301   H314    1.075   .     S
C302   C304    1.396   .     A
C302   H313    1.075   .     S
C303   C307    1.424   .     A
C303   C305    1.415   .     A
C304   C306    1.415   .     A
C304   C308    1.424   .     A
C305   C941    1.390   .     S
C306   C942    1.390   1_554 S
C307   C310    1.425   .     A
C307   C938    1.424   .     S
C308   C309    1.426   .     A
C308   C937    1.424   1_554 S
C309   F343    1.356   .     S
C309   C311    1.387   .     A
C310   C312    1.387   .     A
C310   F344    1.356   .     S
C311   F335    1.359   .     S
C311   C935    1.390   1_554 S
C312   F336    1.359   .     S
C312   C936    1.390   .     S
C317   C324    1.395   .     A
C317   H319    1.085   .     S
C317   C531    1.377   .     S
C318   C323    1.395   .     A
C318   H320    1.085   .     S
C321   C323    1.406   .     A
C321   N345    1.438   .     S
C322   N348    1.438   .     S
C322   C324    1.405   .     A
C322   C528    1.377   .     S
C325   N334    1.366   .     A
C325   H327    1.082   .     S
C325   C399    1.416   .     S
C326   N333    1.366   .     A
C326   H328    1.082   .     S
C329   N333    1.367   .     A
C329   H331    1.082   .     S
C330   H332    1.082   .     S
C330   N334    1.367   .     A
C330   C396    1.416   .     S
N337   O338    1.300   .     A
N337   O339    1.301   .     A
N340   O341    1.300   .     A
N340   O342    1.301   .     A
N345   O346    1.301   .     A
N345   O347    1.302   .     A
N348   O350    1.302   .     A
N348   O349    1.301   .     A
O351   C355    1.282   .     A
O351   Zn363   1.991   .     S
O352   C356    1.282   .     A
O352   Zn364   1.991   .     S
O353   C355    1.281   .     A
O353   Zn364   1.994   .     S
O354   C356    1.281   .     A
O354   Zn363   1.994   .     S
C355   C394    1.415   .     S
C356   C393    1.415   .     S
O357   C361    1.290   .     A
O357   Zn363   1.967   .     S
O358   C362    1.290   .     A
O358   Zn364   1.967   .     S
O359   Zn364   1.901   .     S
O359   C361    1.299   .     A
O360   C362    1.299   .     A
O360   Zn363   1.901   .     S
C361   C365    1.464   .     S
C362   C366    1.464   .     S
Zn363  N403    2.010   .     S
Zn364  N404    2.010   .     S
C365   C371    1.391   .     A
C365   C369    1.413   .     A
C366   C370    1.413   .     A
C366   C372    1.391   .     A
C367   C375    1.404   .     A
C367   C369    1.397   .     A
C367   H385    1.084   .     S
C368   C376    1.404   .     A
C368   H386    1.084   .     S
C368   C370    1.397   .     A
C369   N410    1.434   .     S
C370   N407    1.434   .     S
C371   C373    1.396   .     A
C371   H384    1.075   .     S
C372   C374    1.396   .     A
C372   H383    1.075   .     S
C373   C377    1.424   .     A
C373   C375    1.415   .     A
C374   C376    1.415   .     A
C374   C378    1.424   .     A
C375   C1011   1.390   .     S
C376   C1012   1.390   1_554 S
C377   C380    1.425   .     A
C377   C1008   1.424   .     S
C378   C379    1.426   .     A
C378   C1007   1.424   1_554 S
C379   F413    1.356   .     S
C379   C381    1.387   .     A
C380   C382    1.387   .     A
C380   F414    1.356   .     S
C381   F405    1.359   .     S
C381   C1005   1.390   1_554 S
C382   F406    1.359   .     S
C382   C1006   1.390   .     S
C387   C394    1.395   .     A
C387   H389    1.085   .     S
C387   C601    1.377   .     S
C388   C393    1.395   .     A
C388   H390    1.085   .     S
C391   C393    1.406   .     A
C391   N415    1.438   .     S
C392   N418    1.438   .     S
C392   C394    1.405   .     A
C392   C598    1.377   .     S
C395   N404    1.366   .     A
C395   H397    1.082   .     S
C395   C259    1.416   1_655 S
C396   N403    1.366   .     A
C396   H398    1.082   .     S
C399   N403    1.367   .     A
C399   H401    1.082   .     S
C400   H402    1.082   .     S
C400   N404    1.367   .     A
C400   C256    1.416   1_655 S
N407   O408    1.300   .     A
N407   O409    1.301   .     A
N410   O411    1.300   .     A
N410   O412    1.301   .     A
N415   O416    1.301   .     A
N415   O417    1.302   .     A
N418   O420    1.302   .     A
N418   O419    1.301   .     A
O421   C425    1.282   .     A
O421   Zn433   1.991   .     S
O422   C426    1.282   .     A
O422   Zn434   1.991   .     S
O423   C425    1.281   .     A
O423   Zn434   1.994   .     S
O424   C426    1.281   .     A
O424   Zn433   1.994   .     S
C425   C464    1.415   .     S
C426   C463    1.415   .     S
O427   C431    1.290   .     A
O427   Zn433   1.967   .     S
O428   C432    1.290   .     A
O428   Zn434   1.967   .     S
O429   Zn434   1.901   .     S
O429   C431    1.299   .     A
O430   C432    1.299   .     A
O430   Zn433   1.901   .     S
C431   C435    1.464   .     S
C432   C436    1.464   .     S
Zn433  N473    2.010   .     S
Zn434  N474    2.010   .     S
C435   C441    1.391   .     A
C435   C439    1.413   .     A
C436   C440    1.413   .     A
C436   C442    1.391   .     A
C437   C445    1.404   .     A
C437   C439    1.397   .     A
C437   H455    1.084   .     S
C438   C446    1.404   .     A
C438   H456    1.084   .     S
C438   C440    1.397   .     A
C439   N480    1.434   .     S
C440   N477    1.434   .     S
C441   C443    1.396   .     A
C441   H454    1.075   .     S
C442   C444    1.396   .     A
C442   H453    1.075   .     S
C443   C447    1.424   .     A
C443   C445    1.415   .     A
C444   C446    1.415   .     A
C444   C448    1.424   .     A
C445   C1081   1.390   .     S
C446   C1082   1.390   1_554 S
C447   C450    1.425   .     A
C447   C1078   1.424   .     S
C448   C449    1.426   .     A
C448   C1077   1.424   1_554 S
C449   F483    1.356   .     S
C449   C451    1.387   .     A
C450   C452    1.387   .     A
C450   F484    1.356   .     S
C451   F475    1.359   .     S
C451   C1075   1.390   1_554 S
C452   F476    1.359   .     S
C452   C1076   1.390   .     S
C457   C464    1.395   .     A
C457   H459    1.085   .     S
C457   C41     1.377   1_565 S
C458   C463    1.395   .     A
C458   H460    1.085   .     S
C461   C463    1.406   .     A
C461   N485    1.438   .     S
C462   N488    1.438   .     S
C462   C464    1.405   .     A
C462   C38     1.377   1_565 S
C465   N474    1.366   .     A
C465   H467    1.082   .     S
C465   C539    1.416   .     S
C466   N473    1.366   .     A
C466   H468    1.082   .     S
C466   C610    1.416   1_455 S
C469   N473    1.367   .     A
C469   H471    1.082   .     S
C469   C605    1.416   1_455 S
C470   H472    1.082   .     S
C470   N474    1.367   .     A
C470   C536    1.416   .     S
N477   O478    1.300   .     A
N477   O479    1.301   .     A
N480   O481    1.300   .     A
N480   O482    1.301   .     A
N485   O486    1.301   .     A
N485   O487    1.302   .     A
N488   O490    1.302   .     A
N488   O489    1.301   .     A
O491   C495    1.282   .     A
O491   Zn503   1.991   .     S
O492   C496    1.282   .     A
O492   Zn504   1.991   .     S
O493   C495    1.281   .     A
O493   Zn504   1.994   .     S
O494   C496    1.281   .     A
O494   Zn503   1.994   .     S
C495   C534    1.415   .     S
C496   C533    1.415   .     S
O497   C501    1.290   .     A
O497   Zn503   1.967   .     S
O498   C502    1.290   .     A
O498   Zn504   1.967   .     S
O499   Zn504   1.901   .     S
O499   C501    1.299   .     A
O500   C502    1.299   .     A
O500   Zn503   1.901   .     S
C501   C505    1.464   .     S
C502   C506    1.464   .     S
Zn503  N543    2.010   .     S
Zn504  N544    2.010   .     S
C505   C511    1.391   .     A
C505   C509    1.413   .     A
C506   C510    1.413   .     A
C506   C512    1.391   .     A
C507   C515    1.404   .     A
C507   C509    1.397   .     A
C507   H525    1.084   .     S
C508   C516    1.404   .     A
C508   H526    1.084   .     S
C508   C510    1.397   .     A
C509   N550    1.434   .     S
C510   N547    1.434   .     S
C511   C513    1.396   .     A
C511   H524    1.075   .     S
C512   C514    1.396   .     A
C512   H523    1.075   .     S
C513   C517    1.424   .     A
C513   C515    1.415   .     A
C514   C516    1.415   .     A
C514   C518    1.424   .     A
C515   C1151   1.390   .     S
C516   C1152   1.390   1_554 S
C517   C520    1.425   .     A
C517   C1148   1.424   .     S
C518   C519    1.426   .     A
C518   C1147   1.424   1_554 S
C519   F553    1.356   .     S
C519   C521    1.387   .     A
C520   C522    1.387   .     A
C520   F554    1.356   .     S
C521   F545    1.359   .     S
C521   C1145   1.390   1_554 S
C522   F546    1.359   .     S
C522   C1146   1.390   .     S
C527   C534    1.395   .     A
C527   H529    1.085   .     S
C527   C111    1.377   1_565 S
C528   C533    1.395   .     A
C528   H530    1.085   .     S
C531   C533    1.406   .     A
C531   N555    1.438   .     S
C532   N558    1.438   .     S
C532   C534    1.405   .     A
C532   C108    1.377   1_565 S
C535   N544    1.366   .     A
C535   H537    1.082   .     S
C535   C609    1.416   .     S
C536   N543    1.366   .     A
C536   H538    1.082   .     S
C539   N543    1.367   .     A
C539   H541    1.082   .     S
C540   H542    1.082   .     S
C540   N544    1.367   .     A
C540   C606    1.416   .     S
N547   O548    1.300   .     A
N547   O549    1.301   .     A
N550   O551    1.300   .     A
N550   O552    1.301   .     A
N555   O556    1.301   .     A
N555   O557    1.302   .     A
N558   O560    1.302   .     A
N558   O559    1.301   .     A
O561   C565    1.282   .     A
O561   Zn573   1.991   .     S
O562   C566    1.282   .     A
O562   Zn574   1.991   .     S
O563   C565    1.281   .     A
O563   Zn574   1.994   .     S
O564   C566    1.281   .     A
O564   Zn573   1.994   .     S
C565   C604    1.415   .     S
C566   C603    1.415   .     S
O567   C571    1.290   .     A
O567   Zn573   1.967   .     S
O568   C572    1.290   .     A
O568   Zn574   1.967   .     S
O569   Zn574   1.901   .     S
O569   C571    1.299   .     A
O570   C572    1.299   .     A
O570   Zn573   1.901   .     S
C571   C575    1.464   .     S
C572   C576    1.464   .     S
Zn573  N613    2.010   .     S
Zn574  N614    2.010   .     S
C575   C581    1.391   .     A
C575   C579    1.413   .     A
C576   C580    1.413   .     A
C576   C582    1.391   .     A
C577   C585    1.404   .     A
C577   C579    1.397   .     A
C577   H595    1.084   .     S
C578   C586    1.404   .     A
C578   H596    1.084   .     S
C578   C580    1.397   .     A
C579   N620    1.434   .     S
C580   N617    1.434   .     S
C581   C583    1.396   .     A
C581   H594    1.075   .     S
C582   C584    1.396   .     A
C582   H593    1.075   .     S
C583   C587    1.424   .     A
C583   C585    1.415   .     A
C584   C586    1.415   .     A
C584   C588    1.424   .     A
C585   C1221   1.390   .     S
C586   C1222   1.390   1_554 S
C587   C590    1.425   .     A
C587   C1218   1.424   .     S
C588   C589    1.426   .     A
C588   C1217   1.424   1_554 S
C589   F623    1.356   .     S
C589   C591    1.387   .     A
C590   C592    1.387   .     A
C590   F624    1.356   .     S
C591   F615    1.359   .     S
C591   C1215   1.390   1_554 S
C592   F616    1.359   .     S
C592   C1216   1.390   .     S
C597   C604    1.395   .     A
C597   H599    1.085   .     S
C597   C181    1.377   1_565 S
C598   C603    1.395   .     A
C598   H600    1.085   .     S
C601   C603    1.406   .     A
C601   N625    1.438   .     S
C602   N628    1.438   .     S
C602   C604    1.405   .     A
C602   C178    1.377   1_565 S
C605   N614    1.366   .     A
C605   H607    1.082   .     S
C605   C469    1.416   1_655 S
C606   N613    1.366   .     A
C606   H608    1.082   .     S
C609   N613    1.367   .     A
C609   H611    1.082   .     S
C610   H612    1.082   .     S
C610   N614    1.367   .     A
C610   C466    1.416   1_655 S
N617   O618    1.300   .     A
N617   O619    1.301   .     A
N620   O621    1.300   .     A
N620   O622    1.301   .     A
N625   O626    1.301   .     A
N625   O627    1.302   .     A
N628   O630    1.302   .     A
N628   O629    1.301   .     A
O631   C635    1.282   .     A
O631   Zn643   1.991   .     S
O632   C636    1.282   .     A
O632   Zn644   1.991   .     S
O633   C635    1.281   .     A
O633   Zn644   1.994   .     S
O634   C636    1.281   .     A
O634   Zn643   1.994   .     S
C635   C674    1.415   .     S
C636   C673    1.415   .     S
O637   C641    1.290   .     A
O637   Zn643   1.967   .     S
O638   C642    1.290   .     A
O638   Zn644   1.967   .     S
O639   Zn644   1.901   .     S
O639   C641    1.299   .     A
O640   C642    1.299   .     A
O640   Zn643   1.901   .     S
C641   C645    1.464   .     S
C642   C646    1.464   .     S
Zn643  N683    2.010   .     S
Zn644  N684    2.010   .     S
C645   C651    1.391   .     A
C645   C649    1.413   .     A
C646   C650    1.413   .     A
C646   C652    1.391   .     A
C647   C655    1.404   .     A
C647   C649    1.397   .     A
C647   H665    1.084   .     S
C648   C656    1.404   .     A
C648   H666    1.084   .     S
C648   C650    1.397   .     A
C649   N690    1.434   .     S
C650   N687    1.434   .     S
C651   C653    1.396   .     A
C651   H664    1.075   .     S
C652   C654    1.396   .     A
C652   H663    1.075   .     S
C653   C657    1.424   .     A
C653   C655    1.415   .     A
C654   C656    1.415   .     A
C654   C658    1.424   .     A
C655   C31     1.390   1_556 S
C657   C660    1.425   .     A
C657   C28     1.424   1_556 S
C658   C659    1.426   .     A
C659   F693    1.356   .     S
C659   C661    1.387   .     A
C660   C662    1.387   .     A
C660   F694    1.356   .     S
C661   F685    1.359   .     S
C662   F686    1.359   .     S
C662   C26     1.390   1_556 S
C667   C674    1.395   .     A
C667   H669    1.085   .     S
C667   C881    1.377   .     S
C668   C673    1.395   .     A
C668   H670    1.085   .     S
C668   C1092   1.377   1_545 S
C671   C673    1.406   .     A
C671   N695    1.438   .     S
C671   C1087   1.377   1_545 S
C672   N698    1.438   .     S
C672   C674    1.405   .     A
C672   C878    1.377   .     S
C675   N684    1.366   .     A
C675   H677    1.082   .     S
C675   C749    1.416   .     S
C676   N683    1.366   .     A
C676   H678    1.082   .     S
C676   C820    1.416   1_455 S
C679   N683    1.367   .     A
C679   H681    1.082   .     S
C679   C815    1.416   1_455 S
C680   H682    1.082   .     S
C680   N684    1.367   .     A
C680   C746    1.416   .     S
N687   O688    1.300   .     A
N687   O689    1.301   .     A
N690   O691    1.300   .     A
N690   O692    1.301   .     A
N695   O696    1.301   .     A
N695   O697    1.302   .     A
N698   O700    1.302   .     A
N698   O699    1.301   .     A
O701   C705    1.282   .     A
O701   Zn713   1.991   .     S
O702   C706    1.282   .     A
O702   Zn714   1.991   .     S
O703   C705    1.281   .     A
O703   Zn714   1.994   .     S
O704   C706    1.281   .     A
O704   Zn713   1.994   .     S
C705   C744    1.415   .     S
C706   C743    1.415   .     S
O707   C711    1.290   .     A
O707   Zn713   1.967   .     S
O708   C712    1.290   .     A
O708   Zn714   1.967   .     S
O709   Zn714   1.901   .     S
O709   C711    1.299   .     A
O710   C712    1.299   .     A
O710   Zn713   1.901   .     S
C711   C715    1.464   .     S
C712   C716    1.464   .     S
Zn713  N753    2.010   .     S
Zn714  N754    2.010   .     S
C715   C721    1.391   .     A
C715   C719    1.413   .     A
C716   C720    1.413   .     A
C716   C722    1.391   .     A
C717   C725    1.404   .     A
C717   C719    1.397   .     A
C717   H735    1.084   .     S
C718   C726    1.404   .     A
C718   H736    1.084   .     S
C718   C720    1.397   .     A
C719   N760    1.434   .     S
C720   N757    1.434   .     S
C721   C723    1.396   .     A
C721   H734    1.075   .     S
C722   C724    1.396   .     A
C722   H733    1.075   .     S
C723   C727    1.424   .     A
C723   C725    1.415   .     A
C724   C726    1.415   .     A
C724   C728    1.424   .     A
C725   C101    1.390   1_556 S
C727   C730    1.425   .     A
C727   C98     1.424   1_556 S
C728   C729    1.426   .     A
C729   F763    1.356   .     S
C729   C731    1.387   .     A
C730   C732    1.387   .     A
C730   F764    1.356   .     S
C731   F755    1.359   .     S
C732   F756    1.359   .     S
C732   C96     1.390   1_556 S
C737   C744    1.395   .     A
C737   H739    1.085   .     S
C737   C951    1.377   .     S
C738   C743    1.395   .     A
C738   H740    1.085   .     S
C738   C1162   1.377   1_545 S
C741   C743    1.406   .     A
C741   N765    1.438   .     S
C741   C1157   1.377   1_545 S
C742   N768    1.438   .     S
C742   C744    1.405   .     A
C742   C948    1.377   .     S
C745   N754    1.366   .     A
C745   H747    1.082   .     S
C745   C819    1.416   .     S
C746   N753    1.366   .     A
C746   H748    1.082   .     S
C749   N753    1.367   .     A
C749   H751    1.082   .     S
C750   H752    1.082   .     S
C750   N754    1.367   .     A
C750   C816    1.416   .     S
N757   O758    1.300   .     A
N757   O759    1.301   .     A
N760   O761    1.300   .     A
N760   O762    1.301   .     A
N765   O766    1.301   .     A
N765   O767    1.302   .     A
N768   O770    1.302   .     A
N768   O769    1.301   .     A
O771   C775    1.282   .     A
O771   Zn783   1.991   .     S
O772   C776    1.282   .     A
O772   Zn784   1.991   .     S
O773   C775    1.281   .     A
O773   Zn784   1.994   .     S
O774   C776    1.281   .     A
O774   Zn783   1.994   .     S
C775   C814    1.415   .     S
C776   C813    1.415   .     S
O777   C781    1.290   .     A
O777   Zn783   1.967   .     S
O778   C782    1.290   .     A
O778   Zn784   1.967   .     S
O779   Zn784   1.901   .     S
O779   C781    1.299   .     A
O780   C782    1.299   .     A
O780   Zn783   1.901   .     S
C781   C785    1.464   .     S
C782   C786    1.464   .     S
Zn783  N823    2.010   .     S
Zn784  N824    2.010   .     S
C785   C791    1.391   .     A
C785   C789    1.413   .     A
C786   C790    1.413   .     A
C786   C792    1.391   .     A
C787   C795    1.404   .     A
C787   C789    1.397   .     A
C787   H805    1.084   .     S
C788   C796    1.404   .     A
C788   H806    1.084   .     S
C788   C790    1.397   .     A
C789   N830    1.434   .     S
C790   N827    1.434   .     S
C791   C793    1.396   .     A
C791   H804    1.075   .     S
C792   C794    1.396   .     A
C792   H803    1.075   .     S
C793   C797    1.424   .     A
C793   C795    1.415   .     A
C794   C796    1.415   .     A
C794   C798    1.424   .     A
C795   C171    1.390   1_556 S
C797   C800    1.425   .     A
C797   C168    1.424   1_556 S
C798   C799    1.426   .     A
C799   F833    1.356   .     S
C799   C801    1.387   .     A
C800   C802    1.387   .     A
C800   F834    1.356   .     S
C801   F825    1.359   .     S
C802   F826    1.359   .     S
C802   C166    1.390   1_556 S
C807   C814    1.395   .     A
C807   H809    1.085   .     S
C807   C1021   1.377   .     S
C808   C813    1.395   .     A
C808   H810    1.085   .     S
C808   C1232   1.377   1_545 S
C811   C813    1.406   .     A
C811   N835    1.438   .     S
C811   C1227   1.377   1_545 S
C812   N838    1.438   .     S
C812   C814    1.405   .     A
C812   C1018   1.377   .     S
C815   N824    1.366   .     A
C815   H817    1.082   .     S
C815   C679    1.416   1_655 S
C816   N823    1.366   .     A
C816   H818    1.082   .     S
C819   N823    1.367   .     A
C819   H821    1.082   .     S
C820   H822    1.082   .     S
C820   N824    1.367   .     A
C820   C676    1.416   1_655 S
N827   O828    1.300   .     A
N827   O829    1.301   .     A
N830   O831    1.300   .     A
N830   O832    1.301   .     A
N835   O836    1.301   .     A
N835   O837    1.302   .     A
N838   O840    1.302   .     A
N838   O839    1.301   .     A
O841   C845    1.282   .     A
O841   Zn853   1.991   .     S
O842   C846    1.282   .     A
O842   Zn854   1.991   .     S
O843   C845    1.281   .     A
O843   Zn854   1.994   .     S
O844   C846    1.281   .     A
O844   Zn853   1.994   .     S
C845   C884    1.415   .     S
C846   C883    1.415   .     S
O847   C851    1.290   .     A
O847   Zn853   1.967   .     S
O848   C852    1.290   .     A
O848   Zn854   1.967   .     S
O849   Zn854   1.901   .     S
O849   C851    1.299   .     A
O850   C852    1.299   .     A
O850   Zn853   1.901   .     S
C851   C855    1.464   .     S
C852   C856    1.464   .     S
Zn853  N893    2.010   .     S
Zn854  N894    2.010   .     S
C855   C861    1.391   .     A
C855   C859    1.413   .     A
C856   C860    1.413   .     A
C856   C862    1.391   .     A
C857   C865    1.404   .     A
C857   C859    1.397   .     A
C857   H875    1.084   .     S
C858   C866    1.404   .     A
C858   H876    1.084   .     S
C858   C860    1.397   .     A
C859   N900    1.434   .     S
C860   N897    1.434   .     S
C861   C863    1.396   .     A
C861   H874    1.075   .     S
C862   C864    1.396   .     A
C862   H873    1.075   .     S
C863   C867    1.424   .     A
C863   C865    1.415   .     A
C864   C866    1.415   .     A
C864   C868    1.424   .     A
C865   C241    1.390   1_556 S
C867   C870    1.425   .     A
C867   C238    1.424   1_556 S
C868   C869    1.426   .     A
C869   F903    1.356   .     S
C869   C871    1.387   .     A
C870   C872    1.387   .     A
C870   F904    1.356   .     S
C871   F895    1.359   .     S
C872   F896    1.359   .     S
C872   C236    1.390   1_556 S
C877   C884    1.395   .     A
C877   H879    1.085   .     S
C877   C1091   1.377   .     S
C878   C883    1.395   .     A
C878   H880    1.085   .     S
C881   C883    1.406   .     A
C881   N905    1.438   .     S
C882   N908    1.438   .     S
C882   C884    1.405   .     A
C882   C1088   1.377   .     S
C885   N894    1.366   .     A
C885   H887    1.082   .     S
C885   C959    1.416   .     S
C886   N893    1.366   .     A
C886   H888    1.082   .     S
C886   C1030   1.416   1_455 S
C889   N893    1.367   .     A
C889   H891    1.082   .     S
C889   C1025   1.416   1_455 S
C890   H892    1.082   .     S
C890   N894    1.367   .     A
C890   C956    1.416   .     S
N897   O898    1.300   .     A
N897   O899    1.301   .     A
N900   O901    1.300   .     A
N900   O902    1.301   .     A
N905   O906    1.301   .     A
N905   O907    1.302   .     A
N908   O910    1.302   .     A
N908   O909    1.301   .     A
O911   C915    1.282   .     A
O911   Zn923   1.991   .     S
O912   C916    1.282   .     A
O912   Zn924   1.991   .     S
O913   C915    1.281   .     A
O913   Zn924   1.994   .     S
O914   C916    1.281   .     A
O914   Zn923   1.994   .     S
C915   C954    1.415   .     S
C916   C953    1.415   .     S
O917   C921    1.290   .     A
O917   Zn923   1.967   .     S
O918   C922    1.290   .     A
O918   Zn924   1.967   .     S
O919   Zn924   1.901   .     S
O919   C921    1.299   .     A
O920   C922    1.299   .     A
O920   Zn923   1.901   .     S
C921   C925    1.464   .     S
C922   C926    1.464   .     S
Zn923  N963    2.010   .     S
Zn924  N964    2.010   .     S
C925   C931    1.391   .     A
C925   C929    1.413   .     A
C926   C930    1.413   .     A
C926   C932    1.391   .     A
C927   C935    1.404   .     A
C927   C929    1.397   .     A
C927   H945    1.084   .     S
C928   C936    1.404   .     A
C928   H946    1.084   .     S
C928   C930    1.397   .     A
C929   N970    1.434   .     S
C930   N967    1.434   .     S
C931   C933    1.396   .     A
C931   H944    1.075   .     S
C932   C934    1.396   .     A
C932   H943    1.075   .     S
C933   C937    1.424   .     A
C933   C935    1.415   .     A
C934   C936    1.415   .     A
C934   C938    1.424   .     A
C935   C311    1.390   1_556 S
C937   C940    1.425   .     A
C937   C308    1.424   1_556 S
C938   C939    1.426   .     A
C939   F973    1.356   .     S
C939   C941    1.387   .     A
C940   C942    1.387   .     A
C940   F974    1.356   .     S
C941   F965    1.359   .     S
C942   F966    1.359   .     S
C942   C306    1.390   1_556 S
C947   C954    1.395   .     A
C947   H949    1.085   .     S
C947   C1161   1.377   .     S
C948   C953    1.395   .     A
C948   H950    1.085   .     S
C951   C953    1.406   .     A
C951   N975    1.438   .     S
C952   N978    1.438   .     S
C952   C954    1.405   .     A
C952   C1158   1.377   .     S
C955   N964    1.366   .     A
C955   H957    1.082   .     S
C955   C1029   1.416   .     S
C956   N963    1.366   .     A
C956   H958    1.082   .     S
C959   N963    1.367   .     A
C959   H961    1.082   .     S
C960   H962    1.082   .     S
C960   N964    1.367   .     A
C960   C1026   1.416   .     S
N967   O968    1.300   .     A
N967   O969    1.301   .     A
N970   O971    1.300   .     A
N970   O972    1.301   .     A
N975   O976    1.301   .     A
N975   O977    1.302   .     A
N978   O980    1.302   .     A
N978   O979    1.301   .     A
O981   C985    1.282   .     A
O981   Zn993   1.991   .     S
O982   C986    1.282   .     A
O982   Zn994   1.991   .     S
O983   C985    1.281   .     A
O983   Zn994   1.994   .     S
O984   C986    1.281   .     A
O984   Zn993   1.994   .     S
C985   C1024   1.415   .     S
C986   C1023   1.415   .     S
O987   C991    1.290   .     A
O987   Zn993   1.967   .     S
O988   C992    1.290   .     A
O988   Zn994   1.967   .     S
O989   Zn994   1.901   .     S
O989   C991    1.299   .     A
O990   C992    1.299   .     A
O990   Zn993   1.901   .     S
C991   C995    1.464   .     S
C992   C996    1.464   .     S
Zn993  N1033   2.010   .     S
Zn994  N1034   2.010   .     S
C995   C1001   1.391   .     A
C995   C999    1.413   .     A
C996   C1000   1.413   .     A
C996   C1002   1.391   .     A
C997   C1005   1.404   .     A
C997   C999    1.397   .     A
C997   H1015   1.084   .     S
C998   C1006   1.404   .     A
C998   H1016   1.084   .     S
C998   C1000   1.397   .     A
C999   N1040   1.434   .     S
C1000  N1037   1.434   .     S
C1001  C1003   1.396   .     A
C1001  H1014   1.075   .     S
C1002  C1004   1.396   .     A
C1002  H1013   1.075   .     S
C1003  C1007   1.424   .     A
C1003  C1005   1.415   .     A
C1004  C1006   1.415   .     A
C1004  C1008   1.424   .     A
C1005  C381    1.390   1_556 S
C1007  C1010   1.425   .     A
C1007  C378    1.424   1_556 S
C1008  C1009   1.426   .     A
C1009  F1043   1.356   .     S
C1009  C1011   1.387   .     A
C1010  C1012   1.387   .     A
C1010  F1044   1.356   .     S
C1011  F1035   1.359   .     S
C1012  F1036   1.359   .     S
C1012  C376    1.390   1_556 S
C1017  C1024   1.395   .     A
C1017  H1019   1.085   .     S
C1017  C1231   1.377   .     S
C1018  C1023   1.395   .     A
C1018  H1020   1.085   .     S
C1021  C1023   1.406   .     A
C1021  N1045   1.438   .     S
C1022  N1048   1.438   .     S
C1022  C1024   1.405   .     A
C1022  C1228   1.377   .     S
C1025  N1034   1.366   .     A
C1025  H1027   1.082   .     S
C1025  C889    1.416   1_655 S
C1026  N1033   1.366   .     A
C1026  H1028   1.082   .     S
C1029  N1033   1.367   .     A
C1029  H1031   1.082   .     S
C1030  H1032   1.082   .     S
C1030  N1034   1.367   .     A
C1030  C886    1.416   1_655 S
N1037  O1038   1.300   .     A
N1037  O1039   1.301   .     A
N1040  O1041   1.300   .     A
N1040  O1042   1.301   .     A
N1045  O1046   1.301   .     A
N1045  O1047   1.302   .     A
N1048  O1050   1.302   .     A
N1048  O1049   1.301   .     A
O1051  C1055   1.282   .     A
O1051  Zn1063  1.991   .     S
O1052  C1056   1.282   .     A
O1052  Zn1064  1.991   .     S
O1053  C1055   1.281   .     A
O1053  Zn1064  1.994   .     S
O1054  C1056   1.281   .     A
O1054  Zn1063  1.994   .     S
C1055  C1094   1.415   .     S
C1056  C1093   1.415   .     S
O1057  C1061   1.290   .     A
O1057  Zn1063  1.967   .     S
O1058  C1062   1.290   .     A
O1058  Zn1064  1.967   .     S
O1059  Zn1064  1.901   .     S
O1059  C1061   1.299   .     A
O1060  C1062   1.299   .     A
O1060  Zn1063  1.901   .     S
C1061  C1065   1.464   .     S
C1062  C1066   1.464   .     S
Zn1063 N1103   2.010   .     S
Zn1064 N1104   2.010   .     S
C1065  C1071   1.391   .     A
C1065  C1069   1.413   .     A
C1066  C1070   1.413   .     A
C1066  C1072   1.391   .     A
C1067  C1075   1.404   .     A
C1067  C1069   1.397   .     A
C1067  H1085   1.084   .     S
C1068  C1076   1.404   .     A
C1068  H1086   1.084   .     S
C1068  C1070   1.397   .     A
C1069  N1110   1.434   .     S
C1070  N1107   1.434   .     S
C1071  C1073   1.396   .     A
C1071  H1084   1.075   .     S
C1072  C1074   1.396   .     A
C1072  H1083   1.075   .     S
C1073  C1077   1.424   .     A
C1073  C1075   1.415   .     A
C1074  C1076   1.415   .     A
C1074  C1078   1.424   .     A
C1075  C451    1.390   1_556 S
C1077  C1080   1.425   .     A
C1077  C448    1.424   1_556 S
C1078  C1079   1.426   .     A
C1079  F1113   1.356   .     S
C1079  C1081   1.387   .     A
C1080  C1082   1.387   .     A
C1080  F1114   1.356   .     S
C1081  F1105   1.359   .     S
C1082  F1106   1.359   .     S
C1082  C446    1.390   1_556 S
C1087  C1094   1.395   .     A
C1087  H1089   1.085   .     S
C1087  C671    1.377   1_565 S
C1088  C1093   1.395   .     A
C1088  H1090   1.085   .     S
C1091  C1093   1.406   .     A
C1091  N1115   1.438   .     S
C1092  N1118   1.438   .     S
C1092  C1094   1.405   .     A
C1092  C668    1.377   1_565 S
C1095  N1104   1.366   .     A
C1095  H1097   1.082   .     S
C1095  C1169   1.416   .     S
C1096  N1103   1.366   .     A
C1096  H1098   1.082   .     S
C1096  C1240   1.416   1_455 S
C1099  N1103   1.367   .     A
C1099  H1101   1.082   .     S
C1099  C1235   1.416   1_455 S
C1100  H1102   1.082   .     S
C1100  N1104   1.367   .     A
C1100  C1166   1.416   .     S
N1107  O1108   1.300   .     A
N1107  O1109   1.301   .     A
N1110  O1111   1.300   .     A
N1110  O1112   1.301   .     A
N1115  O1116   1.301   .     A
N1115  O1117   1.302   .     A
N1118  O1120   1.302   .     A
N1118  O1119   1.301   .     A
O1121  C1125   1.282   .     A
O1121  Zn1133  1.991   .     S
O1122  C1126   1.282   .     A
O1122  Zn1134  1.991   .     S
O1123  C1125   1.281   .     A
O1123  Zn1134  1.994   .     S
O1124  C1126   1.281   .     A
O1124  Zn1133  1.994   .     S
C1125  C1164   1.415   .     S
C1126  C1163   1.415   .     S
O1127  C1131   1.290   .     A
O1127  Zn1133  1.967   .     S
O1128  C1132   1.290   .     A
O1128  Zn1134  1.967   .     S
O1129  Zn1134  1.901   .     S
O1129  C1131   1.299   .     A
O1130  C1132   1.299   .     A
O1130  Zn1133  1.901   .     S
C1131  C1135   1.464   .     S
C1132  C1136   1.464   .     S
Zn1133 N1173   2.010   .     S
Zn1134 N1174   2.010   .     S
C1135  C1141   1.391   .     A
C1135  C1139   1.413   .     A
C1136  C1140   1.413   .     A
C1136  C1142   1.391   .     A
C1137  C1145   1.404   .     A
C1137  C1139   1.397   .     A
C1137  H1155   1.084   .     S
C1138  C1146   1.404   .     A
C1138  H1156   1.084   .     S
C1138  C1140   1.397   .     A
C1139  N1180   1.434   .     S
C1140  N1177   1.434   .     S
C1141  C1143   1.396   .     A
C1141  H1154   1.075   .     S
C1142  C1144   1.396   .     A
C1142  H1153   1.075   .     S
C1143  C1147   1.424   .     A
C1143  C1145   1.415   .     A
C1144  C1146   1.415   .     A
C1144  C1148   1.424   .     A
C1145  C521    1.390   1_556 S
C1147  C1150   1.425   .     A
C1147  C518    1.424   1_556 S
C1148  C1149   1.426   .     A
C1149  F1183   1.356   .     S
C1149  C1151   1.387   .     A
C1150  C1152   1.387   .     A
C1150  F1184   1.356   .     S
C1151  F1175   1.359   .     S
C1152  F1176   1.359   .     S
C1152  C516    1.390   1_556 S
C1157  C1164   1.395   .     A
C1157  H1159   1.085   .     S
C1157  C741    1.377   1_565 S
C1158  C1163   1.395   .     A
C1158  H1160   1.085   .     S
C1161  C1163   1.406   .     A
C1161  N1185   1.438   .     S
C1162  N1188   1.438   .     S
C1162  C1164   1.405   .     A
C1162  C738    1.377   1_565 S
C1165  N1174   1.366   .     A
C1165  H1167   1.082   .     S
C1165  C1239   1.416   .     S
C1166  N1173   1.366   .     A
C1166  H1168   1.082   .     S
C1169  N1173   1.367   .     A
C1169  H1171   1.082   .     S
C1170  H1172   1.082   .     S
C1170  N1174   1.367   .     A
C1170  C1236   1.416   .     S
N1177  O1178   1.300   .     A
N1177  O1179   1.301   .     A
N1180  O1181   1.300   .     A
N1180  O1182   1.301   .     A
N1185  O1186   1.301   .     A
N1185  O1187   1.302   .     A
N1188  O1190   1.302   .     A
N1188  O1189   1.301   .     A
O1191  C1195   1.282   .     A
O1191  Zn1203  1.991   .     S
O1192  C1196   1.282   .     A
O1192  Zn1204  1.991   .     S
O1193  C1195   1.281   .     A
O1193  Zn1204  1.994   .     S
O1194  C1196   1.281   .     A
O1194  Zn1203  1.994   .     S
C1195  C1234   1.415   .     S
C1196  C1233   1.415   .     S
O1197  C1201   1.290   .     A
O1197  Zn1203  1.967   .     S
O1198  C1202   1.290   .     A
O1198  Zn1204  1.967   .     S
O1199  Zn1204  1.901   .     S
O1199  C1201   1.299   .     A
O1200  C1202   1.299   .     A
O1200  Zn1203  1.901   .     S
C1201  C1205   1.464   .     S
C1202  C1206   1.464   .     S
Zn1203 N1243   2.010   .     S
Zn1204 N1244   2.010   .     S
C1205  C1211   1.391   .     A
C1205  C1209   1.413   .     A
C1206  C1210   1.413   .     A
C1206  C1212   1.391   .     A
C1207  C1215   1.404   .     A
C1207  C1209   1.397   .     A
C1207  H1225   1.084   .     S
C1208  C1216   1.404   .     A
C1208  H1226   1.084   .     S
C1208  C1210   1.397   .     A
C1209  N1250   1.434   .     S
C1210  N1247   1.434   .     S
C1211  C1213   1.396   .     A
C1211  H1224   1.075   .     S
C1212  C1214   1.396   .     A
C1212  H1223   1.075   .     S
C1213  C1217   1.424   .     A
C1213  C1215   1.415   .     A
C1214  C1216   1.415   .     A
C1214  C1218   1.424   .     A
C1215  C591    1.390   1_556 S
C1217  C1220   1.425   .     A
C1217  C588    1.424   1_556 S
C1218  C1219   1.426   .     A
C1219  F1253   1.356   .     S
C1219  C1221   1.387   .     A
C1220  C1222   1.387   .     A
C1220  F1254   1.356   .     S
C1221  F1245   1.359   .     S
C1222  F1246   1.359   .     S
C1222  C586    1.390   1_556 S
C1227  C1234   1.395   .     A
C1227  H1229   1.085   .     S
C1227  C811    1.377   1_565 S
C1228  C1233   1.395   .     A
C1228  H1230   1.085   .     S
C1231  C1233   1.406   .     A
C1231  N1255   1.438   .     S
C1232  N1258   1.438   .     S
C1232  C1234   1.405   .     A
C1232  C808    1.377   1_565 S
C1235  N1244   1.366   .     A
C1235  H1237   1.082   .     S
C1235  C1099   1.416   1_655 S
C1236  N1243   1.366   .     A
C1236  H1238   1.082   .     S
C1239  N1243   1.367   .     A
C1239  H1241   1.082   .     S
C1240  H1242   1.082   .     S
C1240  N1244   1.367   .     A
C1240  C1096   1.416   1_655 S
N1247  O1248   1.300   .     A
N1247  O1249   1.301   .     A
N1250  O1251   1.300   .     A
N1250  O1252   1.301   .     A
N1255  O1256   1.301   .     A
N1255  O1257   1.302   .     A
N1258  O1260   1.302   .     A
N1258  O1259   1.301   .     A
