data_str_m1_o1_o17_pcu_sym.19
_audit_creation_date              2020-01-03
_audit_creation_method            'Materials Studio'
_symmetry_space_group_name_H-M    'P1'
_symmetry_Int_Tables_number       1
_symmetry_cell_setting            triclinic
loop_
_symmetry_equiv_pos_as_xyz
  x,y,z
_cell_length_a                    36.8202
_cell_length_b                    36.7390
_cell_length_c                    34.3782
_cell_angle_alpha                 89.8209
_cell_angle_beta                  90.0217
_cell_angle_gamma                 89.8714
loop_
_atom_site_label
_atom_site_type_symbol
_atom_site_fract_x
_atom_site_fract_y
_atom_site_fract_z
_atom_site_U_iso_or_equiv
_atom_site_adp_type
_atom_site_occupancy
Zn1    Zn    0.20659   0.00000   0.21735   0.00000  Uiso   1.00
Zn2    Zn    0.29340   0.00000   0.78265   0.00000  Uiso   1.00
Zn3    Zn    0.00000   0.20659   0.21735   0.00000  Uiso   1.00
Zn4    Zn    0.00000   0.29340   0.78265   0.00000  Uiso   1.00
Zn5    Zn    0.29340   0.00000   0.21735   0.00000  Uiso   1.00
Zn6    Zn    0.20659   0.00000   0.78265   0.00000  Uiso   1.00
Zn7    Zn    0.00000   0.29340   0.21735   0.00000  Uiso   1.00
Zn8    Zn    0.00000   0.20659   0.78265   0.00000  Uiso   1.00
Zn9    Zn    0.45659   0.25000   0.71735   0.00000  Uiso   1.00
Zn10   Zn    0.04340   0.25000   0.28265   0.00000  Uiso   1.00
Zn11   Zn    0.25000   0.45660   0.71735   0.00000  Uiso   1.00
Zn12   Zn    0.25000   0.04341   0.28265   0.00000  Uiso   1.00
Zn13   Zn    0.04340   0.25000   0.71735   0.00000  Uiso   1.00
Zn14   Zn    0.45659   0.25000   0.28265   0.00000  Uiso   1.00
Zn15   Zn    0.25000   0.04341   0.71735   0.00000  Uiso   1.00
Zn16   Zn    0.25000   0.45660   0.28265   0.00000  Uiso   1.00
C17    C     0.48992   0.28157   0.41839   0.00000  Uiso   1.00
C18    C     0.49392   0.21735   0.58169   0.00000  Uiso   1.00
C19    C     0.22687   0.47578   0.41950   0.00000  Uiso   1.00
C20    C     0.28183   0.00925   0.58223   0.00000  Uiso   1.00
C21    C     0.01052   0.21829   0.41844   0.00000  Uiso   1.00
C22    C     0.00754   0.28240   0.58158   0.00000  Uiso   1.00
C23    C     0.27246   0.02408   0.41947   0.00000  Uiso   1.00
C24    C     0.21845   0.48926   0.58248   0.00000  Uiso   1.00
C25    C     0.23738   0.03096   0.91819   0.00000  Uiso   1.00
C26    C     0.24654   0.46755   0.08193   0.00000  Uiso   1.00
C27    C     0.47116   0.23462   0.91896   0.00000  Uiso   1.00
C28    C     0.03382   0.25289   0.08230   0.00000  Uiso   1.00
C29    C     0.26307   0.46956   0.91877   0.00000  Uiso   1.00
C30    C     0.25126   0.03400   0.08187   0.00000  Uiso   1.00
C31    C     0.03008   0.26515   0.91839   0.00000  Uiso   1.00
C32    C     0.46738   0.25200   0.08183   0.00000  Uiso   1.00
C33    C     0.00009   0.24993   0.39816   0.00000  Uiso   1.00
C34    C     0.00028   0.24996   0.60185   0.00000  Uiso   1.00
C35    C     0.24973   0.49993   0.39877   0.00000  Uiso   1.00
C36    C     0.25005   0.49975   0.60229   0.00000  Uiso   1.00
C37    C     0.25008   0.00011   0.89819   0.00000  Uiso   1.00
C38    C     0.24967   0.00058   0.10199   0.00000  Uiso   1.00
C39    C     0.00048   0.24985   0.89832   0.00000  Uiso   1.00
C40    C     0.00041   0.25085   0.10207   0.00000  Uiso   1.00
O41    O     0.25000   0.00000   0.25000   0.00000  Uiso   1.00
O42    O     0.25000   0.00000   0.75000   0.00000  Uiso   1.00
O43    O     0.00000   0.25000   0.25000   0.00000  Uiso   1.00
O44    O     0.00000   0.25000   0.75000   0.00000  Uiso   1.00
O45    O     0.25000   0.46964   0.33755   0.00000  Uiso   1.00
O46    O     0.25000   0.03037   0.66245   0.00000  Uiso   1.00
O47    O     0.03036   0.25000   0.33755   0.00000  Uiso   1.00
O48    O     0.46963   0.25000   0.66245   0.00000  Uiso   1.00
O49    O     0.25000   0.03037   0.33755   0.00000  Uiso   1.00
O50    O     0.25000   0.46964   0.66245   0.00000  Uiso   1.00
O51    O     0.46963   0.25000   0.33755   0.00000  Uiso   1.00
O52    O     0.03036   0.25000   0.66245   0.00000  Uiso   1.00
O53    O    -0.00000   0.21964   0.83755   0.00000  Uiso   1.00
O54    O     0.00000   0.28036   0.16245   0.00000  Uiso   1.00
O55    O     0.28036   0.00000   0.83755   0.00000  Uiso   1.00
O56    O     0.21963   0.00000   0.16245   0.00000  Uiso   1.00
O57    O     0.00000   0.28036   0.83755   0.00000  Uiso   1.00
O58    O    -0.00000   0.21964   0.16245   0.00000  Uiso   1.00
O59    O     0.21963   0.00000   0.83755   0.00000  Uiso   1.00
O60    O     0.28036   0.00000   0.16245   0.00000  Uiso   1.00
O61    O     0.20724   0.07308   0.27302   0.00000  Uiso   1.00
O62    O     0.29275   0.42693   0.72698   0.00000  Uiso   1.00
O63    O     0.42692   0.20725   0.27302   0.00000  Uiso   1.00
O64    O     0.07307   0.29275   0.72698   0.00000  Uiso   1.00
O65    O     0.29275   0.42693   0.27302   0.00000  Uiso   1.00
O66    O     0.20724   0.07308   0.72698   0.00000  Uiso   1.00
O67    O     0.07307   0.29275   0.27302   0.00000  Uiso   1.00
O68    O     0.42692   0.20725   0.72698   0.00000  Uiso   1.00
O69    O     0.20724   0.42693   0.72698   0.00000  Uiso   1.00
O70    O     0.29275   0.07308   0.27302   0.00000  Uiso   1.00
O71    O     0.42692   0.29276   0.72698   0.00000  Uiso   1.00
O72    O     0.07307   0.20725   0.27302   0.00000  Uiso   1.00
O73    O     0.29275   0.07308   0.72698   0.00000  Uiso   1.00
O74    O     0.20724   0.42693   0.27302   0.00000  Uiso   1.00
O75    O     0.07307   0.20725   0.72698   0.00000  Uiso   1.00
O76    O     0.42692   0.29276   0.27302   0.00000  Uiso   1.00
O77    O     0.45724   0.32308   0.77302   0.00000  Uiso   1.00
O78    O     0.04275   0.17692   0.22698   0.00000  Uiso   1.00
O79    O     0.17692   0.45725   0.77302   0.00000  Uiso   1.00
O80    O     0.32307   0.04276   0.22698   0.00000  Uiso   1.00
O81    O     0.04275   0.17692   0.77302   0.00000  Uiso   1.00
O82    O     0.45724   0.32308   0.22698   0.00000  Uiso   1.00
O83    O     0.32307   0.04276   0.77302   0.00000  Uiso   1.00
O84    O     0.17692   0.45725   0.22698   0.00000  Uiso   1.00
O85    O     0.45724   0.17693   0.22698   0.00000  Uiso   1.00
O86    O     0.04275   0.32307   0.77302   0.00000  Uiso   1.00
O87    O     0.17692   0.04276   0.22698   0.00000  Uiso   1.00
O88    O     0.32307   0.45725   0.77302   0.00000  Uiso   1.00
O89    O     0.04275   0.32307   0.22698   0.00000  Uiso   1.00
O90    O     0.45724   0.17693   0.77302   0.00000  Uiso   1.00
O91    O     0.32307   0.45725   0.22698   0.00000  Uiso   1.00
O92    O     0.17692   0.04276   0.77302   0.00000  Uiso   1.00
C93    C     0.00234   0.18327   0.47977   0.00000  Uiso   1.00
C94    C     0.49614   0.31651   0.52018   0.00000  Uiso   1.00
C95    C     0.30840   0.03094   0.47986   0.00000  Uiso   1.00
C96    C     0.19307   0.46477   0.52091   0.00000  Uiso   1.00
C97    C     0.49886   0.31660   0.47941   0.00000  Uiso   1.00
C98    C     0.00553   0.18338   0.52049   0.00000  Uiso   1.00
C99    C     0.19146   0.46809   0.48028   0.00000  Uiso   1.00
C100   C     0.30746   0.03342   0.52057   0.00000  Uiso   1.00
C101   C     0.25776   0.43425   0.98021   0.00000  Uiso   1.00
C102   C     0.23881   0.06664   0.01950   0.00000  Uiso   1.00
C103   C     0.06583   0.26307   0.97946   0.00000  Uiso   1.00
C104   C     0.43589   0.23561   0.02061   0.00000  Uiso   1.00
C105   C     0.24287   0.06664   0.97890   0.00000  Uiso   1.00
C106   C     0.26110   0.43486   0.02086   0.00000  Uiso   1.00
C107   C     0.43530   0.23850   0.97991   0.00000  Uiso   1.00
C108   C     0.06524   0.26782   0.01994   0.00000  Uiso   1.00
C109   C     0.24990   0.49996   0.35600   0.00000  Uiso   1.00
C110   C     0.25004  -0.00000   0.64443   0.00000  Uiso   1.00
C111   C     0.00001   0.25000   0.35573   0.00000  Uiso   1.00
C112   C     0.00004   0.24999   0.64428   0.00000  Uiso   1.00
C113   C     0.00009   0.24994   0.85582   0.00000  Uiso   1.00
C114   C     0.49976   0.25016   0.14435   0.00000  Uiso   1.00
C115   C     0.25002   0.49994   0.85575   0.00000  Uiso   1.00
C116   C     0.24993   0.00004   0.14433   0.00000  Uiso   1.00
C117   C     0.17996   0.06985   0.25008   0.00000  Uiso   1.00
C118   C     0.32015   0.43002   0.75000   0.00000  Uiso   1.00
C119   C     0.43014   0.17995   0.25015   0.00000  Uiso   1.00
C120   C     0.07017   0.31981   0.75018   0.00000  Uiso   1.00
C121   C     0.32015   0.43005   0.25040   0.00000  Uiso   1.00
C122   C     0.17990   0.07005   0.75003   0.00000  Uiso   1.00
C123   C     0.07027   0.31990   0.24944   0.00000  Uiso   1.00
C124   C     0.42979   0.18005   0.75024   0.00000  Uiso   1.00
C125   C     0.17987   0.43007   0.74993   0.00000  Uiso   1.00
C126   C     0.32010   0.07008   0.25006   0.00000  Uiso   1.00
C127   C     0.42999   0.31988   0.75009   0.00000  Uiso   1.00
C128   C     0.07004   0.17990   0.25009   0.00000  Uiso   1.00
C129   C     0.31980   0.07023   0.75021   0.00000  Uiso   1.00
C130   C     0.18003   0.42998   0.24991   0.00000  Uiso   1.00
C131   C     0.06999   0.18007   0.75007   0.00000  Uiso   1.00
C132   C     0.43020   0.32018   0.25000   0.00000  Uiso   1.00
C133   C     0.11641   0.41092   0.23817   0.00000  Uiso   1.00
C134   C     0.37196   0.10077   0.78218   0.00000  Uiso   1.00
C135   C     0.10518   0.13182   0.21568   0.00000  Uiso   1.00
C136   C     0.39180   0.36425   0.78518   0.00000  Uiso   1.00
C137   C     0.36991   0.10386   0.21651   0.00000  Uiso   1.00
C138   C     0.11563   0.41121   0.74016   0.00000  Uiso   1.00
C139   C     0.41203   0.38521   0.24492   0.00000  Uiso   1.00
C140   C     0.10860   0.13596   0.78527   0.00000  Uiso   1.00
C141   C     0.13354   0.10703   0.78499   0.00000  Uiso   1.00
C142   C     0.38502   0.41217   0.24546   0.00000  Uiso   1.00
C143   C     0.08904   0.38364   0.73846   0.00000  Uiso   1.00
C144   C     0.39502   0.13248   0.21566   0.00000  Uiso   1.00
C145   C     0.36693   0.39324   0.78482   0.00000  Uiso   1.00
C146   C     0.13343   0.10616   0.21508   0.00000  Uiso   1.00
C147   C     0.40073   0.12551   0.78050   0.00000  Uiso   1.00
C148   C     0.09065   0.38320   0.23396   0.00000  Uiso   1.00
C149   C     0.37360   0.15307   0.72204   0.00000  Uiso   1.00
C150   C     0.13447   0.33894   0.25950   0.00000  Uiso   1.00
C151   C     0.35802   0.38471   0.71456   0.00000  Uiso   1.00
C152   C     0.14287   0.11526   0.28511   0.00000  Uiso   1.00
C153   C     0.13399   0.33889   0.76076   0.00000  Uiso   1.00
C154   C     0.38288   0.14447   0.28464   0.00000  Uiso   1.00
C155   C     0.14184   0.11531   0.71456   0.00000  Uiso   1.00
C156   C     0.33912   0.36527   0.25826   0.00000  Uiso   1.00
C157   C     0.36576   0.33814   0.25467   0.00000  Uiso   1.00
C158   C     0.11353   0.14107   0.71419   0.00000  Uiso   1.00
C159   C     0.35400   0.11965   0.28383   0.00000  Uiso   1.00
C160   C     0.16097   0.36598   0.76048   0.00000  Uiso   1.00
C161   C     0.11771   0.14397   0.28468   0.00000  Uiso   1.00
C162   C     0.38641   0.35903   0.71417   0.00000  Uiso   1.00
C163   C     0.16165   0.36521   0.25682   0.00000  Uiso   1.00
C164   C     0.34848   0.12478   0.72034   0.00000  Uiso   1.00
C165   C     0.00401   0.21663   0.45899   0.00000  Uiso   1.00
C166   C     0.00097   0.28344   0.54101   0.00000  Uiso   1.00
C167   C     0.27755   0.01801   0.45966   0.00000  Uiso   1.00
C168   C     0.22036   0.48377   0.54183   0.00000  Uiso   1.00
C169   C     0.49694   0.28324   0.45884   0.00000  Uiso   1.00
C170   C     0.00068   0.21641   0.54117   0.00000  Uiso   1.00
C171   C     0.22195   0.48156   0.45977   0.00000  Uiso   1.00
C172   C     0.27983   0.01489   0.54162   0.00000  Uiso   1.00
C173   C     0.25643   0.46752   0.95927   0.00000  Uiso   1.00
C174   C     0.24571   0.03417   0.04099   0.00000  Uiso   1.00
C175   C     0.03274   0.25923   0.95897   0.00000  Uiso   1.00
C176   C     0.46765   0.24573   0.04134   0.00000  Uiso   1.00
C177   C     0.24374   0.03319   0.95868   0.00000  Uiso   1.00
C178   C     0.25294   0.46731   0.04141   0.00000  Uiso   1.00
C179   C     0.46845   0.24167   0.95930   0.00000  Uiso   1.00
C180   C     0.03358   0.25821   0.04133   0.00000  Uiso   1.00
C181   C     0.09878   0.34772   0.24784   0.00000  Uiso   1.00
C182   C     0.40125   0.15227   0.75071   0.00000  Uiso   1.00
C183   C     0.15180   0.09772   0.25000   0.00000  Uiso   1.00
C184   C     0.34895   0.40239   0.74973   0.00000  Uiso   1.00
C185   C     0.40212   0.15196   0.25009   0.00000  Uiso   1.00
C186   C     0.09825   0.34788   0.74966   0.00000  Uiso   1.00
C187   C     0.34850   0.40208   0.25143   0.00000  Uiso   1.00
C188   C     0.15118   0.09774   0.74981   0.00000  Uiso   1.00
C189   C     0.09779   0.15183   0.74978   0.00000  Uiso   1.00
C190   C     0.40222   0.34831   0.24933   0.00000  Uiso   1.00
C191   C     0.15168   0.40197   0.75020   0.00000  Uiso   1.00
C192   C     0.34817   0.09848   0.25001   0.00000  Uiso   1.00
C193   C     0.40225   0.34819   0.74975   0.00000  Uiso   1.00
C194   C     0.09835   0.15177   0.25005   0.00000  Uiso   1.00
C195   C     0.34726   0.09888   0.75079   0.00000  Uiso   1.00
C196   C     0.15229   0.40172   0.24882   0.00000  Uiso   1.00
C197   C     0.00060   0.24994   0.47950   0.00000  Uiso   1.00
C198   C     0.00076   0.24993   0.52051   0.00000  Uiso   1.00
C199   C     0.24980   0.49973   0.48032   0.00000  Uiso   1.00
C200   C     0.24995   0.49956   0.52125   0.00000  Uiso   1.00
C201   C     0.24986   0.00045   0.97961   0.00000  Uiso   1.00
C202   C     0.24951   0.00066   0.02066   0.00000  Uiso   1.00
C203   C     0.00061   0.25079   0.97976   0.00000  Uiso   1.00
C204   C     0.00065   0.25145   0.02081   0.00000  Uiso   1.00
C205   C     0.49132   0.14791   0.46038   0.00000  Uiso   1.00
H206   H     0.47872   0.15251   0.43149   0.00000  Uiso   1.00
H207   H     0.01492   0.12925   0.45773   0.00000  Uiso   1.00
H208   H     0.47011   0.13416   0.47804   0.00000  Uiso   1.00
C209   C     0.48241   0.35092   0.53965   0.00000  Uiso   1.00
H210   H     0.47031   0.34535   0.56855   0.00000  Uiso   1.00
H211   H     0.00448   0.37129   0.54224   0.00000  Uiso   1.00
H212   H     0.46009   0.36305   0.52213   0.00000  Uiso   1.00
C213   C     0.34466   0.03611   0.45952   0.00000  Uiso   1.00
H214   H     0.34525   0.02278   0.43062   0.00000  Uiso   1.00
H215   H     0.35123   0.06541   0.45620   0.00000  Uiso   1.00
H216   H     0.36658   0.02295   0.47681   0.00000  Uiso   1.00
C217   C     0.16907   0.43628   0.53986   0.00000  Uiso   1.00
H218   H     0.16636   0.41225   0.52058   0.00000  Uiso   1.00
H219   H     0.18141   0.42535   0.56688   0.00000  Uiso   1.00
H220   H     0.14151   0.44733   0.54550   0.00000  Uiso   1.00
C221   C     0.00958   0.35198   0.45963   0.00000  Uiso   1.00
H222   H     0.02179   0.34739   0.43059   0.00000  Uiso   1.00
H223   H     0.48591   0.37060   0.45718   0.00000  Uiso   1.00
H224   H     0.03100   0.36576   0.47688   0.00000  Uiso   1.00
C225   C     0.01972   0.14906   0.53997   0.00000  Uiso   1.00
H226   H     0.03219   0.15474   0.56863   0.00000  Uiso   1.00
H227   H     0.49782   0.12854   0.54302   0.00000  Uiso   1.00
H228   H     0.04187   0.13705   0.52221   0.00000  Uiso   1.00
C229   C     0.15498   0.46259   0.46057   0.00000  Uiso   1.00
H230   H     0.15397   0.47540   0.43133   0.00000  Uiso   1.00
H231   H     0.14837   0.43323   0.45824   0.00000  Uiso   1.00
H232   H     0.13332   0.47609   0.47783   0.00000  Uiso   1.00
C233   C     0.33287   0.06027   0.53997   0.00000  Uiso   1.00
H234   H     0.31914   0.07396   0.56463   0.00000  Uiso   1.00
H235   H     0.35830   0.04666   0.54946   0.00000  Uiso   1.00
H236   H     0.34024   0.08275   0.51987   0.00000  Uiso   1.00
C237   C     0.24989   0.39792   0.96110   0.00000  Uiso   1.00
H238   H     0.23718   0.40121   0.93207   0.00000  Uiso   1.00
H239   H     0.27499   0.38129   0.95879   0.00000  Uiso   1.00
H240   H     0.22981   0.38258   0.97878   0.00000  Uiso   1.00
C241   C     0.22171   0.10001   0.03785   0.00000  Uiso   1.00
H242   H     0.20213   0.09187   0.06077   0.00000  Uiso   1.00
H243   H     0.24276   0.11868   0.04925   0.00000  Uiso   1.00
H244   H     0.20510   0.11546   0.01649   0.00000  Uiso   1.00
C245   C     0.10221   0.25546   0.96030   0.00000  Uiso   1.00
H246   H     0.11862   0.23714   0.97917   0.00000  Uiso   1.00
H247   H     0.09904   0.24094   0.93226   0.00000  Uiso   1.00
H248   H     0.11773   0.28095   0.95566   0.00000  Uiso   1.00
C249   C     0.40419   0.21656   0.04011   0.00000  Uiso   1.00
H250   H     0.39577   0.19270   0.02256   0.00000  Uiso   1.00
H251   H     0.41167   0.20524   0.06889   0.00000  Uiso   1.00
H252   H     0.38061   0.23523   0.04287   0.00000  Uiso   1.00
C253   C     0.25311   0.10222   0.95916   0.00000  Uiso   1.00
H254   H     0.26757   0.09759   0.93130   0.00000  Uiso   1.00
H255   H     0.22886   0.11955   0.95407   0.00000  Uiso   1.00
H256   H     0.27237   0.11754   0.97781   0.00000  Uiso   1.00
C257   C     0.27885   0.40225   0.04037   0.00000  Uiso   1.00
H258   H     0.29088   0.40928   0.06891   0.00000  Uiso   1.00
H259   H     0.25920   0.37959   0.04363   0.00000  Uiso   1.00
H260   H     0.30201   0.39252   0.02246   0.00000  Uiso   1.00
C261   C     0.39876   0.24398   0.96024   0.00000  Uiso   1.00
H262   H     0.40145   0.25633   0.93092   0.00000  Uiso   1.00
H263   H     0.38374   0.21789   0.95834   0.00000  Uiso   1.00
H264   H     0.38214   0.26351   0.97728   0.00000  Uiso   1.00
C265   C     0.09646   0.28867   0.03798   0.00000  Uiso   1.00
H266   H     0.08647   0.30709   0.06113   0.00000  Uiso   1.00
H267   H     0.11779   0.26991   0.04894   0.00000  Uiso   1.00
H268   H     0.10928   0.30715   0.01642   0.00000  Uiso   1.00
N269   N     0.10575   0.44818   0.23427   0.00000  Uiso   1.00
H270   H     0.08371   0.45568   0.25095   0.00000  Uiso   1.00
C271   C     0.10526   0.46338   0.19531   0.00000  Uiso   1.00
H272   H     0.07731   0.46268   0.18323   0.00000  Uiso   1.00
H273   H     0.12401   0.44848   0.17560   0.00000  Uiso   1.00
H274   H     0.11408   0.49223   0.19656   0.00000  Uiso   1.00
N275   N     0.36752   0.07798   0.81559   0.00000  Uiso   1.00
H276   H     0.39096   0.06758   0.82764   0.00000  Uiso   1.00
C277   C     0.34237   0.09193   0.84428   0.00000  Uiso   1.00
H278   H     0.35309   0.11737   0.85733   0.00000  Uiso   1.00
H279   H     0.33859   0.07139   0.86770   0.00000  Uiso   1.00
H280   H     0.31547   0.09752   0.83085   0.00000  Uiso   1.00
N281   N     0.08277   0.13697   0.18226   0.00000  Uiso   1.00
H282   H     0.07214   0.11355   0.17045   0.00000  Uiso   1.00
C283   C     0.09570   0.16285   0.15380   0.00000  Uiso   1.00
H284   H     0.11903   0.15157   0.13749   0.00000  Uiso   1.00
H285   H     0.10367   0.18873   0.16808   0.00000  Uiso   1.00
H286   H     0.07365   0.16844   0.13261   0.00000  Uiso   1.00
N287   N     0.40606   0.35056   0.82104   0.00000  Uiso   1.00
H288   H     0.41103   0.36959   0.84226   0.00000  Uiso   1.00
C289   C     0.38766   0.31865   0.83592   0.00000  Uiso   1.00
H290   H     0.35920   0.32550   0.84381   0.00000  Uiso   1.00
H291   H     0.40199   0.30854   0.86227   0.00000  Uiso   1.00
H292   H     0.38767   0.29654   0.81396   0.00000  Uiso   1.00
N293   N     0.36727   0.07962   0.18434   0.00000  Uiso   1.00
H294   H     0.39159   0.06871   0.17509   0.00000  Uiso   1.00
C295   C     0.34363   0.09102   0.15307   0.00000  Uiso   1.00
H296   H     0.35649   0.11272   0.13547   0.00000  Uiso   1.00
H297   H     0.31725   0.10086   0.16475   0.00000  Uiso   1.00
H298   H     0.33881   0.06748   0.13363   0.00000  Uiso   1.00
N299   N     0.10716   0.44770   0.72906   0.00000  Uiso   1.00
H300   H     0.09185   0.44989   0.70405   0.00000  Uiso   1.00
C301   C     0.09367   0.47058   0.76014   0.00000  Uiso   1.00
H302   H     0.06594   0.46223   0.76897   0.00000  Uiso   1.00
H303   H     0.09265   0.49927   0.74995   0.00000  Uiso   1.00
H304   H     0.11160   0.46910   0.78603   0.00000  Uiso   1.00
N305   N     0.44925   0.39507   0.24070   0.00000  Uiso   1.00
H306   H     0.45837   0.41479   0.25958   0.00000  Uiso   1.00
C307   C     0.46199   0.39947   0.20106   0.00000  Uiso   1.00
H308   H     0.47418   0.42683   0.19703   0.00000  Uiso   1.00
H309   H     0.43983   0.39583   0.17942   0.00000  Uiso   1.00
H310   H     0.48322   0.37888   0.19521   0.00000  Uiso   1.00
N311   N     0.09475   0.14991   0.82109   0.00000  Uiso   1.00
H312   H     0.09017   0.13107   0.84273   0.00000  Uiso   1.00
C313   C     0.11317   0.18206   0.83515   0.00000  Uiso   1.00
H314   H     0.14176   0.17542   0.84279   0.00000  Uiso   1.00
H315   H     0.09911   0.19237   0.86149   0.00000  Uiso   1.00
H316   H     0.11282   0.20396   0.81279   0.00000  Uiso   1.00
N317   N     0.14282   0.08882   0.82035   0.00000  Uiso   1.00
H318   H     0.14844   0.10589   0.84332   0.00000  Uiso   1.00
C319   C     0.11861   0.05932   0.83088   0.00000  Uiso   1.00
H320   H     0.12966   0.04460   0.85653   0.00000  Uiso   1.00
H321   H     0.11591   0.03969   0.80659   0.00000  Uiso   1.00
H322   H     0.09119   0.06978   0.83826   0.00000  Uiso   1.00
N323   N     0.39473   0.44972   0.24308   0.00000  Uiso   1.00
H324   H     0.41414   0.45826   0.26262   0.00000  Uiso   1.00
C325   C     0.39859   0.46504   0.20439   0.00000  Uiso   1.00
H326   H     0.38346   0.49116   0.20280   0.00000  Uiso   1.00
H327   H     0.38778   0.44648   0.18166   0.00000  Uiso   1.00
H328   H     0.42756   0.47085   0.19819   0.00000  Uiso   1.00
N329   N     0.05309   0.39132   0.72515   0.00000  Uiso   1.00
H330   H     0.04306   0.41657   0.73236   0.00000  Uiso   1.00
C331   C     0.04658   0.38225   0.68480   0.00000  Uiso   1.00
H332   H     0.01762   0.38736   0.67757   0.00000  Uiso   1.00
H333   H     0.05250   0.35306   0.67937   0.00000  Uiso   1.00
H334   H     0.06381   0.39926   0.66548   0.00000  Uiso   1.00
N335   N     0.41296   0.14204   0.18020   0.00000  Uiso   1.00
H336   H     0.41825   0.12114   0.16115   0.00000  Uiso   1.00
C337   C     0.39908   0.17443   0.16113   0.00000  Uiso   1.00
H338   H     0.41467   0.17931   0.13402   0.00000  Uiso   1.00
H339   H     0.40206   0.19865   0.18004   0.00000  Uiso   1.00
H340   H     0.36994   0.17119   0.15369   0.00000  Uiso   1.00
N341   N     0.35807   0.41165   0.82006   0.00000  Uiso   1.00
H342   H     0.35276   0.39475   0.84335   0.00000  Uiso   1.00
C343   C     0.38229   0.44133   0.82982   0.00000  Uiso   1.00
H344   H     0.37138   0.45630   0.85527   0.00000  Uiso   1.00
H345   H     0.38481   0.46072   0.80513   0.00000  Uiso   1.00
H346   H     0.40977   0.43098   0.83723   0.00000  Uiso   1.00
N347   N     0.14350   0.08881   0.17949   0.00000  Uiso   1.00
H348   H     0.12299   0.08442   0.15972   0.00000  Uiso   1.00
C349   C     0.17645   0.10230   0.16160   0.00000  Uiso   1.00
H350   H     0.18021   0.08882   0.13307   0.00000  Uiso   1.00
H351   H     0.20047   0.09616   0.17998   0.00000  Uiso   1.00
H352   H     0.17492   0.13216   0.15696   0.00000  Uiso   1.00
N353   N     0.42797   0.12483   0.81005   0.00000  Uiso   1.00
H354   H     0.41839   0.12288   0.83814   0.00000  Uiso   1.00
C355   C     0.45818   0.10060   0.80221   0.00000  Uiso   1.00
H356   H     0.47938   0.10426   0.82484   0.00000  Uiso   1.00
H357   H     0.47040   0.10680   0.77340   0.00000  Uiso   1.00
H358   H     0.44919   0.07179   0.80251   0.00000  Uiso   1.00
N359   N     0.05757   0.39056   0.21379   0.00000  Uiso   1.00
H360   H     0.04543   0.41507   0.22034   0.00000  Uiso   1.00
C361   C     0.05984   0.38393   0.17224   0.00000  Uiso   1.00
H362   H     0.03375   0.39104   0.15797   0.00000  Uiso   1.00
H363   H     0.06589   0.35484   0.16640   0.00000  Uiso   1.00
H364   H     0.08152   0.40062   0.15877   0.00000  Uiso   1.00
N365   N     0.36994   0.18321   0.69603   0.00000  Uiso   1.00
H366   H     0.34495   0.19592   0.69596   0.00000  Uiso   1.00
C367   C     0.38643   0.17959   0.65807   0.00000  Uiso   1.00
H368   H     0.36598   0.17050   0.63650   0.00000  Uiso   1.00
H369   H     0.40957   0.16008   0.65874   0.00000  Uiso   1.00
H370   H     0.39655   0.20663   0.64866   0.00000  Uiso   1.00
N371   N     0.14365   0.30306   0.27199   0.00000  Uiso   1.00
H372   H     0.16507   0.29174   0.25691   0.00000  Uiso   1.00
C373   C     0.14797   0.29958   0.31371   0.00000  Uiso   1.00
H374   H     0.17099   0.31651   0.32404   0.00000  Uiso   1.00
H375   H     0.15376   0.27084   0.32136   0.00000  Uiso   1.00
H376   H     0.12271   0.30810   0.32887   0.00000  Uiso   1.00
N377   N     0.33817   0.39274   0.67995   0.00000  Uiso   1.00
H378   H     0.32972   0.37050   0.66420   0.00000  Uiso   1.00
C379   C     0.35228   0.42213   0.65644   0.00000  Uiso   1.00
H380   H     0.37882   0.41453   0.64365   0.00000  Uiso   1.00
H381   H     0.35531   0.44720   0.67412   0.00000  Uiso   1.00
H382   H     0.33310   0.42773   0.63224   0.00000  Uiso   1.00
N383   N     0.15872   0.10316   0.32085   0.00000  Uiso   1.00
H384   H     0.16441   0.12307   0.34091   0.00000  Uiso   1.00
C385   C     0.14133   0.07170   0.33803   0.00000  Uiso   1.00
H386   H     0.11315   0.07858   0.34698   0.00000  Uiso   1.00
H387   H     0.15686   0.06279   0.36408   0.00000  Uiso   1.00
H388   H     0.14066   0.04873   0.31711   0.00000  Uiso   1.00
N389   N     0.14220   0.30274   0.77326   0.00000  Uiso   1.00
H390   H     0.15685   0.30035   0.79868   0.00000  Uiso   1.00
C391   C     0.15266   0.27722   0.74320   0.00000  Uiso   1.00
H392   H     0.18173   0.26977   0.74645   0.00000  Uiso   1.00
H393   H     0.14830   0.28861   0.71353   0.00000  Uiso   1.00
H394   H     0.13621   0.25210   0.74628   0.00000  Uiso   1.00
N395   N     0.39324   0.16159   0.32023   0.00000  Uiso   1.00
H396   H     0.37242   0.16848   0.33876   0.00000  Uiso   1.00
C397   C     0.42342   0.14435   0.34008   0.00000  Uiso   1.00
H398   H     0.41567   0.11663   0.35002   0.00000  Uiso   1.00
H399   H     0.43115   0.16083   0.36581   0.00000  Uiso   1.00
H400   H     0.44739   0.14244   0.32059   0.00000  Uiso   1.00
N401   N     0.16134   0.10704   0.67984   0.00000  Uiso   1.00
H402   H     0.16956   0.12910   0.66353   0.00000  Uiso   1.00
C403   C     0.14730   0.07718   0.65715   0.00000  Uiso   1.00
H404   H     0.12063   0.08440   0.64435   0.00000  Uiso   1.00
H405   H     0.14455   0.05234   0.67543   0.00000  Uiso   1.00
H406   H     0.16637   0.07133   0.63298   0.00000  Uiso   1.00
N407   N     0.30282   0.35558   0.26813   0.00000  Uiso   1.00
H408   H     0.29291   0.33366   0.25286   0.00000  Uiso   1.00
C409   C     0.29640   0.35249   0.30962   0.00000  Uiso   1.00
H410   H     0.31297   0.33022   0.32247   0.00000  Uiso   1.00
H411   H     0.26736   0.34645   0.31503   0.00000  Uiso   1.00
H412   H     0.30333   0.37829   0.32461   0.00000  Uiso   1.00
N413   N     0.35620   0.30047   0.25587   0.00000  Uiso   1.00
H414   H     0.33579   0.29340   0.27486   0.00000  Uiso   1.00
C415   C     0.35226   0.28369   0.21809   0.00000  Uiso   1.00
H416   H     0.34735   0.25407   0.22179   0.00000  Uiso   1.00
H417   H     0.37739   0.28718   0.20059   0.00000  Uiso   1.00
H418   H     0.32891   0.29593   0.20223   0.00000  Uiso   1.00
N419   N     0.10044   0.15598   0.67831   0.00000  Uiso   1.00
H420   H     0.11903   0.15839   0.65613   0.00000  Uiso   1.00
C421   C     0.06582   0.14190   0.66520   0.00000  Uiso   1.00
H422   H     0.05860   0.15471   0.63696   0.00000  Uiso   1.00
H423   H     0.04395   0.14825   0.68629   0.00000  Uiso   1.00
H424   H     0.06720   0.11198   0.66128   0.00000  Uiso   1.00
N425   N     0.33249   0.11397   0.31782   0.00000  Uiso   1.00
H426   H     0.34709   0.11073   0.34318   0.00000  Uiso   1.00
C427   C     0.30212   0.13886   0.32186   0.00000  Uiso   1.00
H428   H     0.28504   0.13027   0.34684   0.00000  Uiso   1.00
H429   H     0.28502   0.13883   0.29524   0.00000  Uiso   1.00
H430   H     0.31172   0.16702   0.32708   0.00000  Uiso   1.00
N431   N     0.19735   0.35761   0.77168   0.00000  Uiso   1.00
H432   H     0.20040   0.34301   0.79712   0.00000  Uiso   1.00
C433   C     0.22157   0.34645   0.74070   0.00000  Uiso   1.00
H434   H     0.24791   0.36078   0.74404   0.00000  Uiso   1.00
H435   H     0.21026   0.35307   0.71148   0.00000  Uiso   1.00
H436   H     0.22666   0.31668   0.74244   0.00000  Uiso   1.00
N437   N     0.10970   0.16323   0.31962   0.00000  Uiso   1.00
H438   H     0.10536   0.14700   0.34368   0.00000  Uiso   1.00
C439   C     0.13351   0.19368   0.32744   0.00000  Uiso   1.00
H440   H     0.12180   0.21045   0.35116   0.00000  Uiso   1.00
H441   H     0.13658   0.21105   0.30116   0.00000  Uiso   1.00
H442   H     0.16083   0.18413   0.33653   0.00000  Uiso   1.00
N443   N     0.39948   0.34430   0.67829   0.00000  Uiso   1.00
H444   H     0.38093   0.34224   0.65602   0.00000  Uiso   1.00
C445   C     0.43426   0.35820   0.66531   0.00000  Uiso   1.00
H446   H     0.44171   0.34522   0.63731   0.00000  Uiso   1.00
H447   H     0.45597   0.35189   0.68667   0.00000  Uiso   1.00
H448   H     0.43301   0.38811   0.66103   0.00000  Uiso   1.00
N449   N     0.19843   0.35383   0.26067   0.00000  Uiso   1.00
H450   H     0.21211   0.36251   0.28503   0.00000  Uiso   1.00
C451   C     0.21927   0.35211   0.22499   0.00000  Uiso   1.00
H452   H     0.23432   0.32595   0.22413   0.00000  Uiso   1.00
H453   H     0.23892   0.37497   0.22379   0.00000  Uiso   1.00
H454   H     0.20151   0.35345   0.19883   0.00000  Uiso   1.00
N455   N     0.32463   0.12217   0.68770   0.00000  Uiso   1.00
H456   H     0.31460   0.14631   0.67678   0.00000  Uiso   1.00
C457   C     0.33667   0.09735   0.65776   0.00000  Uiso   1.00
H458   H     0.31563   0.09581   0.63470   0.00000  Uiso   1.00
H459   H     0.34097   0.06969   0.67004   0.00000  Uiso   1.00
H460   H     0.36251   0.10678   0.64461   0.00000  Uiso   1.00
C461   C     0.46880   0.31112   0.39717   0.00000  Uiso   1.00
H462   H     0.44594   0.29889   0.38080   0.00000  Uiso   1.00
H463   H     0.45558   0.33051   0.41727   0.00000  Uiso   1.00
H464   H     0.48674   0.32584   0.37650   0.00000  Uiso   1.00
C465   C     0.47651   0.18577   0.60311   0.00000  Uiso   1.00
H466   H     0.45354   0.19586   0.62070   0.00000  Uiso   1.00
H467   H     0.46419   0.16567   0.58318   0.00000  Uiso   1.00
H468   H     0.49635   0.17242   0.62281   0.00000  Uiso   1.00
C469   C     0.21121   0.44231   0.39982   0.00000  Uiso   1.00
H470   H     0.23336   0.42629   0.38622   0.00000  Uiso   1.00
H471   H     0.19893   0.42286   0.42058   0.00000  Uiso   1.00
H472   H     0.19082   0.45028   0.37754   0.00000  Uiso   1.00
C473   C     0.31804   0.00746   0.60332   0.00000  Uiso   1.00
H474   H     0.31693   0.48934   0.62906   0.00000  Uiso   1.00
H475   H     0.33929   0.49574   0.58416   0.00000  Uiso   1.00
H476   H     0.32620   0.03455   0.61381   0.00000  Uiso   1.00
C477   C     0.03132   0.18870   0.39710   0.00000  Uiso   1.00
H478   H     0.05404   0.20085   0.38039   0.00000  Uiso   1.00
H479   H     0.04474   0.16925   0.41712   0.00000  Uiso   1.00
H480   H     0.01311   0.17404   0.37674   0.00000  Uiso   1.00
C481   C     0.02568   0.31358   0.60295   0.00000  Uiso   1.00
H482   H     0.04909   0.30322   0.62006   0.00000  Uiso   1.00
H483   H     0.03767   0.33390   0.58293   0.00000  Uiso   1.00
H484   H     0.00621   0.32687   0.62306   0.00000  Uiso   1.00
C485   C     0.28793   0.05780   0.39991   0.00000  Uiso   1.00
H486   H     0.26565   0.07374   0.38633   0.00000  Uiso   1.00
H487   H     0.30006   0.07715   0.42076   0.00000  Uiso   1.00
H488   H     0.30841   0.05018   0.37765   0.00000  Uiso   1.00
C489   C     0.18275   0.48817   0.60462   0.00000  Uiso   1.00
H490   H     0.18185   0.00987   0.62687   0.00000  Uiso   1.00
H491   H     0.15928   0.49386   0.58535   0.00000  Uiso   1.00
H492   H     0.17953   0.46174   0.61993   0.00000  Uiso   1.00
C493   C     0.21492   0.05930   0.89665   0.00000  Uiso   1.00
H494   H     0.19298   0.04587   0.88002   0.00000  Uiso   1.00
H495   H     0.20025   0.07784   0.91650   0.00000  Uiso   1.00
H496   H     0.23226   0.07511   0.87631   0.00000  Uiso   1.00
C497   C     0.23237   0.43437   0.10360   0.00000  Uiso   1.00
H498   H     0.20855   0.44200   0.12162   0.00000  Uiso   1.00
H499   H     0.22196   0.41317   0.08372   0.00000  Uiso   1.00
H500   H     0.25372   0.42298   0.12296   0.00000  Uiso   1.00
C501   C     0.44550   0.20863   0.89846   0.00000  Uiso   1.00
H502   H     0.46126   0.18712   0.88341   0.00000  Uiso   1.00
H503   H     0.42802   0.19333   0.91890   0.00000  Uiso   1.00
H504   H     0.42853   0.22350   0.87692   0.00000  Uiso   1.00
C505   C     0.06879   0.24658   0.10486   0.00000  Uiso   1.00
H506   H     0.06423   0.23111   0.13201   0.00000  Uiso   1.00
H507   H     0.08797   0.22974   0.08770   0.00000  Uiso   1.00
H508   H     0.08116   0.27273   0.11372   0.00000  Uiso   1.00
C509   C     0.28663   0.44182   0.89788   0.00000  Uiso   1.00
H510   H     0.30857   0.45587   0.88176   0.00000  Uiso   1.00
H511   H     0.30131   0.42352   0.91812   0.00000  Uiso   1.00
H512   H     0.27011   0.42571   0.87714   0.00000  Uiso   1.00
C513   C     0.26266   0.06810   0.10351   0.00000  Uiso   1.00
H514   H     0.27620   0.06189   0.13135   0.00000  Uiso   1.00
H515   H     0.28271   0.08368   0.08607   0.00000  Uiso   1.00
H516   H     0.23910   0.08524   0.11106   0.00000  Uiso   1.00
C517   C     0.05640   0.28986   0.89688   0.00000  Uiso   1.00
H518   H     0.07417   0.30543   0.91668   0.00000  Uiso   1.00
H519   H     0.07307   0.27389   0.87610   0.00000  Uiso   1.00
H520   H     0.04126   0.31130   0.88090   0.00000  Uiso   1.00
C521   C     0.43365   0.26523   0.10304   0.00000  Uiso   1.00
H522   H     0.41210   0.27454   0.08285   0.00000  Uiso   1.00
H523   H     0.42314   0.24382   0.12278   0.00000  Uiso   1.00
H524   H     0.44029   0.28959   0.12068   0.00000  Uiso   1.00
Zn525  Zn    0.70659   0.00000   0.21735   0.00000  Uiso   1.00
Zn526  Zn    0.79340   0.00000   0.78265   0.00000  Uiso   1.00
Zn527  Zn    0.50000   0.20659   0.21735   0.00000  Uiso   1.00
Zn528  Zn    0.50000   0.29340   0.78265   0.00000  Uiso   1.00
Zn529  Zn    0.79340   0.00000   0.21735   0.00000  Uiso   1.00
Zn530  Zn    0.70659   0.00000   0.78265   0.00000  Uiso   1.00
Zn531  Zn    0.50000   0.29340   0.21735   0.00000  Uiso   1.00
Zn532  Zn    0.50000   0.20659   0.78265   0.00000  Uiso   1.00
Zn533  Zn    0.95659   0.25000   0.71735   0.00000  Uiso   1.00
Zn534  Zn    0.54340   0.25000   0.28265   0.00000  Uiso   1.00
Zn535  Zn    0.75000   0.45660   0.71735   0.00000  Uiso   1.00
Zn536  Zn    0.75000   0.04341   0.28265   0.00000  Uiso   1.00
Zn537  Zn    0.54340   0.25000   0.71735   0.00000  Uiso   1.00
Zn538  Zn    0.95659   0.25000   0.28265   0.00000  Uiso   1.00
Zn539  Zn    0.75000   0.04341   0.71735   0.00000  Uiso   1.00
Zn540  Zn    0.75000   0.45660   0.28265   0.00000  Uiso   1.00
C541   C     0.98992   0.28157   0.41839   0.00000  Uiso   1.00
C542   C     0.99392   0.21735   0.58169   0.00000  Uiso   1.00
C543   C     0.72687   0.47578   0.41950   0.00000  Uiso   1.00
C544   C     0.78183   0.00925   0.58223   0.00000  Uiso   1.00
C545   C     0.51052   0.21829   0.41844   0.00000  Uiso   1.00
C546   C     0.50754   0.28240   0.58158   0.00000  Uiso   1.00
C547   C     0.77246   0.02408   0.41947   0.00000  Uiso   1.00
C548   C     0.71845   0.48926   0.58248   0.00000  Uiso   1.00
C549   C     0.73738   0.03096   0.91819   0.00000  Uiso   1.00
C550   C     0.74654   0.46755   0.08193   0.00000  Uiso   1.00
C551   C     0.97116   0.23462   0.91896   0.00000  Uiso   1.00
C552   C     0.53382   0.25289   0.08230   0.00000  Uiso   1.00
C553   C     0.76307   0.46956   0.91877   0.00000  Uiso   1.00
C554   C     0.75126   0.03400   0.08187   0.00000  Uiso   1.00
C555   C     0.53008   0.26515   0.91839   0.00000  Uiso   1.00
C556   C     0.96738   0.25200   0.08183   0.00000  Uiso   1.00
C557   C     0.50009   0.24993   0.39816   0.00000  Uiso   1.00
C558   C     0.50028   0.24996   0.60185   0.00000  Uiso   1.00
C559   C     0.74973   0.49993   0.39877   0.00000  Uiso   1.00
C560   C     0.75005   0.49975   0.60229   0.00000  Uiso   1.00
C561   C     0.75008   0.00011   0.89819   0.00000  Uiso   1.00
C562   C     0.74967   0.00058   0.10199   0.00000  Uiso   1.00
C563   C     0.50048   0.24985   0.89832   0.00000  Uiso   1.00
C564   C     0.50041   0.25085   0.10207   0.00000  Uiso   1.00
O565   O     0.75000   0.00000   0.25000   0.00000  Uiso   1.00
O566   O     0.75000   0.00000   0.75000   0.00000  Uiso   1.00
O567   O     0.50000   0.25000   0.25000   0.00000  Uiso   1.00
O568   O     0.50000   0.25000   0.75000   0.00000  Uiso   1.00
O569   O     0.75000   0.46964   0.33755   0.00000  Uiso   1.00
O570   O     0.75000   0.03037   0.66245   0.00000  Uiso   1.00
O571   O     0.53036   0.25000   0.33755   0.00000  Uiso   1.00
O572   O     0.96963   0.25000   0.66245   0.00000  Uiso   1.00
O573   O     0.75000   0.03037   0.33755   0.00000  Uiso   1.00
O574   O     0.75000   0.46964   0.66245   0.00000  Uiso   1.00
O575   O     0.96963   0.25000   0.33755   0.00000  Uiso   1.00
O576   O     0.53036   0.25000   0.66245   0.00000  Uiso   1.00
O577   O     0.50000   0.21964   0.83755   0.00000  Uiso   1.00
O578   O     0.50000   0.28036   0.16245   0.00000  Uiso   1.00
O579   O     0.78036   0.00000   0.83755   0.00000  Uiso   1.00
O580   O     0.71963   0.00000   0.16245   0.00000  Uiso   1.00
O581   O     0.50000   0.28036   0.83755   0.00000  Uiso   1.00
O582   O     0.50000   0.21964   0.16245   0.00000  Uiso   1.00
O583   O     0.71963   0.00000   0.83755   0.00000  Uiso   1.00
O584   O     0.78036   0.00000   0.16245   0.00000  Uiso   1.00
O585   O     0.70724   0.07308   0.27302   0.00000  Uiso   1.00
O586   O     0.79275   0.42693   0.72698   0.00000  Uiso   1.00
O587   O     0.92692   0.20725   0.27302   0.00000  Uiso   1.00
O588   O     0.57307   0.29275   0.72698   0.00000  Uiso   1.00
O589   O     0.79275   0.42693   0.27302   0.00000  Uiso   1.00
O590   O     0.70724   0.07308   0.72698   0.00000  Uiso   1.00
O591   O     0.57307   0.29275   0.27302   0.00000  Uiso   1.00
O592   O     0.92692   0.20725   0.72698   0.00000  Uiso   1.00
O593   O     0.70724   0.42693   0.72698   0.00000  Uiso   1.00
O594   O     0.79275   0.07308   0.27302   0.00000  Uiso   1.00
O595   O     0.92692   0.29276   0.72698   0.00000  Uiso   1.00
O596   O     0.57307   0.20725   0.27302   0.00000  Uiso   1.00
O597   O     0.79275   0.07308   0.72698   0.00000  Uiso   1.00
O598   O     0.70724   0.42693   0.27302   0.00000  Uiso   1.00
O599   O     0.57307   0.20725   0.72698   0.00000  Uiso   1.00
O600   O     0.92692   0.29276   0.27302   0.00000  Uiso   1.00
O601   O     0.95724   0.32308   0.77302   0.00000  Uiso   1.00
O602   O     0.54275   0.17692   0.22698   0.00000  Uiso   1.00
O603   O     0.67692   0.45725   0.77302   0.00000  Uiso   1.00
O604   O     0.82307   0.04276   0.22698   0.00000  Uiso   1.00
O605   O     0.54275   0.17692   0.77302   0.00000  Uiso   1.00
O606   O     0.95724   0.32308   0.22698   0.00000  Uiso   1.00
O607   O     0.82307   0.04276   0.77302   0.00000  Uiso   1.00
O608   O     0.67692   0.45725   0.22698   0.00000  Uiso   1.00
O609   O     0.95724   0.17693   0.22698   0.00000  Uiso   1.00
O610   O     0.54275   0.32307   0.77302   0.00000  Uiso   1.00
O611   O     0.67692   0.04276   0.22698   0.00000  Uiso   1.00
O612   O     0.82307   0.45725   0.77302   0.00000  Uiso   1.00
O613   O     0.54275   0.32307   0.22698   0.00000  Uiso   1.00
O614   O     0.95724   0.17693   0.77302   0.00000  Uiso   1.00
O615   O     0.82307   0.45725   0.22698   0.00000  Uiso   1.00
O616   O     0.67692   0.04276   0.77302   0.00000  Uiso   1.00
C617   C     0.50234   0.18327   0.47977   0.00000  Uiso   1.00
C618   C     0.99614   0.31651   0.52018   0.00000  Uiso   1.00
C619   C     0.80840   0.03094   0.47986   0.00000  Uiso   1.00
C620   C     0.69307   0.46477   0.52091   0.00000  Uiso   1.00
C621   C     0.99886   0.31660   0.47941   0.00000  Uiso   1.00
C622   C     0.50553   0.18338   0.52049   0.00000  Uiso   1.00
C623   C     0.69146   0.46809   0.48028   0.00000  Uiso   1.00
C624   C     0.80746   0.03342   0.52057   0.00000  Uiso   1.00
C625   C     0.75776   0.43425   0.98021   0.00000  Uiso   1.00
C626   C     0.73881   0.06664   0.01950   0.00000  Uiso   1.00
C627   C     0.56583   0.26307   0.97946   0.00000  Uiso   1.00
C628   C     0.93589   0.23561   0.02061   0.00000  Uiso   1.00
C629   C     0.74287   0.06664   0.97890   0.00000  Uiso   1.00
C630   C     0.76110   0.43486   0.02086   0.00000  Uiso   1.00
C631   C     0.93530   0.23850   0.97991   0.00000  Uiso   1.00
C632   C     0.56524   0.26782   0.01994   0.00000  Uiso   1.00
C633   C     0.74990   0.49996   0.35600   0.00000  Uiso   1.00
C634   C     0.75004  -0.00000   0.64443   0.00000  Uiso   1.00
C635   C     0.50001   0.25000   0.35573   0.00000  Uiso   1.00
C636   C     0.50004   0.24999   0.64428   0.00000  Uiso   1.00
C637   C     0.50009   0.24994   0.85582   0.00000  Uiso   1.00
C638   C     0.99976   0.25016   0.14435   0.00000  Uiso   1.00
C639   C     0.75002   0.49994   0.85575   0.00000  Uiso   1.00
C640   C     0.74993   0.00004   0.14433   0.00000  Uiso   1.00
C641   C     0.67996   0.06985   0.25008   0.00000  Uiso   1.00
C642   C     0.82015   0.43002   0.75000   0.00000  Uiso   1.00
C643   C     0.93014   0.17995   0.25015   0.00000  Uiso   1.00
C644   C     0.57017   0.31981   0.75018   0.00000  Uiso   1.00
C645   C     0.82015   0.43005   0.25040   0.00000  Uiso   1.00
C646   C     0.67990   0.07005   0.75003   0.00000  Uiso   1.00
C647   C     0.57027   0.31990   0.24944   0.00000  Uiso   1.00
C648   C     0.92979   0.18005   0.75024   0.00000  Uiso   1.00
C649   C     0.67987   0.43007   0.74993   0.00000  Uiso   1.00
C650   C     0.82010   0.07008   0.25006   0.00000  Uiso   1.00
C651   C     0.92999   0.31988   0.75009   0.00000  Uiso   1.00
C652   C     0.57004   0.17990   0.25009   0.00000  Uiso   1.00
C653   C     0.81980   0.07023   0.75021   0.00000  Uiso   1.00
C654   C     0.68003   0.42998   0.24991   0.00000  Uiso   1.00
C655   C     0.56999   0.18007   0.75007   0.00000  Uiso   1.00
C656   C     0.93020   0.32018   0.25000   0.00000  Uiso   1.00
C657   C     0.61641   0.41092   0.23817   0.00000  Uiso   1.00
C658   C     0.87196   0.10077   0.78218   0.00000  Uiso   1.00
C659   C     0.60518   0.13182   0.21568   0.00000  Uiso   1.00
C660   C     0.89180   0.36425   0.78518   0.00000  Uiso   1.00
C661   C     0.86991   0.10386   0.21651   0.00000  Uiso   1.00
C662   C     0.61563   0.41121   0.74016   0.00000  Uiso   1.00
C663   C     0.91203   0.38521   0.24492   0.00000  Uiso   1.00
C664   C     0.60860   0.13596   0.78527   0.00000  Uiso   1.00
C665   C     0.63354   0.10703   0.78499   0.00000  Uiso   1.00
C666   C     0.88502   0.41217   0.24546   0.00000  Uiso   1.00
C667   C     0.58904   0.38364   0.73846   0.00000  Uiso   1.00
C668   C     0.89502   0.13248   0.21566   0.00000  Uiso   1.00
C669   C     0.86693   0.39324   0.78482   0.00000  Uiso   1.00
C670   C     0.63343   0.10616   0.21508   0.00000  Uiso   1.00
C671   C     0.90073   0.12551   0.78050   0.00000  Uiso   1.00
C672   C     0.59065   0.38320   0.23396   0.00000  Uiso   1.00
C673   C     0.87360   0.15307   0.72204   0.00000  Uiso   1.00
C674   C     0.63447   0.33894   0.25950   0.00000  Uiso   1.00
C675   C     0.85802   0.38471   0.71456   0.00000  Uiso   1.00
C676   C     0.64287   0.11526   0.28511   0.00000  Uiso   1.00
C677   C     0.63399   0.33889   0.76076   0.00000  Uiso   1.00
C678   C     0.88288   0.14447   0.28464   0.00000  Uiso   1.00
C679   C     0.64184   0.11531   0.71456   0.00000  Uiso   1.00
C680   C     0.83912   0.36527   0.25826   0.00000  Uiso   1.00
C681   C     0.86576   0.33814   0.25467   0.00000  Uiso   1.00
C682   C     0.61353   0.14107   0.71419   0.00000  Uiso   1.00
C683   C     0.85400   0.11965   0.28383   0.00000  Uiso   1.00
C684   C     0.66097   0.36598   0.76048   0.00000  Uiso   1.00
C685   C     0.61771   0.14397   0.28468   0.00000  Uiso   1.00
C686   C     0.88641   0.35903   0.71417   0.00000  Uiso   1.00
C687   C     0.66165   0.36521   0.25682   0.00000  Uiso   1.00
C688   C     0.84848   0.12478   0.72034   0.00000  Uiso   1.00
C689   C     0.50401   0.21663   0.45899   0.00000  Uiso   1.00
C690   C     0.50097   0.28344   0.54101   0.00000  Uiso   1.00
C691   C     0.77755   0.01801   0.45966   0.00000  Uiso   1.00
C692   C     0.72036   0.48377   0.54183   0.00000  Uiso   1.00
C693   C     0.99694   0.28324   0.45884   0.00000  Uiso   1.00
C694   C     0.50068   0.21641   0.54117   0.00000  Uiso   1.00
C695   C     0.72195   0.48156   0.45977   0.00000  Uiso   1.00
C696   C     0.77983   0.01489   0.54162   0.00000  Uiso   1.00
C697   C     0.75643   0.46752   0.95927   0.00000  Uiso   1.00
C698   C     0.74571   0.03417   0.04099   0.00000  Uiso   1.00
C699   C     0.53274   0.25923   0.95897   0.00000  Uiso   1.00
C700   C     0.96765   0.24573   0.04134   0.00000  Uiso   1.00
C701   C     0.74374   0.03319   0.95868   0.00000  Uiso   1.00
C702   C     0.75294   0.46731   0.04141   0.00000  Uiso   1.00
C703   C     0.96845   0.24167   0.95930   0.00000  Uiso   1.00
C704   C     0.53358   0.25821   0.04133   0.00000  Uiso   1.00
C705   C     0.59878   0.34772   0.24784   0.00000  Uiso   1.00
C706   C     0.90125   0.15227   0.75071   0.00000  Uiso   1.00
C707   C     0.65180   0.09772   0.25000   0.00000  Uiso   1.00
C708   C     0.84895   0.40239   0.74973   0.00000  Uiso   1.00
C709   C     0.90212   0.15196   0.25009   0.00000  Uiso   1.00
C710   C     0.59825   0.34788   0.74966   0.00000  Uiso   1.00
C711   C     0.84850   0.40208   0.25143   0.00000  Uiso   1.00
C712   C     0.65118   0.09774   0.74981   0.00000  Uiso   1.00
C713   C     0.59779   0.15183   0.74978   0.00000  Uiso   1.00
C714   C     0.90222   0.34831   0.24933   0.00000  Uiso   1.00
C715   C     0.65168   0.40197   0.75020   0.00000  Uiso   1.00
C716   C     0.84817   0.09848   0.25001   0.00000  Uiso   1.00
C717   C     0.90225   0.34819   0.74975   0.00000  Uiso   1.00
C718   C     0.59835   0.15177   0.25005   0.00000  Uiso   1.00
C719   C     0.84726   0.09888   0.75079   0.00000  Uiso   1.00
C720   C     0.65229   0.40172   0.24882   0.00000  Uiso   1.00
C721   C     0.50060   0.24994   0.47950   0.00000  Uiso   1.00
C722   C     0.50076   0.24993   0.52051   0.00000  Uiso   1.00
C723   C     0.74980   0.49973   0.48032   0.00000  Uiso   1.00
C724   C     0.74995   0.49956   0.52125   0.00000  Uiso   1.00
C725   C     0.74986   0.00045   0.97961   0.00000  Uiso   1.00
C726   C     0.74951   0.00066   0.02066   0.00000  Uiso   1.00
C727   C     0.50061   0.25079   0.97976   0.00000  Uiso   1.00
C728   C     0.50065   0.25145   0.02081   0.00000  Uiso   1.00
C729   C     0.99132   0.14791   0.46038   0.00000  Uiso   1.00
H730   H     0.97872   0.15251   0.43149   0.00000  Uiso   1.00
H731   H     0.51492   0.12925   0.45773   0.00000  Uiso   1.00
H732   H     0.97011   0.13416   0.47804   0.00000  Uiso   1.00
C733   C     0.98241   0.35092   0.53965   0.00000  Uiso   1.00
H734   H     0.97031   0.34535   0.56855   0.00000  Uiso   1.00
H735   H     0.50448   0.37129   0.54224   0.00000  Uiso   1.00
H736   H     0.96009   0.36305   0.52213   0.00000  Uiso   1.00
C737   C     0.84466   0.03611   0.45952   0.00000  Uiso   1.00
H738   H     0.84525   0.02278   0.43062   0.00000  Uiso   1.00
H739   H     0.85123   0.06541   0.45620   0.00000  Uiso   1.00
H740   H     0.86658   0.02295   0.47681   0.00000  Uiso   1.00
C741   C     0.66907   0.43628   0.53986   0.00000  Uiso   1.00
H742   H     0.66636   0.41225   0.52058   0.00000  Uiso   1.00
H743   H     0.68141   0.42535   0.56688   0.00000  Uiso   1.00
H744   H     0.64151   0.44733   0.54550   0.00000  Uiso   1.00
C745   C     0.50958   0.35198   0.45963   0.00000  Uiso   1.00
H746   H     0.52179   0.34739   0.43059   0.00000  Uiso   1.00
H747   H     0.98591   0.37060   0.45718   0.00000  Uiso   1.00
H748   H     0.53100   0.36576   0.47688   0.00000  Uiso   1.00
C749   C     0.51972   0.14906   0.53997   0.00000  Uiso   1.00
H750   H     0.53219   0.15474   0.56863   0.00000  Uiso   1.00
H751   H     0.99782   0.12854   0.54302   0.00000  Uiso   1.00
H752   H     0.54187   0.13705   0.52221   0.00000  Uiso   1.00
C753   C     0.65498   0.46259   0.46057   0.00000  Uiso   1.00
H754   H     0.65397   0.47540   0.43133   0.00000  Uiso   1.00
H755   H     0.64837   0.43323   0.45824   0.00000  Uiso   1.00
H756   H     0.63332   0.47609   0.47783   0.00000  Uiso   1.00
C757   C     0.83287   0.06027   0.53997   0.00000  Uiso   1.00
H758   H     0.81914   0.07396   0.56463   0.00000  Uiso   1.00
H759   H     0.85830   0.04666   0.54946   0.00000  Uiso   1.00
H760   H     0.84024   0.08275   0.51987   0.00000  Uiso   1.00
C761   C     0.74989   0.39792   0.96110   0.00000  Uiso   1.00
H762   H     0.73718   0.40121   0.93207   0.00000  Uiso   1.00
H763   H     0.77499   0.38129   0.95879   0.00000  Uiso   1.00
H764   H     0.72981   0.38258   0.97878   0.00000  Uiso   1.00
C765   C     0.72171   0.10001   0.03785   0.00000  Uiso   1.00
H766   H     0.70213   0.09187   0.06077   0.00000  Uiso   1.00
H767   H     0.74276   0.11868   0.04925   0.00000  Uiso   1.00
H768   H     0.70510   0.11546   0.01649   0.00000  Uiso   1.00
C769   C     0.60221   0.25546   0.96030   0.00000  Uiso   1.00
H770   H     0.61862   0.23714   0.97917   0.00000  Uiso   1.00
H771   H     0.59904   0.24094   0.93226   0.00000  Uiso   1.00
H772   H     0.61773   0.28095   0.95566   0.00000  Uiso   1.00
C773   C     0.90419   0.21656   0.04011   0.00000  Uiso   1.00
H774   H     0.89577   0.19270   0.02256   0.00000  Uiso   1.00
H775   H     0.91167   0.20524   0.06889   0.00000  Uiso   1.00
H776   H     0.88061   0.23523   0.04287   0.00000  Uiso   1.00
C777   C     0.75311   0.10222   0.95916   0.00000  Uiso   1.00
H778   H     0.76757   0.09759   0.93130   0.00000  Uiso   1.00
H779   H     0.72886   0.11955   0.95407   0.00000  Uiso   1.00
H780   H     0.77237   0.11754   0.97781   0.00000  Uiso   1.00
C781   C     0.77885   0.40225   0.04037   0.00000  Uiso   1.00
H782   H     0.79088   0.40928   0.06891   0.00000  Uiso   1.00
H783   H     0.75920   0.37959   0.04363   0.00000  Uiso   1.00
H784   H     0.80201   0.39252   0.02246   0.00000  Uiso   1.00
C785   C     0.89876   0.24398   0.96024   0.00000  Uiso   1.00
H786   H     0.90145   0.25633   0.93092   0.00000  Uiso   1.00
H787   H     0.88374   0.21789   0.95834   0.00000  Uiso   1.00
H788   H     0.88214   0.26351   0.97728   0.00000  Uiso   1.00
C789   C     0.59646   0.28867   0.03798   0.00000  Uiso   1.00
H790   H     0.58647   0.30709   0.06113   0.00000  Uiso   1.00
H791   H     0.61779   0.26991   0.04894   0.00000  Uiso   1.00
H792   H     0.60928   0.30715   0.01642   0.00000  Uiso   1.00
N793   N     0.60575   0.44818   0.23427   0.00000  Uiso   1.00
H794   H     0.58371   0.45568   0.25095   0.00000  Uiso   1.00
C795   C     0.60526   0.46338   0.19531   0.00000  Uiso   1.00
H796   H     0.57731   0.46268   0.18323   0.00000  Uiso   1.00
H797   H     0.62401   0.44848   0.17560   0.00000  Uiso   1.00
H798   H     0.61408   0.49223   0.19656   0.00000  Uiso   1.00
N799   N     0.86752   0.07798   0.81559   0.00000  Uiso   1.00
H800   H     0.89096   0.06758   0.82764   0.00000  Uiso   1.00
C801   C     0.84237   0.09193   0.84428   0.00000  Uiso   1.00
H802   H     0.85309   0.11737   0.85733   0.00000  Uiso   1.00
H803   H     0.83859   0.07139   0.86770   0.00000  Uiso   1.00
H804   H     0.81547   0.09752   0.83085   0.00000  Uiso   1.00
N805   N     0.58277   0.13697   0.18226   0.00000  Uiso   1.00
H806   H     0.57214   0.11355   0.17045   0.00000  Uiso   1.00
C807   C     0.59570   0.16285   0.15380   0.00000  Uiso   1.00
H808   H     0.61903   0.15157   0.13749   0.00000  Uiso   1.00
H809   H     0.60367   0.18873   0.16808   0.00000  Uiso   1.00
H810   H     0.57365   0.16844   0.13261   0.00000  Uiso   1.00
N811   N     0.90606   0.35056   0.82104   0.00000  Uiso   1.00
H812   H     0.91103   0.36959   0.84226   0.00000  Uiso   1.00
C813   C     0.88766   0.31865   0.83592   0.00000  Uiso   1.00
H814   H     0.85920   0.32550   0.84381   0.00000  Uiso   1.00
H815   H     0.90199   0.30854   0.86227   0.00000  Uiso   1.00
H816   H     0.88767   0.29654   0.81396   0.00000  Uiso   1.00
N817   N     0.86727   0.07962   0.18434   0.00000  Uiso   1.00
H818   H     0.89159   0.06871   0.17509   0.00000  Uiso   1.00
C819   C     0.84363   0.09102   0.15307   0.00000  Uiso   1.00
H820   H     0.85649   0.11272   0.13547   0.00000  Uiso   1.00
H821   H     0.81725   0.10086   0.16475   0.00000  Uiso   1.00
H822   H     0.83881   0.06748   0.13363   0.00000  Uiso   1.00
N823   N     0.60716   0.44770   0.72906   0.00000  Uiso   1.00
H824   H     0.59185   0.44989   0.70405   0.00000  Uiso   1.00
C825   C     0.59367   0.47058   0.76014   0.00000  Uiso   1.00
H826   H     0.56594   0.46223   0.76897   0.00000  Uiso   1.00
H827   H     0.59265   0.49927   0.74995   0.00000  Uiso   1.00
H828   H     0.61160   0.46910   0.78603   0.00000  Uiso   1.00
N829   N     0.94925   0.39507   0.24070   0.00000  Uiso   1.00
H830   H     0.95837   0.41479   0.25958   0.00000  Uiso   1.00
C831   C     0.96199   0.39947   0.20106   0.00000  Uiso   1.00
H832   H     0.97418   0.42683   0.19703   0.00000  Uiso   1.00
H833   H     0.93983   0.39583   0.17942   0.00000  Uiso   1.00
H834   H     0.98322   0.37888   0.19521   0.00000  Uiso   1.00
N835   N     0.59475   0.14991   0.82109   0.00000  Uiso   1.00
H836   H     0.59017   0.13107   0.84273   0.00000  Uiso   1.00
C837   C     0.61317   0.18206   0.83515   0.00000  Uiso   1.00
H838   H     0.64176   0.17542   0.84279   0.00000  Uiso   1.00
H839   H     0.59911   0.19237   0.86149   0.00000  Uiso   1.00
H840   H     0.61282   0.20396   0.81279   0.00000  Uiso   1.00
N841   N     0.64282   0.08882   0.82035   0.00000  Uiso   1.00
H842   H     0.64844   0.10589   0.84332   0.00000  Uiso   1.00
C843   C     0.61861   0.05932   0.83088   0.00000  Uiso   1.00
H844   H     0.62966   0.04460   0.85653   0.00000  Uiso   1.00
H845   H     0.61591   0.03969   0.80659   0.00000  Uiso   1.00
H846   H     0.59119   0.06978   0.83826   0.00000  Uiso   1.00
N847   N     0.89473   0.44972   0.24308   0.00000  Uiso   1.00
H848   H     0.91414   0.45826   0.26262   0.00000  Uiso   1.00
C849   C     0.89859   0.46504   0.20439   0.00000  Uiso   1.00
H850   H     0.88346   0.49116   0.20280   0.00000  Uiso   1.00
H851   H     0.88778   0.44648   0.18166   0.00000  Uiso   1.00
H852   H     0.92756   0.47085   0.19819   0.00000  Uiso   1.00
N853   N     0.55309   0.39132   0.72515   0.00000  Uiso   1.00
H854   H     0.54306   0.41657   0.73236   0.00000  Uiso   1.00
C855   C     0.54658   0.38225   0.68480   0.00000  Uiso   1.00
H856   H     0.51762   0.38736   0.67757   0.00000  Uiso   1.00
H857   H     0.55250   0.35306   0.67937   0.00000  Uiso   1.00
H858   H     0.56381   0.39926   0.66548   0.00000  Uiso   1.00
N859   N     0.91296   0.14204   0.18020   0.00000  Uiso   1.00
H860   H     0.91825   0.12114   0.16115   0.00000  Uiso   1.00
C861   C     0.89908   0.17443   0.16113   0.00000  Uiso   1.00
H862   H     0.91467   0.17931   0.13402   0.00000  Uiso   1.00
H863   H     0.90206   0.19865   0.18004   0.00000  Uiso   1.00
H864   H     0.86994   0.17119   0.15369   0.00000  Uiso   1.00
N865   N     0.85807   0.41165   0.82006   0.00000  Uiso   1.00
H866   H     0.85276   0.39475   0.84335   0.00000  Uiso   1.00
C867   C     0.88229   0.44133   0.82982   0.00000  Uiso   1.00
H868   H     0.87138   0.45630   0.85527   0.00000  Uiso   1.00
H869   H     0.88481   0.46072   0.80513   0.00000  Uiso   1.00
H870   H     0.90977   0.43098   0.83723   0.00000  Uiso   1.00
N871   N     0.64350   0.08881   0.17949   0.00000  Uiso   1.00
H872   H     0.62299   0.08442   0.15972   0.00000  Uiso   1.00
C873   C     0.67645   0.10230   0.16160   0.00000  Uiso   1.00
H874   H     0.68021   0.08882   0.13307   0.00000  Uiso   1.00
H875   H     0.70047   0.09616   0.17998   0.00000  Uiso   1.00
H876   H     0.67492   0.13216   0.15696   0.00000  Uiso   1.00
N877   N     0.92797   0.12483   0.81005   0.00000  Uiso   1.00
H878   H     0.91839   0.12288   0.83814   0.00000  Uiso   1.00
C879   C     0.95818   0.10060   0.80221   0.00000  Uiso   1.00
H880   H     0.97938   0.10426   0.82484   0.00000  Uiso   1.00
H881   H     0.97040   0.10680   0.77340   0.00000  Uiso   1.00
H882   H     0.94919   0.07179   0.80251   0.00000  Uiso   1.00
N883   N     0.55757   0.39056   0.21379   0.00000  Uiso   1.00
H884   H     0.54543   0.41507   0.22034   0.00000  Uiso   1.00
C885   C     0.55984   0.38393   0.17224   0.00000  Uiso   1.00
H886   H     0.53375   0.39104   0.15797   0.00000  Uiso   1.00
H887   H     0.56589   0.35484   0.16640   0.00000  Uiso   1.00
H888   H     0.58152   0.40062   0.15877   0.00000  Uiso   1.00
N889   N     0.86994   0.18321   0.69603   0.00000  Uiso   1.00
H890   H     0.84495   0.19592   0.69596   0.00000  Uiso   1.00
C891   C     0.88643   0.17959   0.65807   0.00000  Uiso   1.00
H892   H     0.86598   0.17050   0.63650   0.00000  Uiso   1.00
H893   H     0.90957   0.16008   0.65874   0.00000  Uiso   1.00
H894   H     0.89655   0.20663   0.64866   0.00000  Uiso   1.00
N895   N     0.64365   0.30306   0.27199   0.00000  Uiso   1.00
H896   H     0.66507   0.29174   0.25691   0.00000  Uiso   1.00
C897   C     0.64797   0.29958   0.31371   0.00000  Uiso   1.00
H898   H     0.67099   0.31651   0.32404   0.00000  Uiso   1.00
H899   H     0.65376   0.27084   0.32136   0.00000  Uiso   1.00
H900   H     0.62271   0.30810   0.32887   0.00000  Uiso   1.00
N901   N     0.83817   0.39274   0.67995   0.00000  Uiso   1.00
H902   H     0.82972   0.37050   0.66420   0.00000  Uiso   1.00
C903   C     0.85228   0.42213   0.65644   0.00000  Uiso   1.00
H904   H     0.87882   0.41453   0.64365   0.00000  Uiso   1.00
H905   H     0.85531   0.44720   0.67412   0.00000  Uiso   1.00
H906   H     0.83310   0.42773   0.63224   0.00000  Uiso   1.00
N907   N     0.65872   0.10316   0.32085   0.00000  Uiso   1.00
H908   H     0.66441   0.12307   0.34091   0.00000  Uiso   1.00
C909   C     0.64133   0.07170   0.33803   0.00000  Uiso   1.00
H910   H     0.61315   0.07858   0.34698   0.00000  Uiso   1.00
H911   H     0.65686   0.06279   0.36408   0.00000  Uiso   1.00
H912   H     0.64066   0.04873   0.31711   0.00000  Uiso   1.00
N913   N     0.64220   0.30274   0.77326   0.00000  Uiso   1.00
H914   H     0.65685   0.30035   0.79868   0.00000  Uiso   1.00
C915   C     0.65266   0.27722   0.74320   0.00000  Uiso   1.00
H916   H     0.68173   0.26977   0.74645   0.00000  Uiso   1.00
H917   H     0.64830   0.28861   0.71353   0.00000  Uiso   1.00
H918   H     0.63621   0.25210   0.74628   0.00000  Uiso   1.00
N919   N     0.89324   0.16159   0.32023   0.00000  Uiso   1.00
H920   H     0.87242   0.16848   0.33876   0.00000  Uiso   1.00
C921   C     0.92342   0.14435   0.34008   0.00000  Uiso   1.00
H922   H     0.91567   0.11663   0.35002   0.00000  Uiso   1.00
H923   H     0.93115   0.16083   0.36581   0.00000  Uiso   1.00
H924   H     0.94739   0.14244   0.32059   0.00000  Uiso   1.00
N925   N     0.66134   0.10704   0.67984   0.00000  Uiso   1.00
H926   H     0.66956   0.12910   0.66353   0.00000  Uiso   1.00
C927   C     0.64730   0.07718   0.65715   0.00000  Uiso   1.00
H928   H     0.62063   0.08440   0.64435   0.00000  Uiso   1.00
H929   H     0.64455   0.05234   0.67543   0.00000  Uiso   1.00
H930   H     0.66637   0.07133   0.63298   0.00000  Uiso   1.00
N931   N     0.80282   0.35558   0.26813   0.00000  Uiso   1.00
H932   H     0.79291   0.33366   0.25286   0.00000  Uiso   1.00
C933   C     0.79640   0.35249   0.30962   0.00000  Uiso   1.00
H934   H     0.81297   0.33022   0.32247   0.00000  Uiso   1.00
H935   H     0.76736   0.34645   0.31503   0.00000  Uiso   1.00
H936   H     0.80333   0.37829   0.32461   0.00000  Uiso   1.00
N937   N     0.85620   0.30047   0.25587   0.00000  Uiso   1.00
H938   H     0.83579   0.29340   0.27486   0.00000  Uiso   1.00
C939   C     0.85226   0.28369   0.21809   0.00000  Uiso   1.00
H940   H     0.84735   0.25407   0.22179   0.00000  Uiso   1.00
H941   H     0.87739   0.28718   0.20059   0.00000  Uiso   1.00
H942   H     0.82891   0.29593   0.20223   0.00000  Uiso   1.00
N943   N     0.60044   0.15598   0.67831   0.00000  Uiso   1.00
H944   H     0.61903   0.15839   0.65613   0.00000  Uiso   1.00
C945   C     0.56582   0.14190   0.66520   0.00000  Uiso   1.00
H946   H     0.55860   0.15471   0.63696   0.00000  Uiso   1.00
H947   H     0.54395   0.14825   0.68629   0.00000  Uiso   1.00
H948   H     0.56720   0.11198   0.66128   0.00000  Uiso   1.00
N949   N     0.83249   0.11397   0.31782   0.00000  Uiso   1.00
H950   H     0.84709   0.11073   0.34318   0.00000  Uiso   1.00
C951   C     0.80212   0.13886   0.32186   0.00000  Uiso   1.00
H952   H     0.78504   0.13027   0.34684   0.00000  Uiso   1.00
H953   H     0.78502   0.13883   0.29524   0.00000  Uiso   1.00
H954   H     0.81172   0.16702   0.32708   0.00000  Uiso   1.00
N955   N     0.69735   0.35761   0.77168   0.00000  Uiso   1.00
H956   H     0.70040   0.34301   0.79712   0.00000  Uiso   1.00
C957   C     0.72157   0.34645   0.74070   0.00000  Uiso   1.00
H958   H     0.74791   0.36078   0.74404   0.00000  Uiso   1.00
H959   H     0.71026   0.35307   0.71148   0.00000  Uiso   1.00
H960   H     0.72666   0.31668   0.74244   0.00000  Uiso   1.00
N961   N     0.60970   0.16323   0.31962   0.00000  Uiso   1.00
H962   H     0.60536   0.14700   0.34368   0.00000  Uiso   1.00
C963   C     0.63351   0.19368   0.32744   0.00000  Uiso   1.00
H964   H     0.62180   0.21045   0.35116   0.00000  Uiso   1.00
H965   H     0.63658   0.21105   0.30116   0.00000  Uiso   1.00
H966   H     0.66083   0.18413   0.33653   0.00000  Uiso   1.00
N967   N     0.89948   0.34430   0.67829   0.00000  Uiso   1.00
H968   H     0.88093   0.34224   0.65602   0.00000  Uiso   1.00
C969   C     0.93426   0.35820   0.66531   0.00000  Uiso   1.00
H970   H     0.94171   0.34522   0.63731   0.00000  Uiso   1.00
H971   H     0.95597   0.35189   0.68667   0.00000  Uiso   1.00
H972   H     0.93301   0.38811   0.66103   0.00000  Uiso   1.00
N973   N     0.69843   0.35383   0.26067   0.00000  Uiso   1.00
H974   H     0.71211   0.36251   0.28503   0.00000  Uiso   1.00
C975   C     0.71927   0.35211   0.22499   0.00000  Uiso   1.00
H976   H     0.73432   0.32595   0.22413   0.00000  Uiso   1.00
H977   H     0.73892   0.37497   0.22379   0.00000  Uiso   1.00
H978   H     0.70151   0.35345   0.19883   0.00000  Uiso   1.00
N979   N     0.82463   0.12217   0.68770   0.00000  Uiso   1.00
H980   H     0.81460   0.14631   0.67678   0.00000  Uiso   1.00
C981   C     0.83667   0.09735   0.65776   0.00000  Uiso   1.00
H982   H     0.81563   0.09581   0.63470   0.00000  Uiso   1.00
H983   H     0.84097   0.06969   0.67004   0.00000  Uiso   1.00
H984   H     0.86251   0.10678   0.64461   0.00000  Uiso   1.00
C985   C     0.96880   0.31112   0.39717   0.00000  Uiso   1.00
H986   H     0.94594   0.29889   0.38080   0.00000  Uiso   1.00
H987   H     0.95558   0.33051   0.41727   0.00000  Uiso   1.00
H988   H     0.98674   0.32584   0.37650   0.00000  Uiso   1.00
C989   C     0.97651   0.18577   0.60311   0.00000  Uiso   1.00
H990   H     0.95354   0.19586   0.62070   0.00000  Uiso   1.00
H991   H     0.96419   0.16567   0.58318   0.00000  Uiso   1.00
H992   H     0.99635   0.17242   0.62281   0.00000  Uiso   1.00
C993   C     0.71121   0.44231   0.39982   0.00000  Uiso   1.00
H994   H     0.73336   0.42629   0.38622   0.00000  Uiso   1.00
H995   H     0.69893   0.42286   0.42058   0.00000  Uiso   1.00
H996   H     0.69082   0.45028   0.37754   0.00000  Uiso   1.00
C997   C     0.81804   0.00746   0.60332   0.00000  Uiso   1.00
H998   H     0.81693   0.48934   0.62906   0.00000  Uiso   1.00
H999   H     0.83929   0.49574   0.58416   0.00000  Uiso   1.00
H1000  H     0.82620   0.03455   0.61381   0.00000  Uiso   1.00
C1001  C     0.53132   0.18870   0.39710   0.00000  Uiso   1.00
H1002  H     0.55404   0.20085   0.38039   0.00000  Uiso   1.00
H1003  H     0.54474   0.16925   0.41712   0.00000  Uiso   1.00
H1004  H     0.51311   0.17404   0.37674   0.00000  Uiso   1.00
C1005  C     0.52568   0.31358   0.60295   0.00000  Uiso   1.00
H1006  H     0.54909   0.30322   0.62006   0.00000  Uiso   1.00
H1007  H     0.53767   0.33390   0.58293   0.00000  Uiso   1.00
H1008  H     0.50621   0.32687   0.62306   0.00000  Uiso   1.00
C1009  C     0.78793   0.05780   0.39991   0.00000  Uiso   1.00
H1010  H     0.76565   0.07374   0.38633   0.00000  Uiso   1.00
H1011  H     0.80006   0.07715   0.42076   0.00000  Uiso   1.00
H1012  H     0.80841   0.05018   0.37765   0.00000  Uiso   1.00
C1013  C     0.68275   0.48817   0.60462   0.00000  Uiso   1.00
H1014  H     0.68185   0.00987   0.62687   0.00000  Uiso   1.00
H1015  H     0.65928   0.49386   0.58535   0.00000  Uiso   1.00
H1016  H     0.67953   0.46174   0.61993   0.00000  Uiso   1.00
C1017  C     0.71492   0.05930   0.89665   0.00000  Uiso   1.00
H1018  H     0.69298   0.04587   0.88002   0.00000  Uiso   1.00
H1019  H     0.70025   0.07784   0.91650   0.00000  Uiso   1.00
H1020  H     0.73226   0.07511   0.87631   0.00000  Uiso   1.00
C1021  C     0.73237   0.43437   0.10360   0.00000  Uiso   1.00
H1022  H     0.70855   0.44200   0.12162   0.00000  Uiso   1.00
H1023  H     0.72196   0.41317   0.08372   0.00000  Uiso   1.00
H1024  H     0.75372   0.42298   0.12296   0.00000  Uiso   1.00
C1025  C     0.94550   0.20863   0.89846   0.00000  Uiso   1.00
H1026  H     0.96126   0.18712   0.88341   0.00000  Uiso   1.00
H1027  H     0.92802   0.19333   0.91890   0.00000  Uiso   1.00
H1028  H     0.92853   0.22350   0.87692   0.00000  Uiso   1.00
C1029  C     0.56879   0.24658   0.10486   0.00000  Uiso   1.00
H1030  H     0.56423   0.23111   0.13201   0.00000  Uiso   1.00
H1031  H     0.58797   0.22974   0.08770   0.00000  Uiso   1.00
H1032  H     0.58116   0.27273   0.11372   0.00000  Uiso   1.00
C1033  C     0.78663   0.44182   0.89788   0.00000  Uiso   1.00
H1034  H     0.80857   0.45587   0.88176   0.00000  Uiso   1.00
H1035  H     0.80131   0.42352   0.91812   0.00000  Uiso   1.00
H1036  H     0.77011   0.42571   0.87714   0.00000  Uiso   1.00
C1037  C     0.76266   0.06810   0.10351   0.00000  Uiso   1.00
H1038  H     0.77620   0.06189   0.13135   0.00000  Uiso   1.00
H1039  H     0.78271   0.08368   0.08607   0.00000  Uiso   1.00
H1040  H     0.73910   0.08524   0.11106   0.00000  Uiso   1.00
C1041  C     0.55640   0.28986   0.89688   0.00000  Uiso   1.00
H1042  H     0.57417   0.30543   0.91668   0.00000  Uiso   1.00
H1043  H     0.57307   0.27389   0.87610   0.00000  Uiso   1.00
H1044  H     0.54126   0.31130   0.88090   0.00000  Uiso   1.00
C1045  C     0.93365   0.26523   0.10304   0.00000  Uiso   1.00
H1046  H     0.91210   0.27454   0.08285   0.00000  Uiso   1.00
H1047  H     0.92314   0.24382   0.12278   0.00000  Uiso   1.00
H1048  H     0.94029   0.28959   0.12068   0.00000  Uiso   1.00
Zn1049 Zn    0.20659   0.50000   0.21735   0.00000  Uiso   1.00
Zn1050 Zn    0.29340   0.50000   0.78265   0.00000  Uiso   1.00
Zn1051 Zn    0.00000   0.70659   0.21735   0.00000  Uiso   1.00
Zn1052 Zn    0.00000   0.79340   0.78265   0.00000  Uiso   1.00
Zn1053 Zn    0.29340   0.50000   0.21735   0.00000  Uiso   1.00
Zn1054 Zn    0.20659   0.50000   0.78265   0.00000  Uiso   1.00
Zn1055 Zn    0.00000   0.79340   0.21735   0.00000  Uiso   1.00
Zn1056 Zn    0.00000   0.70659   0.78265   0.00000  Uiso   1.00
Zn1057 Zn    0.45659   0.75000   0.71735   0.00000  Uiso   1.00
Zn1058 Zn    0.04340   0.75000   0.28265   0.00000  Uiso   1.00
Zn1059 Zn    0.25000   0.95660   0.71735   0.00000  Uiso   1.00
Zn1060 Zn    0.25000   0.54341   0.28265   0.00000  Uiso   1.00
Zn1061 Zn    0.04340   0.75000   0.71735   0.00000  Uiso   1.00
Zn1062 Zn    0.45659   0.75000   0.28265   0.00000  Uiso   1.00
Zn1063 Zn    0.25000   0.54341   0.71735   0.00000  Uiso   1.00
Zn1064 Zn    0.25000   0.95660   0.28265   0.00000  Uiso   1.00
C1065  C     0.48992   0.78157   0.41839   0.00000  Uiso   1.00
C1066  C     0.49392   0.71735   0.58169   0.00000  Uiso   1.00
C1067  C     0.22687   0.97578   0.41950   0.00000  Uiso   1.00
C1068  C     0.28183   0.50925   0.58223   0.00000  Uiso   1.00
C1069  C     0.01052   0.71829   0.41844   0.00000  Uiso   1.00
C1070  C     0.00754   0.78240   0.58158   0.00000  Uiso   1.00
C1071  C     0.27246   0.52408   0.41947   0.00000  Uiso   1.00
C1072  C     0.21845   0.98926   0.58248   0.00000  Uiso   1.00
C1073  C     0.23738   0.53096   0.91819   0.00000  Uiso   1.00
C1074  C     0.24654   0.96755   0.08193   0.00000  Uiso   1.00
C1075  C     0.47116   0.73462   0.91896   0.00000  Uiso   1.00
C1076  C     0.03382   0.75289   0.08230   0.00000  Uiso   1.00
C1077  C     0.26307   0.96956   0.91877   0.00000  Uiso   1.00
C1078  C     0.25126   0.53400   0.08187   0.00000  Uiso   1.00
C1079  C     0.03008   0.76515   0.91839   0.00000  Uiso   1.00
C1080  C     0.46738   0.75200   0.08183   0.00000  Uiso   1.00
C1081  C     0.00009   0.74993   0.39816   0.00000  Uiso   1.00
C1082  C     0.00028   0.74996   0.60185   0.00000  Uiso   1.00
C1083  C     0.24973   0.99993   0.39877   0.00000  Uiso   1.00
C1084  C     0.25005   0.99975   0.60229   0.00000  Uiso   1.00
C1085  C     0.25008   0.50011   0.89819   0.00000  Uiso   1.00
C1086  C     0.24967   0.50058   0.10199   0.00000  Uiso   1.00
C1087  C     0.00048   0.74985   0.89832   0.00000  Uiso   1.00
C1088  C     0.00041   0.75085   0.10207   0.00000  Uiso   1.00
O1089  O     0.25000   0.50000   0.25000   0.00000  Uiso   1.00
O1090  O     0.25000   0.50000   0.75000   0.00000  Uiso   1.00
O1091  O     0.00000   0.75000   0.25000   0.00000  Uiso   1.00
O1092  O     0.00000   0.75000   0.75000   0.00000  Uiso   1.00
O1093  O     0.25000   0.96964   0.33755   0.00000  Uiso   1.00
O1094  O     0.25000   0.53037   0.66245   0.00000  Uiso   1.00
O1095  O     0.03036   0.75000   0.33755   0.00000  Uiso   1.00
O1096  O     0.46963   0.75000   0.66245   0.00000  Uiso   1.00
O1097  O     0.25000   0.53037   0.33755   0.00000  Uiso   1.00
O1098  O     0.25000   0.96964   0.66245   0.00000  Uiso   1.00
O1099  O     0.46963   0.75000   0.33755   0.00000  Uiso   1.00
O1100  O     0.03036   0.75000   0.66245   0.00000  Uiso   1.00
O1101  O    -0.00000   0.71964   0.83755   0.00000  Uiso   1.00
O1102  O     0.00000   0.78036   0.16245   0.00000  Uiso   1.00
O1103  O     0.28036   0.50000   0.83755   0.00000  Uiso   1.00
O1104  O     0.21963   0.50000   0.16245   0.00000  Uiso   1.00
O1105  O     0.00000   0.78036   0.83755   0.00000  Uiso   1.00
O1106  O    -0.00000   0.71964   0.16245   0.00000  Uiso   1.00
O1107  O     0.21963   0.50000   0.83755   0.00000  Uiso   1.00
O1108  O     0.28036   0.50000   0.16245   0.00000  Uiso   1.00
O1109  O     0.20724   0.57308   0.27302   0.00000  Uiso   1.00
O1110  O     0.29275   0.92693   0.72698   0.00000  Uiso   1.00
O1111  O     0.42692   0.70725   0.27302   0.00000  Uiso   1.00
O1112  O     0.07307   0.79275   0.72698   0.00000  Uiso   1.00
O1113  O     0.29275   0.92693   0.27302   0.00000  Uiso   1.00
O1114  O     0.20724   0.57308   0.72698   0.00000  Uiso   1.00
O1115  O     0.07307   0.79275   0.27302   0.00000  Uiso   1.00
O1116  O     0.42692   0.70725   0.72698   0.00000  Uiso   1.00
O1117  O     0.20724   0.92693   0.72698   0.00000  Uiso   1.00
O1118  O     0.29275   0.57308   0.27302   0.00000  Uiso   1.00
O1119  O     0.42692   0.79276   0.72698   0.00000  Uiso   1.00
O1120  O     0.07307   0.70725   0.27302   0.00000  Uiso   1.00
O1121  O     0.29275   0.57308   0.72698   0.00000  Uiso   1.00
O1122  O     0.20724   0.92693   0.27302   0.00000  Uiso   1.00
O1123  O     0.07307   0.70725   0.72698   0.00000  Uiso   1.00
O1124  O     0.42692   0.79276   0.27302   0.00000  Uiso   1.00
O1125  O     0.45724   0.82308   0.77302   0.00000  Uiso   1.00
O1126  O     0.04275   0.67692   0.22698   0.00000  Uiso   1.00
O1127  O     0.17692   0.95725   0.77302   0.00000  Uiso   1.00
O1128  O     0.32307   0.54276   0.22698   0.00000  Uiso   1.00
O1129  O     0.04275   0.67692   0.77302   0.00000  Uiso   1.00
O1130  O     0.45724   0.82308   0.22698   0.00000  Uiso   1.00
O1131  O     0.32307   0.54276   0.77302   0.00000  Uiso   1.00
O1132  O     0.17692   0.95725   0.22698   0.00000  Uiso   1.00
O1133  O     0.45724   0.67693   0.22698   0.00000  Uiso   1.00
O1134  O     0.04275   0.82307   0.77302   0.00000  Uiso   1.00
O1135  O     0.17692   0.54276   0.22698   0.00000  Uiso   1.00
O1136  O     0.32307   0.95725   0.77302   0.00000  Uiso   1.00
O1137  O     0.04275   0.82307   0.22698   0.00000  Uiso   1.00
O1138  O     0.45724   0.67693   0.77302   0.00000  Uiso   1.00
O1139  O     0.32307   0.95725   0.22698   0.00000  Uiso   1.00
O1140  O     0.17692   0.54276   0.77302   0.00000  Uiso   1.00
C1141  C     0.00234   0.68327   0.47977   0.00000  Uiso   1.00
C1142  C     0.49614   0.81651   0.52018   0.00000  Uiso   1.00
C1143  C     0.30840   0.53094   0.47986   0.00000  Uiso   1.00
C1144  C     0.19307   0.96477   0.52091   0.00000  Uiso   1.00
C1145  C     0.49886   0.81660   0.47941   0.00000  Uiso   1.00
C1146  C     0.00553   0.68338   0.52049   0.00000  Uiso   1.00
C1147  C     0.19146   0.96809   0.48028   0.00000  Uiso   1.00
C1148  C     0.30746   0.53342   0.52057   0.00000  Uiso   1.00
C1149  C     0.25776   0.93425   0.98021   0.00000  Uiso   1.00
C1150  C     0.23881   0.56664   0.01950   0.00000  Uiso   1.00
C1151  C     0.06583   0.76307   0.97946   0.00000  Uiso   1.00
C1152  C     0.43589   0.73561   0.02061   0.00000  Uiso   1.00
C1153  C     0.24287   0.56664   0.97890   0.00000  Uiso   1.00
C1154  C     0.26110   0.93486   0.02086   0.00000  Uiso   1.00
C1155  C     0.43530   0.73850   0.97991   0.00000  Uiso   1.00
C1156  C     0.06524   0.76782   0.01994   0.00000  Uiso   1.00
C1157  C     0.24990   0.99996   0.35600   0.00000  Uiso   1.00
C1158  C     0.25004   0.50000   0.64443   0.00000  Uiso   1.00
C1159  C     0.00001   0.75000   0.35573   0.00000  Uiso   1.00
C1160  C     0.00004   0.74999   0.64428   0.00000  Uiso   1.00
C1161  C     0.00009   0.74994   0.85582   0.00000  Uiso   1.00
C1162  C     0.49976   0.75016   0.14435   0.00000  Uiso   1.00
C1163  C     0.25002   0.99994   0.85575   0.00000  Uiso   1.00
C1164  C     0.24993   0.50004   0.14433   0.00000  Uiso   1.00
C1165  C     0.17996   0.56985   0.25008   0.00000  Uiso   1.00
C1166  C     0.32015   0.93002   0.75000   0.00000  Uiso   1.00
C1167  C     0.43014   0.67995   0.25015   0.00000  Uiso   1.00
C1168  C     0.07017   0.81981   0.75018   0.00000  Uiso   1.00
C1169  C     0.32015   0.93005   0.25040   0.00000  Uiso   1.00
C1170  C     0.17990   0.57005   0.75003   0.00000  Uiso   1.00
C1171  C     0.07027   0.81990   0.24944   0.00000  Uiso   1.00
C1172  C     0.42979   0.68005   0.75024   0.00000  Uiso   1.00
C1173  C     0.17987   0.93007   0.74993   0.00000  Uiso   1.00
C1174  C     0.32010   0.57008   0.25006   0.00000  Uiso   1.00
C1175  C     0.42999   0.81988   0.75009   0.00000  Uiso   1.00
C1176  C     0.07004   0.67990   0.25009   0.00000  Uiso   1.00
C1177  C     0.31980   0.57023   0.75021   0.00000  Uiso   1.00
C1178  C     0.18003   0.92998   0.24991   0.00000  Uiso   1.00
C1179  C     0.06999   0.68007   0.75007   0.00000  Uiso   1.00
C1180  C     0.43020   0.82018   0.25000   0.00000  Uiso   1.00
C1181  C     0.11641   0.91092   0.23817   0.00000  Uiso   1.00
C1182  C     0.37196   0.60077   0.78218   0.00000  Uiso   1.00
C1183  C     0.10518   0.63182   0.21568   0.00000  Uiso   1.00
C1184  C     0.39180   0.86425   0.78518   0.00000  Uiso   1.00
C1185  C     0.36991   0.60386   0.21651   0.00000  Uiso   1.00
C1186  C     0.11563   0.91121   0.74016   0.00000  Uiso   1.00
C1187  C     0.41203   0.88521   0.24492   0.00000  Uiso   1.00
C1188  C     0.10860   0.63596   0.78527   0.00000  Uiso   1.00
C1189  C     0.13354   0.60703   0.78499   0.00000  Uiso   1.00
C1190  C     0.38502   0.91217   0.24546   0.00000  Uiso   1.00
C1191  C     0.08904   0.88364   0.73846   0.00000  Uiso   1.00
C1192  C     0.39502   0.63248   0.21566   0.00000  Uiso   1.00
C1193  C     0.36693   0.89324   0.78482   0.00000  Uiso   1.00
C1194  C     0.13343   0.60616   0.21508   0.00000  Uiso   1.00
C1195  C     0.40073   0.62551   0.78050   0.00000  Uiso   1.00
C1196  C     0.09065   0.88320   0.23396   0.00000  Uiso   1.00
C1197  C     0.37360   0.65307   0.72204   0.00000  Uiso   1.00
C1198  C     0.13447   0.83894   0.25950   0.00000  Uiso   1.00
C1199  C     0.35802   0.88471   0.71456   0.00000  Uiso   1.00
C1200  C     0.14287   0.61526   0.28511   0.00000  Uiso   1.00
C1201  C     0.13399   0.83889   0.76076   0.00000  Uiso   1.00
C1202  C     0.38288   0.64447   0.28464   0.00000  Uiso   1.00
C1203  C     0.14184   0.61531   0.71456   0.00000  Uiso   1.00
C1204  C     0.33912   0.86527   0.25826   0.00000  Uiso   1.00
C1205  C     0.36576   0.83814   0.25467   0.00000  Uiso   1.00
C1206  C     0.11353   0.64107   0.71419   0.00000  Uiso   1.00
C1207  C     0.35400   0.61965   0.28383   0.00000  Uiso   1.00
C1208  C     0.16097   0.86598   0.76048   0.00000  Uiso   1.00
C1209  C     0.11771   0.64397   0.28468   0.00000  Uiso   1.00
C1210  C     0.38641   0.85903   0.71417   0.00000  Uiso   1.00
C1211  C     0.16165   0.86521   0.25682   0.00000  Uiso   1.00
C1212  C     0.34848   0.62478   0.72034   0.00000  Uiso   1.00
C1213  C     0.00401   0.71663   0.45899   0.00000  Uiso   1.00
C1214  C     0.00097   0.78344   0.54101   0.00000  Uiso   1.00
C1215  C     0.27755   0.51801   0.45966   0.00000  Uiso   1.00
C1216  C     0.22036   0.98377   0.54183   0.00000  Uiso   1.00
C1217  C     0.49694   0.78324   0.45884   0.00000  Uiso   1.00
C1218  C     0.00068   0.71641   0.54117   0.00000  Uiso   1.00
C1219  C     0.22195   0.98156   0.45977   0.00000  Uiso   1.00
C1220  C     0.27983   0.51489   0.54162   0.00000  Uiso   1.00
C1221  C     0.25643   0.96752   0.95927   0.00000  Uiso   1.00
C1222  C     0.24571   0.53417   0.04099   0.00000  Uiso   1.00
C1223  C     0.03274   0.75923   0.95897   0.00000  Uiso   1.00
C1224  C     0.46765   0.74573   0.04134   0.00000  Uiso   1.00
C1225  C     0.24374   0.53319   0.95868   0.00000  Uiso   1.00
C1226  C     0.25294   0.96731   0.04141   0.00000  Uiso   1.00
C1227  C     0.46845   0.74167   0.95930   0.00000  Uiso   1.00
C1228  C     0.03358   0.75821   0.04133   0.00000  Uiso   1.00
C1229  C     0.09878   0.84772   0.24784   0.00000  Uiso   1.00
C1230  C     0.40125   0.65227   0.75071   0.00000  Uiso   1.00
C1231  C     0.15180   0.59772   0.25000   0.00000  Uiso   1.00
C1232  C     0.34895   0.90239   0.74973   0.00000  Uiso   1.00
C1233  C     0.40212   0.65196   0.25009   0.00000  Uiso   1.00
C1234  C     0.09825   0.84788   0.74966   0.00000  Uiso   1.00
C1235  C     0.34850   0.90208   0.25143   0.00000  Uiso   1.00
C1236  C     0.15118   0.59774   0.74981   0.00000  Uiso   1.00
C1237  C     0.09779   0.65183   0.74978   0.00000  Uiso   1.00
C1238  C     0.40222   0.84831   0.24933   0.00000  Uiso   1.00
C1239  C     0.15168   0.90197   0.75020   0.00000  Uiso   1.00
C1240  C     0.34817   0.59848   0.25001   0.00000  Uiso   1.00
C1241  C     0.40225   0.84819   0.74975   0.00000  Uiso   1.00
C1242  C     0.09835   0.65177   0.25005   0.00000  Uiso   1.00
C1243  C     0.34726   0.59888   0.75079   0.00000  Uiso   1.00
C1244  C     0.15229   0.90172   0.24882   0.00000  Uiso   1.00
C1245  C     0.00060   0.74994   0.47950   0.00000  Uiso   1.00
C1246  C     0.00076   0.74993   0.52051   0.00000  Uiso   1.00
C1247  C     0.24980   0.99973   0.48032   0.00000  Uiso   1.00
C1248  C     0.24995   0.99956   0.52125   0.00000  Uiso   1.00
C1249  C     0.24986   0.50045   0.97961   0.00000  Uiso   1.00
C1250  C     0.24951   0.50066   0.02066   0.00000  Uiso   1.00
C1251  C     0.00061   0.75079   0.97976   0.00000  Uiso   1.00
C1252  C     0.00065   0.75145   0.02081   0.00000  Uiso   1.00
C1253  C     0.49132   0.64791   0.46038   0.00000  Uiso   1.00
H1254  H     0.47872   0.65251   0.43149   0.00000  Uiso   1.00
H1255  H     0.01492   0.62925   0.45773   0.00000  Uiso   1.00
H1256  H     0.47011   0.63416   0.47804   0.00000  Uiso   1.00
C1257  C     0.48241   0.85092   0.53965   0.00000  Uiso   1.00
H1258  H     0.47031   0.84535   0.56855   0.00000  Uiso   1.00
H1259  H     0.00448   0.87129   0.54224   0.00000  Uiso   1.00
H1260  H     0.46009   0.86305   0.52213   0.00000  Uiso   1.00
C1261  C     0.34466   0.53611   0.45952   0.00000  Uiso   1.00
H1262  H     0.34525   0.52278   0.43062   0.00000  Uiso   1.00
H1263  H     0.35123   0.56541   0.45620   0.00000  Uiso   1.00
H1264  H     0.36658   0.52295   0.47681   0.00000  Uiso   1.00
C1265  C     0.16907   0.93628   0.53986   0.00000  Uiso   1.00
H1266  H     0.16636   0.91225   0.52058   0.00000  Uiso   1.00
H1267  H     0.18141   0.92535   0.56688   0.00000  Uiso   1.00
H1268  H     0.14151   0.94733   0.54550   0.00000  Uiso   1.00
C1269  C     0.00958   0.85198   0.45963   0.00000  Uiso   1.00
H1270  H     0.02179   0.84739   0.43059   0.00000  Uiso   1.00
H1271  H     0.48591   0.87060   0.45718   0.00000  Uiso   1.00
H1272  H     0.03100   0.86576   0.47688   0.00000  Uiso   1.00
C1273  C     0.01972   0.64906   0.53997   0.00000  Uiso   1.00
H1274  H     0.03219   0.65474   0.56863   0.00000  Uiso   1.00
H1275  H     0.49782   0.62854   0.54302   0.00000  Uiso   1.00
H1276  H     0.04187   0.63705   0.52221   0.00000  Uiso   1.00
C1277  C     0.15498   0.96259   0.46057   0.00000  Uiso   1.00
H1278  H     0.15397   0.97540   0.43133   0.00000  Uiso   1.00
H1279  H     0.14837   0.93323   0.45824   0.00000  Uiso   1.00
H1280  H     0.13332   0.97609   0.47783   0.00000  Uiso   1.00
C1281  C     0.33287   0.56027   0.53997   0.00000  Uiso   1.00
H1282  H     0.31914   0.57396   0.56463   0.00000  Uiso   1.00
H1283  H     0.35830   0.54666   0.54946   0.00000  Uiso   1.00
H1284  H     0.34024   0.58275   0.51987   0.00000  Uiso   1.00
C1285  C     0.24989   0.89792   0.96110   0.00000  Uiso   1.00
H1286  H     0.23718   0.90121   0.93207   0.00000  Uiso   1.00
H1287  H     0.27499   0.88129   0.95879   0.00000  Uiso   1.00
H1288  H     0.22981   0.88258   0.97878   0.00000  Uiso   1.00
C1289  C     0.22171   0.60001   0.03785   0.00000  Uiso   1.00
H1290  H     0.20213   0.59187   0.06077   0.00000  Uiso   1.00
H1291  H     0.24276   0.61868   0.04925   0.00000  Uiso   1.00
H1292  H     0.20510   0.61546   0.01649   0.00000  Uiso   1.00
C1293  C     0.10221   0.75546   0.96030   0.00000  Uiso   1.00
H1294  H     0.11862   0.73714   0.97917   0.00000  Uiso   1.00
H1295  H     0.09904   0.74094   0.93226   0.00000  Uiso   1.00
H1296  H     0.11773   0.78095   0.95566   0.00000  Uiso   1.00
C1297  C     0.40419   0.71656   0.04011   0.00000  Uiso   1.00
H1298  H     0.39577   0.69270   0.02256   0.00000  Uiso   1.00
H1299  H     0.41167   0.70524   0.06889   0.00000  Uiso   1.00
H1300  H     0.38061   0.73523   0.04287   0.00000  Uiso   1.00
C1301  C     0.25311   0.60222   0.95916   0.00000  Uiso   1.00
H1302  H     0.26757   0.59759   0.93130   0.00000  Uiso   1.00
H1303  H     0.22886   0.61955   0.95407   0.00000  Uiso   1.00
H1304  H     0.27237   0.61754   0.97781   0.00000  Uiso   1.00
C1305  C     0.27885   0.90225   0.04037   0.00000  Uiso   1.00
H1306  H     0.29088   0.90928   0.06891   0.00000  Uiso   1.00
H1307  H     0.25920   0.87959   0.04363   0.00000  Uiso   1.00
H1308  H     0.30201   0.89252   0.02246   0.00000  Uiso   1.00
C1309  C     0.39876   0.74398   0.96024   0.00000  Uiso   1.00
H1310  H     0.40145   0.75633   0.93092   0.00000  Uiso   1.00
H1311  H     0.38374   0.71789   0.95834   0.00000  Uiso   1.00
H1312  H     0.38214   0.76351   0.97728   0.00000  Uiso   1.00
C1313  C     0.09646   0.78867   0.03798   0.00000  Uiso   1.00
H1314  H     0.08647   0.80709   0.06113   0.00000  Uiso   1.00
H1315  H     0.11779   0.76991   0.04894   0.00000  Uiso   1.00
H1316  H     0.10928   0.80715   0.01642   0.00000  Uiso   1.00
N1317  N     0.10575   0.94818   0.23427   0.00000  Uiso   1.00
H1318  H     0.08371   0.95568   0.25095   0.00000  Uiso   1.00
C1319  C     0.10526   0.96338   0.19531   0.00000  Uiso   1.00
H1320  H     0.07731   0.96268   0.18323   0.00000  Uiso   1.00
H1321  H     0.12401   0.94848   0.17560   0.00000  Uiso   1.00
H1322  H     0.11408   0.99223   0.19656   0.00000  Uiso   1.00
N1323  N     0.36752   0.57798   0.81559   0.00000  Uiso   1.00
H1324  H     0.39096   0.56758   0.82764   0.00000  Uiso   1.00
C1325  C     0.34237   0.59193   0.84428   0.00000  Uiso   1.00
H1326  H     0.35309   0.61737   0.85733   0.00000  Uiso   1.00
H1327  H     0.33859   0.57139   0.86770   0.00000  Uiso   1.00
H1328  H     0.31547   0.59752   0.83085   0.00000  Uiso   1.00
N1329  N     0.08277   0.63697   0.18226   0.00000  Uiso   1.00
H1330  H     0.07214   0.61355   0.17045   0.00000  Uiso   1.00
C1331  C     0.09570   0.66285   0.15380   0.00000  Uiso   1.00
H1332  H     0.11903   0.65157   0.13749   0.00000  Uiso   1.00
H1333  H     0.10367   0.68873   0.16808   0.00000  Uiso   1.00
H1334  H     0.07365   0.66844   0.13261   0.00000  Uiso   1.00
N1335  N     0.40606   0.85056   0.82104   0.00000  Uiso   1.00
H1336  H     0.41103   0.86959   0.84226   0.00000  Uiso   1.00
C1337  C     0.38766   0.81865   0.83592   0.00000  Uiso   1.00
H1338  H     0.35920   0.82550   0.84381   0.00000  Uiso   1.00
H1339  H     0.40199   0.80854   0.86227   0.00000  Uiso   1.00
H1340  H     0.38767   0.79654   0.81396   0.00000  Uiso   1.00
N1341  N     0.36727   0.57962   0.18434   0.00000  Uiso   1.00
H1342  H     0.39159   0.56871   0.17509   0.00000  Uiso   1.00
C1343  C     0.34363   0.59102   0.15307   0.00000  Uiso   1.00
H1344  H     0.35649   0.61272   0.13547   0.00000  Uiso   1.00
H1345  H     0.31725   0.60086   0.16475   0.00000  Uiso   1.00
H1346  H     0.33881   0.56748   0.13363   0.00000  Uiso   1.00
N1347  N     0.10716   0.94770   0.72906   0.00000  Uiso   1.00
H1348  H     0.09185   0.94989   0.70405   0.00000  Uiso   1.00
C1349  C     0.09367   0.97058   0.76014   0.00000  Uiso   1.00
H1350  H     0.06594   0.96223   0.76897   0.00000  Uiso   1.00
H1351  H     0.09265   0.99927   0.74995   0.00000  Uiso   1.00
H1352  H     0.11160   0.96910   0.78603   0.00000  Uiso   1.00
N1353  N     0.44925   0.89507   0.24070   0.00000  Uiso   1.00
H1354  H     0.45837   0.91479   0.25958   0.00000  Uiso   1.00
C1355  C     0.46199   0.89947   0.20106   0.00000  Uiso   1.00
H1356  H     0.47418   0.92683   0.19703   0.00000  Uiso   1.00
H1357  H     0.43983   0.89583   0.17942   0.00000  Uiso   1.00
H1358  H     0.48322   0.87888   0.19521   0.00000  Uiso   1.00
N1359  N     0.09475   0.64991   0.82109   0.00000  Uiso   1.00
H1360  H     0.09017   0.63107   0.84273   0.00000  Uiso   1.00
C1361  C     0.11317   0.68206   0.83515   0.00000  Uiso   1.00
H1362  H     0.14176   0.67542   0.84279   0.00000  Uiso   1.00
H1363  H     0.09911   0.69237   0.86149   0.00000  Uiso   1.00
H1364  H     0.11282   0.70396   0.81279   0.00000  Uiso   1.00
N1365  N     0.14282   0.58882   0.82035   0.00000  Uiso   1.00
H1366  H     0.14844   0.60589   0.84332   0.00000  Uiso   1.00
C1367  C     0.11861   0.55932   0.83088   0.00000  Uiso   1.00
H1368  H     0.12966   0.54460   0.85653   0.00000  Uiso   1.00
H1369  H     0.11591   0.53969   0.80659   0.00000  Uiso   1.00
H1370  H     0.09119   0.56978   0.83826   0.00000  Uiso   1.00
N1371  N     0.39473   0.94972   0.24308   0.00000  Uiso   1.00
H1372  H     0.41414   0.95826   0.26262   0.00000  Uiso   1.00
C1373  C     0.39859   0.96504   0.20439   0.00000  Uiso   1.00
H1374  H     0.38346   0.99116   0.20280   0.00000  Uiso   1.00
H1375  H     0.38778   0.94648   0.18166   0.00000  Uiso   1.00
H1376  H     0.42756   0.97085   0.19819   0.00000  Uiso   1.00
N1377  N     0.05309   0.89132   0.72515   0.00000  Uiso   1.00
H1378  H     0.04306   0.91657   0.73236   0.00000  Uiso   1.00
C1379  C     0.04658   0.88225   0.68480   0.00000  Uiso   1.00
H1380  H     0.01762   0.88736   0.67757   0.00000  Uiso   1.00
H1381  H     0.05250   0.85306   0.67937   0.00000  Uiso   1.00
H1382  H     0.06381   0.89926   0.66548   0.00000  Uiso   1.00
N1383  N     0.41296   0.64204   0.18020   0.00000  Uiso   1.00
H1384  H     0.41825   0.62114   0.16115   0.00000  Uiso   1.00
C1385  C     0.39908   0.67443   0.16113   0.00000  Uiso   1.00
H1386  H     0.41467   0.67931   0.13402   0.00000  Uiso   1.00
H1387  H     0.40206   0.69865   0.18004   0.00000  Uiso   1.00
H1388  H     0.36994   0.67119   0.15369   0.00000  Uiso   1.00
N1389  N     0.35807   0.91165   0.82006   0.00000  Uiso   1.00
H1390  H     0.35276   0.89475   0.84335   0.00000  Uiso   1.00
C1391  C     0.38229   0.94133   0.82982   0.00000  Uiso   1.00
H1392  H     0.37138   0.95630   0.85527   0.00000  Uiso   1.00
H1393  H     0.38481   0.96072   0.80513   0.00000  Uiso   1.00
H1394  H     0.40977   0.93098   0.83723   0.00000  Uiso   1.00
N1395  N     0.14350   0.58881   0.17949   0.00000  Uiso   1.00
H1396  H     0.12299   0.58442   0.15972   0.00000  Uiso   1.00
C1397  C     0.17645   0.60230   0.16160   0.00000  Uiso   1.00
H1398  H     0.18021   0.58882   0.13307   0.00000  Uiso   1.00
H1399  H     0.20047   0.59616   0.17998   0.00000  Uiso   1.00
H1400  H     0.17492   0.63216   0.15696   0.00000  Uiso   1.00
N1401  N     0.42797   0.62483   0.81005   0.00000  Uiso   1.00
H1402  H     0.41839   0.62288   0.83814   0.00000  Uiso   1.00
C1403  C     0.45818   0.60060   0.80221   0.00000  Uiso   1.00
H1404  H     0.47938   0.60426   0.82484   0.00000  Uiso   1.00
H1405  H     0.47040   0.60680   0.77340   0.00000  Uiso   1.00
H1406  H     0.44919   0.57179   0.80251   0.00000  Uiso   1.00
N1407  N     0.05757   0.89056   0.21379   0.00000  Uiso   1.00
H1408  H     0.04543   0.91507   0.22034   0.00000  Uiso   1.00
C1409  C     0.05984   0.88393   0.17224   0.00000  Uiso   1.00
H1410  H     0.03375   0.89104   0.15797   0.00000  Uiso   1.00
H1411  H     0.06589   0.85484   0.16640   0.00000  Uiso   1.00
H1412  H     0.08152   0.90062   0.15877   0.00000  Uiso   1.00
N1413  N     0.36994   0.68321   0.69603   0.00000  Uiso   1.00
H1414  H     0.34495   0.69592   0.69596   0.00000  Uiso   1.00
C1415  C     0.38643   0.67959   0.65807   0.00000  Uiso   1.00
H1416  H     0.36598   0.67050   0.63650   0.00000  Uiso   1.00
H1417  H     0.40957   0.66008   0.65874   0.00000  Uiso   1.00
H1418  H     0.39655   0.70663   0.64866   0.00000  Uiso   1.00
N1419  N     0.14365   0.80306   0.27199   0.00000  Uiso   1.00
H1420  H     0.16507   0.79174   0.25691   0.00000  Uiso   1.00
C1421  C     0.14797   0.79958   0.31371   0.00000  Uiso   1.00
H1422  H     0.17099   0.81651   0.32404   0.00000  Uiso   1.00
H1423  H     0.15376   0.77084   0.32136   0.00000  Uiso   1.00
H1424  H     0.12271   0.80810   0.32887   0.00000  Uiso   1.00
N1425  N     0.33817   0.89274   0.67995   0.00000  Uiso   1.00
H1426  H     0.32972   0.87050   0.66420   0.00000  Uiso   1.00
C1427  C     0.35228   0.92213   0.65644   0.00000  Uiso   1.00
H1428  H     0.37882   0.91453   0.64365   0.00000  Uiso   1.00
H1429  H     0.35531   0.94720   0.67412   0.00000  Uiso   1.00
H1430  H     0.33310   0.92773   0.63224   0.00000  Uiso   1.00
N1431  N     0.15872   0.60316   0.32085   0.00000  Uiso   1.00
H1432  H     0.16441   0.62307   0.34091   0.00000  Uiso   1.00
C1433  C     0.14133   0.57170   0.33803   0.00000  Uiso   1.00
H1434  H     0.11315   0.57858   0.34698   0.00000  Uiso   1.00
H1435  H     0.15686   0.56279   0.36408   0.00000  Uiso   1.00
H1436  H     0.14066   0.54873   0.31711   0.00000  Uiso   1.00
N1437  N     0.14220   0.80274   0.77326   0.00000  Uiso   1.00
H1438  H     0.15685   0.80035   0.79868   0.00000  Uiso   1.00
C1439  C     0.15266   0.77722   0.74320   0.00000  Uiso   1.00
H1440  H     0.18173   0.76977   0.74645   0.00000  Uiso   1.00
H1441  H     0.14830   0.78861   0.71353   0.00000  Uiso   1.00
H1442  H     0.13621   0.75210   0.74628   0.00000  Uiso   1.00
N1443  N     0.39324   0.66159   0.32023   0.00000  Uiso   1.00
H1444  H     0.37242   0.66848   0.33876   0.00000  Uiso   1.00
C1445  C     0.42342   0.64435   0.34008   0.00000  Uiso   1.00
H1446  H     0.41567   0.61663   0.35002   0.00000  Uiso   1.00
H1447  H     0.43115   0.66083   0.36581   0.00000  Uiso   1.00
H1448  H     0.44739   0.64244   0.32059   0.00000  Uiso   1.00
N1449  N     0.16134   0.60704   0.67984   0.00000  Uiso   1.00
H1450  H     0.16956   0.62910   0.66353   0.00000  Uiso   1.00
C1451  C     0.14730   0.57718   0.65715   0.00000  Uiso   1.00
H1452  H     0.12063   0.58440   0.64435   0.00000  Uiso   1.00
H1453  H     0.14455   0.55234   0.67543   0.00000  Uiso   1.00
H1454  H     0.16637   0.57133   0.63298   0.00000  Uiso   1.00
N1455  N     0.30282   0.85558   0.26813   0.00000  Uiso   1.00
H1456  H     0.29291   0.83366   0.25286   0.00000  Uiso   1.00
C1457  C     0.29640   0.85249   0.30962   0.00000  Uiso   1.00
H1458  H     0.31297   0.83022   0.32247   0.00000  Uiso   1.00
H1459  H     0.26736   0.84645   0.31503   0.00000  Uiso   1.00
H1460  H     0.30333   0.87829   0.32461   0.00000  Uiso   1.00
N1461  N     0.35620   0.80047   0.25587   0.00000  Uiso   1.00
H1462  H     0.33579   0.79340   0.27486   0.00000  Uiso   1.00
C1463  C     0.35226   0.78369   0.21809   0.00000  Uiso   1.00
H1464  H     0.34735   0.75407   0.22179   0.00000  Uiso   1.00
H1465  H     0.37739   0.78718   0.20059   0.00000  Uiso   1.00
H1466  H     0.32891   0.79593   0.20223   0.00000  Uiso   1.00
N1467  N     0.10044   0.65598   0.67831   0.00000  Uiso   1.00
H1468  H     0.11903   0.65839   0.65613   0.00000  Uiso   1.00
C1469  C     0.06582   0.64190   0.66520   0.00000  Uiso   1.00
H1470  H     0.05860   0.65471   0.63696   0.00000  Uiso   1.00
H1471  H     0.04395   0.64825   0.68629   0.00000  Uiso   1.00
H1472  H     0.06720   0.61198   0.66128   0.00000  Uiso   1.00
N1473  N     0.33249   0.61397   0.31782   0.00000  Uiso   1.00
H1474  H     0.34709   0.61073   0.34318   0.00000  Uiso   1.00
C1475  C     0.30212   0.63886   0.32186   0.00000  Uiso   1.00
H1476  H     0.28504   0.63027   0.34684   0.00000  Uiso   1.00
H1477  H     0.28502   0.63883   0.29524   0.00000  Uiso   1.00
H1478  H     0.31172   0.66702   0.32708   0.00000  Uiso   1.00
N1479  N     0.19735   0.85761   0.77168   0.00000  Uiso   1.00
H1480  H     0.20040   0.84301   0.79712   0.00000  Uiso   1.00
C1481  C     0.22157   0.84645   0.74070   0.00000  Uiso   1.00
H1482  H     0.24791   0.86078   0.74404   0.00000  Uiso   1.00
H1483  H     0.21026   0.85307   0.71148   0.00000  Uiso   1.00
H1484  H     0.22666   0.81668   0.74244   0.00000  Uiso   1.00
N1485  N     0.10970   0.66323   0.31962   0.00000  Uiso   1.00
H1486  H     0.10536   0.64700   0.34368   0.00000  Uiso   1.00
C1487  C     0.13351   0.69368   0.32744   0.00000  Uiso   1.00
H1488  H     0.12180   0.71045   0.35116   0.00000  Uiso   1.00
H1489  H     0.13658   0.71105   0.30116   0.00000  Uiso   1.00
H1490  H     0.16083   0.68413   0.33653   0.00000  Uiso   1.00
N1491  N     0.39948   0.84430   0.67829   0.00000  Uiso   1.00
H1492  H     0.38093   0.84224   0.65602   0.00000  Uiso   1.00
C1493  C     0.43426   0.85820   0.66531   0.00000  Uiso   1.00
H1494  H     0.44171   0.84522   0.63731   0.00000  Uiso   1.00
H1495  H     0.45597   0.85189   0.68667   0.00000  Uiso   1.00
H1496  H     0.43301   0.88811   0.66103   0.00000  Uiso   1.00
N1497  N     0.19843   0.85383   0.26067   0.00000  Uiso   1.00
H1498  H     0.21211   0.86251   0.28503   0.00000  Uiso   1.00
C1499  C     0.21927   0.85211   0.22499   0.00000  Uiso   1.00
H1500  H     0.23432   0.82595   0.22413   0.00000  Uiso   1.00
H1501  H     0.23892   0.87497   0.22379   0.00000  Uiso   1.00
H1502  H     0.20151   0.85345   0.19883   0.00000  Uiso   1.00
N1503  N     0.32463   0.62217   0.68770   0.00000  Uiso   1.00
H1504  H     0.31460   0.64631   0.67678   0.00000  Uiso   1.00
C1505  C     0.33667   0.59735   0.65776   0.00000  Uiso   1.00
H1506  H     0.31563   0.59581   0.63470   0.00000  Uiso   1.00
H1507  H     0.34097   0.56969   0.67004   0.00000  Uiso   1.00
H1508  H     0.36251   0.60678   0.64461   0.00000  Uiso   1.00
C1509  C     0.46880   0.81112   0.39717   0.00000  Uiso   1.00
H1510  H     0.44594   0.79889   0.38080   0.00000  Uiso   1.00
H1511  H     0.45558   0.83051   0.41727   0.00000  Uiso   1.00
H1512  H     0.48674   0.82584   0.37650   0.00000  Uiso   1.00
C1513  C     0.47651   0.68577   0.60311   0.00000  Uiso   1.00
H1514  H     0.45354   0.69586   0.62070   0.00000  Uiso   1.00
H1515  H     0.46419   0.66567   0.58318   0.00000  Uiso   1.00
H1516  H     0.49635   0.67242   0.62281   0.00000  Uiso   1.00
C1517  C     0.21121   0.94231   0.39982   0.00000  Uiso   1.00
H1518  H     0.23336   0.92629   0.38622   0.00000  Uiso   1.00
H1519  H     0.19893   0.92286   0.42058   0.00000  Uiso   1.00
H1520  H     0.19082   0.95028   0.37754   0.00000  Uiso   1.00
C1521  C     0.31804   0.50746   0.60332   0.00000  Uiso   1.00
H1522  H     0.31693   0.98934   0.62906   0.00000  Uiso   1.00
H1523  H     0.33929   0.99574   0.58416   0.00000  Uiso   1.00
H1524  H     0.32620   0.53455   0.61381   0.00000  Uiso   1.00
C1525  C     0.03132   0.68870   0.39710   0.00000  Uiso   1.00
H1526  H     0.05404   0.70085   0.38039   0.00000  Uiso   1.00
H1527  H     0.04474   0.66925   0.41712   0.00000  Uiso   1.00
H1528  H     0.01311   0.67404   0.37674   0.00000  Uiso   1.00
C1529  C     0.02568   0.81358   0.60295   0.00000  Uiso   1.00
H1530  H     0.04909   0.80322   0.62006   0.00000  Uiso   1.00
H1531  H     0.03767   0.83390   0.58293   0.00000  Uiso   1.00
H1532  H     0.00621   0.82687   0.62306   0.00000  Uiso   1.00
C1533  C     0.28793   0.55780   0.39991   0.00000  Uiso   1.00
H1534  H     0.26565   0.57374   0.38633   0.00000  Uiso   1.00
H1535  H     0.30006   0.57715   0.42076   0.00000  Uiso   1.00
H1536  H     0.30841   0.55018   0.37765   0.00000  Uiso   1.00
C1537  C     0.18275   0.98817   0.60462   0.00000  Uiso   1.00
H1538  H     0.18185   0.50987   0.62687   0.00000  Uiso   1.00
H1539  H     0.15928   0.99386   0.58535   0.00000  Uiso   1.00
H1540  H     0.17953   0.96174   0.61993   0.00000  Uiso   1.00
C1541  C     0.21492   0.55930   0.89665   0.00000  Uiso   1.00
H1542  H     0.19298   0.54587   0.88002   0.00000  Uiso   1.00
H1543  H     0.20025   0.57784   0.91650   0.00000  Uiso   1.00
H1544  H     0.23226   0.57511   0.87631   0.00000  Uiso   1.00
C1545  C     0.23237   0.93437   0.10360   0.00000  Uiso   1.00
H1546  H     0.20855   0.94200   0.12162   0.00000  Uiso   1.00
H1547  H     0.22196   0.91317   0.08372   0.00000  Uiso   1.00
H1548  H     0.25372   0.92298   0.12296   0.00000  Uiso   1.00
C1549  C     0.44550   0.70863   0.89846   0.00000  Uiso   1.00
H1550  H     0.46126   0.68712   0.88341   0.00000  Uiso   1.00
H1551  H     0.42802   0.69333   0.91890   0.00000  Uiso   1.00
H1552  H     0.42853   0.72350   0.87692   0.00000  Uiso   1.00
C1553  C     0.06879   0.74658   0.10486   0.00000  Uiso   1.00
H1554  H     0.06423   0.73111   0.13201   0.00000  Uiso   1.00
H1555  H     0.08797   0.72974   0.08770   0.00000  Uiso   1.00
H1556  H     0.08116   0.77273   0.11372   0.00000  Uiso   1.00
C1557  C     0.28663   0.94182   0.89788   0.00000  Uiso   1.00
H1558  H     0.30857   0.95587   0.88176   0.00000  Uiso   1.00
H1559  H     0.30131   0.92352   0.91812   0.00000  Uiso   1.00
H1560  H     0.27011   0.92571   0.87714   0.00000  Uiso   1.00
C1561  C     0.26266   0.56810   0.10351   0.00000  Uiso   1.00
H1562  H     0.27620   0.56189   0.13135   0.00000  Uiso   1.00
H1563  H     0.28271   0.58368   0.08607   0.00000  Uiso   1.00
H1564  H     0.23910   0.58524   0.11106   0.00000  Uiso   1.00
C1565  C     0.05640   0.78986   0.89688   0.00000  Uiso   1.00
H1566  H     0.07417   0.80543   0.91668   0.00000  Uiso   1.00
H1567  H     0.07307   0.77389   0.87610   0.00000  Uiso   1.00
H1568  H     0.04126   0.81130   0.88090   0.00000  Uiso   1.00
C1569  C     0.43365   0.76523   0.10304   0.00000  Uiso   1.00
H1570  H     0.41210   0.77454   0.08285   0.00000  Uiso   1.00
H1571  H     0.42314   0.74382   0.12278   0.00000  Uiso   1.00
H1572  H     0.44029   0.78959   0.12068   0.00000  Uiso   1.00
Zn1573 Zn    0.70659   0.50000   0.21735   0.00000  Uiso   1.00
Zn1574 Zn    0.79340   0.50000   0.78265   0.00000  Uiso   1.00
Zn1575 Zn    0.50000   0.70659   0.21735   0.00000  Uiso   1.00
Zn1576 Zn    0.50000   0.79340   0.78265   0.00000  Uiso   1.00
Zn1577 Zn    0.79340   0.50000   0.21735   0.00000  Uiso   1.00
Zn1578 Zn    0.70659   0.50000   0.78265   0.00000  Uiso   1.00
Zn1579 Zn    0.50000   0.79340   0.21735   0.00000  Uiso   1.00
Zn1580 Zn    0.50000   0.70659   0.78265   0.00000  Uiso   1.00
Zn1581 Zn    0.95659   0.75000   0.71735   0.00000  Uiso   1.00
Zn1582 Zn    0.54340   0.75000   0.28265   0.00000  Uiso   1.00
Zn1583 Zn    0.75000   0.95660   0.71735   0.00000  Uiso   1.00
Zn1584 Zn    0.75000   0.54341   0.28265   0.00000  Uiso   1.00
Zn1585 Zn    0.54340   0.75000   0.71735   0.00000  Uiso   1.00
Zn1586 Zn    0.95659   0.75000   0.28265   0.00000  Uiso   1.00
Zn1587 Zn    0.75000   0.54341   0.71735   0.00000  Uiso   1.00
Zn1588 Zn    0.75000   0.95660   0.28265   0.00000  Uiso   1.00
C1589  C     0.98992   0.78157   0.41839   0.00000  Uiso   1.00
C1590  C     0.99392   0.71735   0.58169   0.00000  Uiso   1.00
C1591  C     0.72687   0.97578   0.41950   0.00000  Uiso   1.00
C1592  C     0.78183   0.50925   0.58223   0.00000  Uiso   1.00
C1593  C     0.51052   0.71829   0.41844   0.00000  Uiso   1.00
C1594  C     0.50754   0.78240   0.58158   0.00000  Uiso   1.00
C1595  C     0.77246   0.52408   0.41947   0.00000  Uiso   1.00
C1596  C     0.71845   0.98926   0.58248   0.00000  Uiso   1.00
C1597  C     0.73738   0.53096   0.91819   0.00000  Uiso   1.00
C1598  C     0.74654   0.96755   0.08193   0.00000  Uiso   1.00
C1599  C     0.97116   0.73462   0.91896   0.00000  Uiso   1.00
C1600  C     0.53382   0.75289   0.08230   0.00000  Uiso   1.00
C1601  C     0.76307   0.96956   0.91877   0.00000  Uiso   1.00
C1602  C     0.75126   0.53400   0.08187   0.00000  Uiso   1.00
C1603  C     0.53008   0.76515   0.91839   0.00000  Uiso   1.00
C1604  C     0.96738   0.75200   0.08183   0.00000  Uiso   1.00
C1605  C     0.50009   0.74993   0.39816   0.00000  Uiso   1.00
C1606  C     0.50028   0.74996   0.60185   0.00000  Uiso   1.00
C1607  C     0.74973   0.99993   0.39877   0.00000  Uiso   1.00
C1608  C     0.75005   0.99975   0.60229   0.00000  Uiso   1.00
C1609  C     0.75008   0.50011   0.89819   0.00000  Uiso   1.00
C1610  C     0.74967   0.50058   0.10199   0.00000  Uiso   1.00
C1611  C     0.50048   0.74985   0.89832   0.00000  Uiso   1.00
C1612  C     0.50041   0.75085   0.10207   0.00000  Uiso   1.00
O1613  O     0.75000   0.50000   0.25000   0.00000  Uiso   1.00
O1614  O     0.75000   0.50000   0.75000   0.00000  Uiso   1.00
O1615  O     0.50000   0.75000   0.25000   0.00000  Uiso   1.00
O1616  O     0.50000   0.75000   0.75000   0.00000  Uiso   1.00
O1617  O     0.75000   0.96964   0.33755   0.00000  Uiso   1.00
O1618  O     0.75000   0.53037   0.66245   0.00000  Uiso   1.00
O1619  O     0.53036   0.75000   0.33755   0.00000  Uiso   1.00
O1620  O     0.96963   0.75000   0.66245   0.00000  Uiso   1.00
O1621  O     0.75000   0.53037   0.33755   0.00000  Uiso   1.00
O1622  O     0.75000   0.96964   0.66245   0.00000  Uiso   1.00
O1623  O     0.96963   0.75000   0.33755   0.00000  Uiso   1.00
O1624  O     0.53036   0.75000   0.66245   0.00000  Uiso   1.00
O1625  O     0.50000   0.71964   0.83755   0.00000  Uiso   1.00
O1626  O     0.50000   0.78036   0.16245   0.00000  Uiso   1.00
O1627  O     0.78036   0.50000   0.83755   0.00000  Uiso   1.00
O1628  O     0.71963   0.50000   0.16245   0.00000  Uiso   1.00
O1629  O     0.50000   0.78036   0.83755   0.00000  Uiso   1.00
O1630  O     0.50000   0.71964   0.16245   0.00000  Uiso   1.00
O1631  O     0.71963   0.50000   0.83755   0.00000  Uiso   1.00
O1632  O     0.78036   0.50000   0.16245   0.00000  Uiso   1.00
O1633  O     0.70724   0.57308   0.27302   0.00000  Uiso   1.00
O1634  O     0.79275   0.92693   0.72698   0.00000  Uiso   1.00
O1635  O     0.92692   0.70725   0.27302   0.00000  Uiso   1.00
O1636  O     0.57307   0.79275   0.72698   0.00000  Uiso   1.00
O1637  O     0.79275   0.92693   0.27302   0.00000  Uiso   1.00
O1638  O     0.70724   0.57308   0.72698   0.00000  Uiso   1.00
O1639  O     0.57307   0.79275   0.27302   0.00000  Uiso   1.00
O1640  O     0.92692   0.70725   0.72698   0.00000  Uiso   1.00
O1641  O     0.70724   0.92693   0.72698   0.00000  Uiso   1.00
O1642  O     0.79275   0.57308   0.27302   0.00000  Uiso   1.00
O1643  O     0.92692   0.79276   0.72698   0.00000  Uiso   1.00
O1644  O     0.57307   0.70725   0.27302   0.00000  Uiso   1.00
O1645  O     0.79275   0.57308   0.72698   0.00000  Uiso   1.00
O1646  O     0.70724   0.92693   0.27302   0.00000  Uiso   1.00
O1647  O     0.57307   0.70725   0.72698   0.00000  Uiso   1.00
O1648  O     0.92692   0.79276   0.27302   0.00000  Uiso   1.00
O1649  O     0.95724   0.82308   0.77302   0.00000  Uiso   1.00
O1650  O     0.54275   0.67692   0.22698   0.00000  Uiso   1.00
O1651  O     0.67692   0.95725   0.77302   0.00000  Uiso   1.00
O1652  O     0.82307   0.54276   0.22698   0.00000  Uiso   1.00
O1653  O     0.54275   0.67692   0.77302   0.00000  Uiso   1.00
O1654  O     0.95724   0.82308   0.22698   0.00000  Uiso   1.00
O1655  O     0.82307   0.54276   0.77302   0.00000  Uiso   1.00
O1656  O     0.67692   0.95725   0.22698   0.00000  Uiso   1.00
O1657  O     0.95724   0.67693   0.22698   0.00000  Uiso   1.00
O1658  O     0.54275   0.82307   0.77302   0.00000  Uiso   1.00
O1659  O     0.67692   0.54276   0.22698   0.00000  Uiso   1.00
O1660  O     0.82307   0.95725   0.77302   0.00000  Uiso   1.00
O1661  O     0.54275   0.82307   0.22698   0.00000  Uiso   1.00
O1662  O     0.95724   0.67693   0.77302   0.00000  Uiso   1.00
O1663  O     0.82307   0.95725   0.22698   0.00000  Uiso   1.00
O1664  O     0.67692   0.54276   0.77302   0.00000  Uiso   1.00
C1665  C     0.50234   0.68327   0.47977   0.00000  Uiso   1.00
C1666  C     0.99614   0.81651   0.52018   0.00000  Uiso   1.00
C1667  C     0.80840   0.53094   0.47986   0.00000  Uiso   1.00
C1668  C     0.69307   0.96477   0.52091   0.00000  Uiso   1.00
C1669  C     0.99886   0.81660   0.47941   0.00000  Uiso   1.00
C1670  C     0.50553   0.68338   0.52049   0.00000  Uiso   1.00
C1671  C     0.69146   0.96809   0.48028   0.00000  Uiso   1.00
C1672  C     0.80746   0.53342   0.52057   0.00000  Uiso   1.00
C1673  C     0.75776   0.93425   0.98021   0.00000  Uiso   1.00
C1674  C     0.73881   0.56664   0.01950   0.00000  Uiso   1.00
C1675  C     0.56583   0.76307   0.97946   0.00000  Uiso   1.00
C1676  C     0.93589   0.73561   0.02061   0.00000  Uiso   1.00
C1677  C     0.74287   0.56664   0.97890   0.00000  Uiso   1.00
C1678  C     0.76110   0.93486   0.02086   0.00000  Uiso   1.00
C1679  C     0.93530   0.73850   0.97991   0.00000  Uiso   1.00
C1680  C     0.56524   0.76782   0.01994   0.00000  Uiso   1.00
C1681  C     0.74990   0.99996   0.35600   0.00000  Uiso   1.00
C1682  C     0.75004   0.50000   0.64443   0.00000  Uiso   1.00
C1683  C     0.50001   0.75000   0.35573   0.00000  Uiso   1.00
C1684  C     0.50004   0.74999   0.64428   0.00000  Uiso   1.00
C1685  C     0.50009   0.74994   0.85582   0.00000  Uiso   1.00
C1686  C     0.99976   0.75016   0.14435   0.00000  Uiso   1.00
C1687  C     0.75002   0.99994   0.85575   0.00000  Uiso   1.00
C1688  C     0.74993   0.50004   0.14433   0.00000  Uiso   1.00
C1689  C     0.67996   0.56985   0.25008   0.00000  Uiso   1.00
C1690  C     0.82015   0.93002   0.75000   0.00000  Uiso   1.00
C1691  C     0.93014   0.67995   0.25015   0.00000  Uiso   1.00
C1692  C     0.57017   0.81981   0.75018   0.00000  Uiso   1.00
C1693  C     0.82015   0.93005   0.25040   0.00000  Uiso   1.00
C1694  C     0.67990   0.57005   0.75003   0.00000  Uiso   1.00
C1695  C     0.57027   0.81990   0.24944   0.00000  Uiso   1.00
C1696  C     0.92979   0.68005   0.75024   0.00000  Uiso   1.00
C1697  C     0.67987   0.93007   0.74993   0.00000  Uiso   1.00
C1698  C     0.82010   0.57008   0.25006   0.00000  Uiso   1.00
C1699  C     0.92999   0.81988   0.75009   0.00000  Uiso   1.00
C1700  C     0.57004   0.67990   0.25009   0.00000  Uiso   1.00
C1701  C     0.81980   0.57023   0.75021   0.00000  Uiso   1.00
C1702  C     0.68003   0.92998   0.24991   0.00000  Uiso   1.00
C1703  C     0.56999   0.68007   0.75007   0.00000  Uiso   1.00
C1704  C     0.93020   0.82018   0.25000   0.00000  Uiso   1.00
C1705  C     0.61641   0.91092   0.23817   0.00000  Uiso   1.00
C1706  C     0.87196   0.60077   0.78218   0.00000  Uiso   1.00
C1707  C     0.60518   0.63182   0.21568   0.00000  Uiso   1.00
C1708  C     0.89180   0.86425   0.78518   0.00000  Uiso   1.00
C1709  C     0.86991   0.60386   0.21651   0.00000  Uiso   1.00
C1710  C     0.61563   0.91121   0.74016   0.00000  Uiso   1.00
C1711  C     0.91203   0.88521   0.24492   0.00000  Uiso   1.00
C1712  C     0.60860   0.63596   0.78527   0.00000  Uiso   1.00
C1713  C     0.63354   0.60703   0.78499   0.00000  Uiso   1.00
C1714  C     0.88502   0.91217   0.24546   0.00000  Uiso   1.00
C1715  C     0.58904   0.88364   0.73846   0.00000  Uiso   1.00
C1716  C     0.89502   0.63248   0.21566   0.00000  Uiso   1.00
C1717  C     0.86693   0.89324   0.78482   0.00000  Uiso   1.00
C1718  C     0.63343   0.60616   0.21508   0.00000  Uiso   1.00
C1719  C     0.90073   0.62551   0.78050   0.00000  Uiso   1.00
C1720  C     0.59065   0.88320   0.23396   0.00000  Uiso   1.00
C1721  C     0.87360   0.65307   0.72204   0.00000  Uiso   1.00
C1722  C     0.63447   0.83894   0.25950   0.00000  Uiso   1.00
C1723  C     0.85802   0.88471   0.71456   0.00000  Uiso   1.00
C1724  C     0.64287   0.61526   0.28511   0.00000  Uiso   1.00
C1725  C     0.63399   0.83889   0.76076   0.00000  Uiso   1.00
C1726  C     0.88288   0.64447   0.28464   0.00000  Uiso   1.00
C1727  C     0.64184   0.61531   0.71456   0.00000  Uiso   1.00
C1728  C     0.83912   0.86527   0.25826   0.00000  Uiso   1.00
C1729  C     0.86576   0.83814   0.25467   0.00000  Uiso   1.00
C1730  C     0.61353   0.64107   0.71419   0.00000  Uiso   1.00
C1731  C     0.85400   0.61965   0.28383   0.00000  Uiso   1.00
C1732  C     0.66097   0.86598   0.76048   0.00000  Uiso   1.00
C1733  C     0.61771   0.64397   0.28468   0.00000  Uiso   1.00
C1734  C     0.88641   0.85903   0.71417   0.00000  Uiso   1.00
C1735  C     0.66165   0.86521   0.25682   0.00000  Uiso   1.00
C1736  C     0.84848   0.62478   0.72034   0.00000  Uiso   1.00
C1737  C     0.50401   0.71663   0.45899   0.00000  Uiso   1.00
C1738  C     0.50097   0.78344   0.54101   0.00000  Uiso   1.00
C1739  C     0.77755   0.51801   0.45966   0.00000  Uiso   1.00
C1740  C     0.72036   0.98377   0.54183   0.00000  Uiso   1.00
C1741  C     0.99694   0.78324   0.45884   0.00000  Uiso   1.00
C1742  C     0.50068   0.71641   0.54117   0.00000  Uiso   1.00
C1743  C     0.72195   0.98156   0.45977   0.00000  Uiso   1.00
C1744  C     0.77983   0.51489   0.54162   0.00000  Uiso   1.00
C1745  C     0.75643   0.96752   0.95927   0.00000  Uiso   1.00
C1746  C     0.74571   0.53417   0.04099   0.00000  Uiso   1.00
C1747  C     0.53274   0.75923   0.95897   0.00000  Uiso   1.00
C1748  C     0.96765   0.74573   0.04134   0.00000  Uiso   1.00
C1749  C     0.74374   0.53319   0.95868   0.00000  Uiso   1.00
C1750  C     0.75294   0.96731   0.04141   0.00000  Uiso   1.00
C1751  C     0.96845   0.74167   0.95930   0.00000  Uiso   1.00
C1752  C     0.53358   0.75821   0.04133   0.00000  Uiso   1.00
C1753  C     0.59878   0.84772   0.24784   0.00000  Uiso   1.00
C1754  C     0.90125   0.65227   0.75071   0.00000  Uiso   1.00
C1755  C     0.65180   0.59772   0.25000   0.00000  Uiso   1.00
C1756  C     0.84895   0.90239   0.74973   0.00000  Uiso   1.00
C1757  C     0.90212   0.65196   0.25009   0.00000  Uiso   1.00
C1758  C     0.59825   0.84788   0.74966   0.00000  Uiso   1.00
C1759  C     0.84850   0.90208   0.25143   0.00000  Uiso   1.00
C1760  C     0.65118   0.59774   0.74981   0.00000  Uiso   1.00
C1761  C     0.59779   0.65183   0.74978   0.00000  Uiso   1.00
C1762  C     0.90222   0.84831   0.24933   0.00000  Uiso   1.00
C1763  C     0.65168   0.90197   0.75020   0.00000  Uiso   1.00
C1764  C     0.84817   0.59848   0.25001   0.00000  Uiso   1.00
C1765  C     0.90225   0.84819   0.74975   0.00000  Uiso   1.00
C1766  C     0.59835   0.65177   0.25005   0.00000  Uiso   1.00
C1767  C     0.84726   0.59888   0.75079   0.00000  Uiso   1.00
C1768  C     0.65229   0.90172   0.24882   0.00000  Uiso   1.00
C1769  C     0.50060   0.74994   0.47950   0.00000  Uiso   1.00
C1770  C     0.50076   0.74993   0.52051   0.00000  Uiso   1.00
C1771  C     0.74980   0.99973   0.48032   0.00000  Uiso   1.00
C1772  C     0.74995   0.99956   0.52125   0.00000  Uiso   1.00
C1773  C     0.74986   0.50045   0.97961   0.00000  Uiso   1.00
C1774  C     0.74951   0.50066   0.02066   0.00000  Uiso   1.00
C1775  C     0.50061   0.75079   0.97976   0.00000  Uiso   1.00
C1776  C     0.50065   0.75145   0.02081   0.00000  Uiso   1.00
C1777  C     0.99132   0.64791   0.46038   0.00000  Uiso   1.00
H1778  H     0.97872   0.65251   0.43149   0.00000  Uiso   1.00
H1779  H     0.51492   0.62925   0.45773   0.00000  Uiso   1.00
H1780  H     0.97011   0.63416   0.47804   0.00000  Uiso   1.00
C1781  C     0.98241   0.85092   0.53965   0.00000  Uiso   1.00
H1782  H     0.97031   0.84535   0.56855   0.00000  Uiso   1.00
H1783  H     0.50448   0.87129   0.54224   0.00000  Uiso   1.00
H1784  H     0.96009   0.86305   0.52213   0.00000  Uiso   1.00
C1785  C     0.84466   0.53611   0.45952   0.00000  Uiso   1.00
H1786  H     0.84525   0.52278   0.43062   0.00000  Uiso   1.00
H1787  H     0.85123   0.56541   0.45620   0.00000  Uiso   1.00
H1788  H     0.86658   0.52295   0.47681   0.00000  Uiso   1.00
C1789  C     0.66907   0.93628   0.53986   0.00000  Uiso   1.00
H1790  H     0.66636   0.91225   0.52058   0.00000  Uiso   1.00
H1791  H     0.68141   0.92535   0.56688   0.00000  Uiso   1.00
H1792  H     0.64151   0.94733   0.54550   0.00000  Uiso   1.00
C1793  C     0.50958   0.85198   0.45963   0.00000  Uiso   1.00
H1794  H     0.52179   0.84739   0.43059   0.00000  Uiso   1.00
H1795  H     0.98591   0.87060   0.45718   0.00000  Uiso   1.00
H1796  H     0.53100   0.86576   0.47688   0.00000  Uiso   1.00
C1797  C     0.51972   0.64906   0.53997   0.00000  Uiso   1.00
H1798  H     0.53219   0.65474   0.56863   0.00000  Uiso   1.00
H1799  H     0.99782   0.62854   0.54302   0.00000  Uiso   1.00
H1800  H     0.54187   0.63705   0.52221   0.00000  Uiso   1.00
C1801  C     0.65498   0.96259   0.46057   0.00000  Uiso   1.00
H1802  H     0.65397   0.97540   0.43133   0.00000  Uiso   1.00
H1803  H     0.64837   0.93323   0.45824   0.00000  Uiso   1.00
H1804  H     0.63332   0.97609   0.47783   0.00000  Uiso   1.00
C1805  C     0.83287   0.56027   0.53997   0.00000  Uiso   1.00
H1806  H     0.81914   0.57396   0.56463   0.00000  Uiso   1.00
H1807  H     0.85830   0.54666   0.54946   0.00000  Uiso   1.00
H1808  H     0.84024   0.58275   0.51987   0.00000  Uiso   1.00
C1809  C     0.74989   0.89792   0.96110   0.00000  Uiso   1.00
H1810  H     0.73718   0.90121   0.93207   0.00000  Uiso   1.00
H1811  H     0.77499   0.88129   0.95879   0.00000  Uiso   1.00
H1812  H     0.72981   0.88258   0.97878   0.00000  Uiso   1.00
C1813  C     0.72171   0.60001   0.03785   0.00000  Uiso   1.00
H1814  H     0.70213   0.59187   0.06077   0.00000  Uiso   1.00
H1815  H     0.74276   0.61868   0.04925   0.00000  Uiso   1.00
H1816  H     0.70510   0.61546   0.01649   0.00000  Uiso   1.00
C1817  C     0.60221   0.75546   0.96030   0.00000  Uiso   1.00
H1818  H     0.61862   0.73714   0.97917   0.00000  Uiso   1.00
H1819  H     0.59904   0.74094   0.93226   0.00000  Uiso   1.00
H1820  H     0.61773   0.78095   0.95566   0.00000  Uiso   1.00
C1821  C     0.90419   0.71656   0.04011   0.00000  Uiso   1.00
H1822  H     0.89577   0.69270   0.02256   0.00000  Uiso   1.00
H1823  H     0.91167   0.70524   0.06889   0.00000  Uiso   1.00
H1824  H     0.88061   0.73523   0.04287   0.00000  Uiso   1.00
C1825  C     0.75311   0.60222   0.95916   0.00000  Uiso   1.00
H1826  H     0.76757   0.59759   0.93130   0.00000  Uiso   1.00
H1827  H     0.72886   0.61955   0.95407   0.00000  Uiso   1.00
H1828  H     0.77237   0.61754   0.97781   0.00000  Uiso   1.00
C1829  C     0.77885   0.90225   0.04037   0.00000  Uiso   1.00
H1830  H     0.79088   0.90928   0.06891   0.00000  Uiso   1.00
H1831  H     0.75920   0.87959   0.04363   0.00000  Uiso   1.00
H1832  H     0.80201   0.89252   0.02246   0.00000  Uiso   1.00
C1833  C     0.89876   0.74398   0.96024   0.00000  Uiso   1.00
H1834  H     0.90145   0.75633   0.93092   0.00000  Uiso   1.00
H1835  H     0.88374   0.71789   0.95834   0.00000  Uiso   1.00
H1836  H     0.88214   0.76351   0.97728   0.00000  Uiso   1.00
C1837  C     0.59646   0.78867   0.03798   0.00000  Uiso   1.00
H1838  H     0.58647   0.80709   0.06113   0.00000  Uiso   1.00
H1839  H     0.61779   0.76991   0.04894   0.00000  Uiso   1.00
H1840  H     0.60928   0.80715   0.01642   0.00000  Uiso   1.00
N1841  N     0.60575   0.94818   0.23427   0.00000  Uiso   1.00
H1842  H     0.58371   0.95568   0.25095   0.00000  Uiso   1.00
C1843  C     0.60526   0.96338   0.19531   0.00000  Uiso   1.00
H1844  H     0.57731   0.96268   0.18323   0.00000  Uiso   1.00
H1845  H     0.62401   0.94848   0.17560   0.00000  Uiso   1.00
H1846  H     0.61408   0.99223   0.19656   0.00000  Uiso   1.00
N1847  N     0.86752   0.57798   0.81559   0.00000  Uiso   1.00
H1848  H     0.89096   0.56758   0.82764   0.00000  Uiso   1.00
C1849  C     0.84237   0.59193   0.84428   0.00000  Uiso   1.00
H1850  H     0.85309   0.61737   0.85733   0.00000  Uiso   1.00
H1851  H     0.83859   0.57139   0.86770   0.00000  Uiso   1.00
H1852  H     0.81547   0.59752   0.83085   0.00000  Uiso   1.00
N1853  N     0.58277   0.63697   0.18226   0.00000  Uiso   1.00
H1854  H     0.57214   0.61355   0.17045   0.00000  Uiso   1.00
C1855  C     0.59570   0.66285   0.15380   0.00000  Uiso   1.00
H1856  H     0.61903   0.65157   0.13749   0.00000  Uiso   1.00
H1857  H     0.60367   0.68873   0.16808   0.00000  Uiso   1.00
H1858  H     0.57365   0.66844   0.13261   0.00000  Uiso   1.00
N1859  N     0.90606   0.85056   0.82104   0.00000  Uiso   1.00
H1860  H     0.91103   0.86959   0.84226   0.00000  Uiso   1.00
C1861  C     0.88766   0.81865   0.83592   0.00000  Uiso   1.00
H1862  H     0.85920   0.82550   0.84381   0.00000  Uiso   1.00
H1863  H     0.90199   0.80854   0.86227   0.00000  Uiso   1.00
H1864  H     0.88767   0.79654   0.81396   0.00000  Uiso   1.00
N1865  N     0.86727   0.57962   0.18434   0.00000  Uiso   1.00
H1866  H     0.89159   0.56871   0.17509   0.00000  Uiso   1.00
C1867  C     0.84363   0.59102   0.15307   0.00000  Uiso   1.00
H1868  H     0.85649   0.61272   0.13547   0.00000  Uiso   1.00
H1869  H     0.81725   0.60086   0.16475   0.00000  Uiso   1.00
H1870  H     0.83881   0.56748   0.13363   0.00000  Uiso   1.00
N1871  N     0.60716   0.94770   0.72906   0.00000  Uiso   1.00
H1872  H     0.59185   0.94989   0.70405   0.00000  Uiso   1.00
C1873  C     0.59367   0.97058   0.76014   0.00000  Uiso   1.00
H1874  H     0.56594   0.96223   0.76897   0.00000  Uiso   1.00
H1875  H     0.59265   0.99927   0.74995   0.00000  Uiso   1.00
H1876  H     0.61160   0.96910   0.78603   0.00000  Uiso   1.00
N1877  N     0.94925   0.89507   0.24070   0.00000  Uiso   1.00
H1878  H     0.95837   0.91479   0.25958   0.00000  Uiso   1.00
C1879  C     0.96199   0.89947   0.20106   0.00000  Uiso   1.00
H1880  H     0.97418   0.92683   0.19703   0.00000  Uiso   1.00
H1881  H     0.93983   0.89583   0.17942   0.00000  Uiso   1.00
H1882  H     0.98322   0.87888   0.19521   0.00000  Uiso   1.00
N1883  N     0.59475   0.64991   0.82109   0.00000  Uiso   1.00
H1884  H     0.59017   0.63107   0.84273   0.00000  Uiso   1.00
C1885  C     0.61317   0.68206   0.83515   0.00000  Uiso   1.00
H1886  H     0.64176   0.67542   0.84279   0.00000  Uiso   1.00
H1887  H     0.59911   0.69237   0.86149   0.00000  Uiso   1.00
H1888  H     0.61282   0.70396   0.81279   0.00000  Uiso   1.00
N1889  N     0.64282   0.58882   0.82035   0.00000  Uiso   1.00
H1890  H     0.64844   0.60589   0.84332   0.00000  Uiso   1.00
C1891  C     0.61861   0.55932   0.83088   0.00000  Uiso   1.00
H1892  H     0.62966   0.54460   0.85653   0.00000  Uiso   1.00
H1893  H     0.61591   0.53969   0.80659   0.00000  Uiso   1.00
H1894  H     0.59119   0.56978   0.83826   0.00000  Uiso   1.00
N1895  N     0.89473   0.94972   0.24308   0.00000  Uiso   1.00
H1896  H     0.91414   0.95826   0.26262   0.00000  Uiso   1.00
C1897  C     0.89859   0.96504   0.20439   0.00000  Uiso   1.00
H1898  H     0.88346   0.99116   0.20280   0.00000  Uiso   1.00
H1899  H     0.88778   0.94648   0.18166   0.00000  Uiso   1.00
H1900  H     0.92756   0.97085   0.19819   0.00000  Uiso   1.00
N1901  N     0.55309   0.89132   0.72515   0.00000  Uiso   1.00
H1902  H     0.54306   0.91657   0.73236   0.00000  Uiso   1.00
C1903  C     0.54658   0.88225   0.68480   0.00000  Uiso   1.00
H1904  H     0.51762   0.88736   0.67757   0.00000  Uiso   1.00
H1905  H     0.55250   0.85306   0.67937   0.00000  Uiso   1.00
H1906  H     0.56381   0.89926   0.66548   0.00000  Uiso   1.00
N1907  N     0.91296   0.64204   0.18020   0.00000  Uiso   1.00
H1908  H     0.91825   0.62114   0.16115   0.00000  Uiso   1.00
C1909  C     0.89908   0.67443   0.16113   0.00000  Uiso   1.00
H1910  H     0.91467   0.67931   0.13402   0.00000  Uiso   1.00
H1911  H     0.90206   0.69865   0.18004   0.00000  Uiso   1.00
H1912  H     0.86994   0.67119   0.15369   0.00000  Uiso   1.00
N1913  N     0.85807   0.91165   0.82006   0.00000  Uiso   1.00
H1914  H     0.85276   0.89475   0.84335   0.00000  Uiso   1.00
C1915  C     0.88229   0.94133   0.82982   0.00000  Uiso   1.00
H1916  H     0.87138   0.95630   0.85527   0.00000  Uiso   1.00
H1917  H     0.88481   0.96072   0.80513   0.00000  Uiso   1.00
H1918  H     0.90977   0.93098   0.83723   0.00000  Uiso   1.00
N1919  N     0.64350   0.58881   0.17949   0.00000  Uiso   1.00
H1920  H     0.62299   0.58442   0.15972   0.00000  Uiso   1.00
C1921  C     0.67645   0.60230   0.16160   0.00000  Uiso   1.00
H1922  H     0.68021   0.58882   0.13307   0.00000  Uiso   1.00
H1923  H     0.70047   0.59616   0.17998   0.00000  Uiso   1.00
H1924  H     0.67492   0.63216   0.15696   0.00000  Uiso   1.00
N1925  N     0.92797   0.62483   0.81005   0.00000  Uiso   1.00
H1926  H     0.91839   0.62288   0.83814   0.00000  Uiso   1.00
C1927  C     0.95818   0.60060   0.80221   0.00000  Uiso   1.00
H1928  H     0.97938   0.60426   0.82484   0.00000  Uiso   1.00
H1929  H     0.97040   0.60680   0.77340   0.00000  Uiso   1.00
H1930  H     0.94919   0.57179   0.80251   0.00000  Uiso   1.00
N1931  N     0.55757   0.89056   0.21379   0.00000  Uiso   1.00
H1932  H     0.54543   0.91507   0.22034   0.00000  Uiso   1.00
C1933  C     0.55984   0.88393   0.17224   0.00000  Uiso   1.00
H1934  H     0.53375   0.89104   0.15797   0.00000  Uiso   1.00
H1935  H     0.56589   0.85484   0.16640   0.00000  Uiso   1.00
H1936  H     0.58152   0.90062   0.15877   0.00000  Uiso   1.00
N1937  N     0.86994   0.68321   0.69603   0.00000  Uiso   1.00
H1938  H     0.84495   0.69592   0.69596   0.00000  Uiso   1.00
C1939  C     0.88643   0.67959   0.65807   0.00000  Uiso   1.00
H1940  H     0.86598   0.67050   0.63650   0.00000  Uiso   1.00
H1941  H     0.90957   0.66008   0.65874   0.00000  Uiso   1.00
H1942  H     0.89655   0.70663   0.64866   0.00000  Uiso   1.00
N1943  N     0.64365   0.80306   0.27199   0.00000  Uiso   1.00
H1944  H     0.66507   0.79174   0.25691   0.00000  Uiso   1.00
C1945  C     0.64797   0.79958   0.31371   0.00000  Uiso   1.00
H1946  H     0.67099   0.81651   0.32404   0.00000  Uiso   1.00
H1947  H     0.65376   0.77084   0.32136   0.00000  Uiso   1.00
H1948  H     0.62271   0.80810   0.32887   0.00000  Uiso   1.00
N1949  N     0.83817   0.89274   0.67995   0.00000  Uiso   1.00
H1950  H     0.82972   0.87050   0.66420   0.00000  Uiso   1.00
C1951  C     0.85228   0.92213   0.65644   0.00000  Uiso   1.00
H1952  H     0.87882   0.91453   0.64365   0.00000  Uiso   1.00
H1953  H     0.85531   0.94720   0.67412   0.00000  Uiso   1.00
H1954  H     0.83310   0.92773   0.63224   0.00000  Uiso   1.00
N1955  N     0.65872   0.60316   0.32085   0.00000  Uiso   1.00
H1956  H     0.66441   0.62307   0.34091   0.00000  Uiso   1.00
C1957  C     0.64133   0.57170   0.33803   0.00000  Uiso   1.00
H1958  H     0.61315   0.57858   0.34698   0.00000  Uiso   1.00
H1959  H     0.65686   0.56279   0.36408   0.00000  Uiso   1.00
H1960  H     0.64066   0.54873   0.31711   0.00000  Uiso   1.00
N1961  N     0.64220   0.80274   0.77326   0.00000  Uiso   1.00
H1962  H     0.65685   0.80035   0.79868   0.00000  Uiso   1.00
C1963  C     0.65266   0.77722   0.74320   0.00000  Uiso   1.00
H1964  H     0.68173   0.76977   0.74645   0.00000  Uiso   1.00
H1965  H     0.64830   0.78861   0.71353   0.00000  Uiso   1.00
H1966  H     0.63621   0.75210   0.74628   0.00000  Uiso   1.00
N1967  N     0.89324   0.66159   0.32023   0.00000  Uiso   1.00
H1968  H     0.87242   0.66848   0.33876   0.00000  Uiso   1.00
C1969  C     0.92342   0.64435   0.34008   0.00000  Uiso   1.00
H1970  H     0.91567   0.61663   0.35002   0.00000  Uiso   1.00
H1971  H     0.93115   0.66083   0.36581   0.00000  Uiso   1.00
H1972  H     0.94739   0.64244   0.32059   0.00000  Uiso   1.00
N1973  N     0.66134   0.60704   0.67984   0.00000  Uiso   1.00
H1974  H     0.66956   0.62910   0.66353   0.00000  Uiso   1.00
C1975  C     0.64730   0.57718   0.65715   0.00000  Uiso   1.00
H1976  H     0.62063   0.58440   0.64435   0.00000  Uiso   1.00
H1977  H     0.64455   0.55234   0.67543   0.00000  Uiso   1.00
H1978  H     0.66637   0.57133   0.63298   0.00000  Uiso   1.00
N1979  N     0.80282   0.85558   0.26813   0.00000  Uiso   1.00
H1980  H     0.79291   0.83366   0.25286   0.00000  Uiso   1.00
C1981  C     0.79640   0.85249   0.30962   0.00000  Uiso   1.00
H1982  H     0.81297   0.83022   0.32247   0.00000  Uiso   1.00
H1983  H     0.76736   0.84645   0.31503   0.00000  Uiso   1.00
H1984  H     0.80333   0.87829   0.32461   0.00000  Uiso   1.00
N1985  N     0.85620   0.80047   0.25587   0.00000  Uiso   1.00
H1986  H     0.83579   0.79340   0.27486   0.00000  Uiso   1.00
C1987  C     0.85226   0.78369   0.21809   0.00000  Uiso   1.00
H1988  H     0.84735   0.75407   0.22179   0.00000  Uiso   1.00
H1989  H     0.87739   0.78718   0.20059   0.00000  Uiso   1.00
H1990  H     0.82891   0.79593   0.20223   0.00000  Uiso   1.00
N1991  N     0.60044   0.65598   0.67831   0.00000  Uiso   1.00
H1992  H     0.61903   0.65839   0.65613   0.00000  Uiso   1.00
C1993  C     0.56582   0.64190   0.66520   0.00000  Uiso   1.00
H1994  H     0.55860   0.65471   0.63696   0.00000  Uiso   1.00
H1995  H     0.54395   0.64825   0.68629   0.00000  Uiso   1.00
H1996  H     0.56720   0.61198   0.66128   0.00000  Uiso   1.00
N1997  N     0.83249   0.61397   0.31782   0.00000  Uiso   1.00
H1998  H     0.84709   0.61073   0.34318   0.00000  Uiso   1.00
C1999  C     0.80212   0.63886   0.32186   0.00000  Uiso   1.00
H2000  H     0.78504   0.63027   0.34684   0.00000  Uiso   1.00
H2001  H     0.78502   0.63883   0.29524   0.00000  Uiso   1.00
H2002  H     0.81172   0.66702   0.32708   0.00000  Uiso   1.00
N2003  N     0.69735   0.85761   0.77168   0.00000  Uiso   1.00
H2004  H     0.70040   0.84301   0.79712   0.00000  Uiso   1.00
C2005  C     0.72157   0.84645   0.74070   0.00000  Uiso   1.00
H2006  H     0.74791   0.86078   0.74404   0.00000  Uiso   1.00
H2007  H     0.71026   0.85307   0.71148   0.00000  Uiso   1.00
H2008  H     0.72666   0.81668   0.74244   0.00000  Uiso   1.00
N2009  N     0.60970   0.66323   0.31962   0.00000  Uiso   1.00
H2010  H     0.60536   0.64700   0.34368   0.00000  Uiso   1.00
C2011  C     0.63351   0.69368   0.32744   0.00000  Uiso   1.00
H2012  H     0.62180   0.71045   0.35116   0.00000  Uiso   1.00
H2013  H     0.63658   0.71105   0.30116   0.00000  Uiso   1.00
H2014  H     0.66083   0.68413   0.33653   0.00000  Uiso   1.00
N2015  N     0.89948   0.84430   0.67829   0.00000  Uiso   1.00
H2016  H     0.88093   0.84224   0.65602   0.00000  Uiso   1.00
C2017  C     0.93426   0.85820   0.66531   0.00000  Uiso   1.00
H2018  H     0.94171   0.84522   0.63731   0.00000  Uiso   1.00
H2019  H     0.95597   0.85189   0.68667   0.00000  Uiso   1.00
H2020  H     0.93301   0.88811   0.66103   0.00000  Uiso   1.00
N2021  N     0.69843   0.85383   0.26067   0.00000  Uiso   1.00
H2022  H     0.71211   0.86251   0.28503   0.00000  Uiso   1.00
C2023  C     0.71927   0.85211   0.22499   0.00000  Uiso   1.00
H2024  H     0.73432   0.82595   0.22413   0.00000  Uiso   1.00
H2025  H     0.73892   0.87497   0.22379   0.00000  Uiso   1.00
H2026  H     0.70151   0.85345   0.19883   0.00000  Uiso   1.00
N2027  N     0.82463   0.62217   0.68770   0.00000  Uiso   1.00
H2028  H     0.81460   0.64631   0.67678   0.00000  Uiso   1.00
C2029  C     0.83667   0.59735   0.65776   0.00000  Uiso   1.00
H2030  H     0.81563   0.59581   0.63470   0.00000  Uiso   1.00
H2031  H     0.84097   0.56969   0.67004   0.00000  Uiso   1.00
H2032  H     0.86251   0.60678   0.64461   0.00000  Uiso   1.00
C2033  C     0.96880   0.81112   0.39717   0.00000  Uiso   1.00
H2034  H     0.94594   0.79889   0.38080   0.00000  Uiso   1.00
H2035  H     0.95558   0.83051   0.41727   0.00000  Uiso   1.00
H2036  H     0.98674   0.82584   0.37650   0.00000  Uiso   1.00
C2037  C     0.97651   0.68577   0.60311   0.00000  Uiso   1.00
H2038  H     0.95354   0.69586   0.62070   0.00000  Uiso   1.00
H2039  H     0.96419   0.66567   0.58318   0.00000  Uiso   1.00
H2040  H     0.99635   0.67242   0.62281   0.00000  Uiso   1.00
C2041  C     0.71121   0.94231   0.39982   0.00000  Uiso   1.00
H2042  H     0.73336   0.92629   0.38622   0.00000  Uiso   1.00
H2043  H     0.69893   0.92286   0.42058   0.00000  Uiso   1.00
H2044  H     0.69082   0.95028   0.37754   0.00000  Uiso   1.00
C2045  C     0.81804   0.50746   0.60332   0.00000  Uiso   1.00
H2046  H     0.81693   0.98934   0.62906   0.00000  Uiso   1.00
H2047  H     0.83929   0.99574   0.58416   0.00000  Uiso   1.00
H2048  H     0.82620   0.53455   0.61381   0.00000  Uiso   1.00
C2049  C     0.53132   0.68870   0.39710   0.00000  Uiso   1.00
H2050  H     0.55404   0.70085   0.38039   0.00000  Uiso   1.00
H2051  H     0.54474   0.66925   0.41712   0.00000  Uiso   1.00
H2052  H     0.51311   0.67404   0.37674   0.00000  Uiso   1.00
C2053  C     0.52568   0.81358   0.60295   0.00000  Uiso   1.00
H2054  H     0.54909   0.80322   0.62006   0.00000  Uiso   1.00
H2055  H     0.53767   0.83390   0.58293   0.00000  Uiso   1.00
H2056  H     0.50621   0.82687   0.62306   0.00000  Uiso   1.00
C2057  C     0.78793   0.55780   0.39991   0.00000  Uiso   1.00
H2058  H     0.76565   0.57374   0.38633   0.00000  Uiso   1.00
H2059  H     0.80006   0.57715   0.42076   0.00000  Uiso   1.00
H2060  H     0.80841   0.55018   0.37765   0.00000  Uiso   1.00
C2061  C     0.68275   0.98817   0.60462   0.00000  Uiso   1.00
H2062  H     0.68185   0.50987   0.62687   0.00000  Uiso   1.00
H2063  H     0.65928   0.99386   0.58535   0.00000  Uiso   1.00
H2064  H     0.67953   0.96174   0.61993   0.00000  Uiso   1.00
C2065  C     0.71492   0.55930   0.89665   0.00000  Uiso   1.00
H2066  H     0.69298   0.54587   0.88002   0.00000  Uiso   1.00
H2067  H     0.70025   0.57784   0.91650   0.00000  Uiso   1.00
H2068  H     0.73226   0.57511   0.87631   0.00000  Uiso   1.00
C2069  C     0.73237   0.93437   0.10360   0.00000  Uiso   1.00
H2070  H     0.70855   0.94200   0.12162   0.00000  Uiso   1.00
H2071  H     0.72196   0.91317   0.08372   0.00000  Uiso   1.00
H2072  H     0.75372   0.92298   0.12296   0.00000  Uiso   1.00
C2073  C     0.94550   0.70863   0.89846   0.00000  Uiso   1.00
H2074  H     0.96126   0.68712   0.88341   0.00000  Uiso   1.00
H2075  H     0.92802   0.69333   0.91890   0.00000  Uiso   1.00
H2076  H     0.92853   0.72350   0.87692   0.00000  Uiso   1.00
C2077  C     0.56879   0.74658   0.10486   0.00000  Uiso   1.00
H2078  H     0.56423   0.73111   0.13201   0.00000  Uiso   1.00
H2079  H     0.58797   0.72974   0.08770   0.00000  Uiso   1.00
H2080  H     0.58116   0.77273   0.11372   0.00000  Uiso   1.00
C2081  C     0.78663   0.94182   0.89788   0.00000  Uiso   1.00
H2082  H     0.80857   0.95587   0.88176   0.00000  Uiso   1.00
H2083  H     0.80131   0.92352   0.91812   0.00000  Uiso   1.00
H2084  H     0.77011   0.92571   0.87714   0.00000  Uiso   1.00
C2085  C     0.76266   0.56810   0.10351   0.00000  Uiso   1.00
H2086  H     0.77620   0.56189   0.13135   0.00000  Uiso   1.00
H2087  H     0.78271   0.58368   0.08607   0.00000  Uiso   1.00
H2088  H     0.73910   0.58524   0.11106   0.00000  Uiso   1.00
C2089  C     0.55640   0.78986   0.89688   0.00000  Uiso   1.00
H2090  H     0.57417   0.80543   0.91668   0.00000  Uiso   1.00
H2091  H     0.57307   0.77389   0.87610   0.00000  Uiso   1.00
H2092  H     0.54126   0.81130   0.88090   0.00000  Uiso   1.00
C2093  C     0.93365   0.76523   0.10304   0.00000  Uiso   1.00
H2094  H     0.91210   0.77454   0.08285   0.00000  Uiso   1.00
H2095  H     0.92314   0.74382   0.12278   0.00000  Uiso   1.00
H2096  H     0.94029   0.78959   0.12068   0.00000  Uiso   1.00
loop_
_geom_bond_atom_site_label_1
_geom_bond_atom_site_label_2
_geom_bond_distance
_geom_bond_site_symmetry_2
_ccdc_geom_bond_type
Zn1    O87     1.941   .     S
Zn1    O56     1.948   .     S
Zn1    O41     1.953   .     S
Zn1    O1132   1.943   1_545 S
Zn2    O83     1.943   .     S
Zn2    O55     1.948   .     S
Zn2    O42     1.953   .     S
Zn2    O1136   1.941   1_545 S
Zn3    O78     1.941   .     S
Zn3    O43     1.953   .     S
Zn3    O58     1.946   .     S
Zn3    O609    1.945   1_455 S
Zn4    O86     1.945   .     S
Zn4    O44     1.953   .     S
Zn4    O57     1.946   .     S
Zn4    O601    1.941   1_455 S
Zn5    O60     1.947   .     S
Zn5    O80     1.945   .     S
Zn5    O41     1.953   .     S
Zn5    O1139   1.939   1_545 S
Zn6    O42     1.953   .     S
Zn6    O92     1.939   .     S
Zn6    O59     1.947   .     S
Zn6    O1127   1.945   1_545 S
Zn7    O43     1.947   .     S
Zn7    O54     1.949   .     S
Zn7    O89     1.946   .     S
Zn7    O606    1.942   1_455 S
Zn8    O81     1.942   .     S
Zn8    O44     1.947   .     S
Zn8    O53     1.949   .     S
Zn8    O614    1.946   1_455 S
Zn9    O48     1.948   .     S
Zn9    O71     1.941   .     S
Zn9    O68     1.943   .     S
Zn9    O568    1.953   .     S
Zn10   O47     1.948   .     S
Zn10   O72     1.941   .     S
Zn10   O67     1.943   .     S
Zn10   O43     1.953   .     S
Zn11   O62     1.941   .     S
Zn11   O69     1.945   .     S
Zn11   O50     1.946   .     S
Zn11   O1090   1.953   .     S
Zn12   O49     1.946   .     S
Zn12   O70     1.945   .     S
Zn12   O41     1.953   .     S
Zn12   O61     1.941   .     S
Zn13   O75     1.939   .     S
Zn13   O52     1.947   .     S
Zn13   O64     1.945   .     S
Zn13   O44     1.953   .     S
Zn14   O76     1.939   .     S
Zn14   O51     1.947   .     S
Zn14   O63     1.945   .     S
Zn14   O567    1.953   .     S
Zn15   O42     1.947   .     S
Zn15   O66     1.942   .     S
Zn15   O73     1.946   .     S
Zn15   O46     1.949   .     S
Zn16   O45     1.949   .     S
Zn16   O65     1.942   .     S
Zn16   O74     1.946   .     S
Zn16   O1089   1.947   .     S
C17    C169    1.416   .     A
C17    C461    1.519   .     S
C17    C557    1.407   .     S
C18    C465    1.516   .     S
C18    C558    1.406   .     S
C18    C694    1.416   .     S
C19    C35     1.415   .     A
C19    C469    1.520   .     S
C19    C171    1.413   .     A
C20    C473    1.518   .     S
C20    C172    1.413   .     A
C20    C1084   1.403   1_545 S
C21    C33     1.406   .     A
C21    C165    1.416   .     A
C21    C477    1.519   .     S
C22    C166    1.416   .     A
C22    C34     1.405   .     A
C22    C481    1.519   .     S
C23    C485    1.520   .     S
C23    C167    1.411   .     A
C23    C1083   1.415   1_545 S
C24    C489    1.520   .     S
C24    C36     1.404   .     A
C24    C168    1.414   .     A
C25    C493    1.519   .     S
C25    C177    1.414   .     A
C25    C37     1.407   .     A
C26    C497    1.520   .     S
C26    C178    1.413   .     A
C26    C1086   1.403   .     S
C27    C179    1.415   .     A
C27    C501    1.520   .     S
C27    C563    1.408   .     S
C28    C40     1.408   .     A
C28    C180    1.421   .     A
C28    C505    1.520   .     S
C29    C509    1.519   .     S
C29    C173    1.416   .     A
C29    C1085   1.408   .     S
C30    C38     1.409   .     A
C30    C513    1.519   .     S
C30    C174    1.420   .     A
C31    C39     1.409   .     A
C31    C175    1.415   .     A
C31    C517    1.520   .     S
C32    C521    1.520   .     S
C32    C176    1.412   .     A
C32    C564    1.401   .     S
C33    C111    1.459   .     S
C33    C541    1.407   1_455 S
C34    C112    1.459   .     S
C34    C542    1.406   1_455 S
C35    C109    1.470   .     S
C35    C1071   1.415   .     S
C36    C1158   1.449   .     S
C36    C1068   1.403   .     S
C37    C1077   1.408   1_545 S
C37    C1163   1.459   1_545 S
C38    C116    1.456   .     S
C38    C1074   1.403   1_545 S
C39    C113    1.461   .     S
C39    C551    1.408   1_455 S
C40    C556    1.401   1_455 S
C40    C638    1.454   1_455 S
O41    Zn1064  1.947   1_545 S
O42    Zn1059  1.953   1_545 S
O43    Zn538   1.953   1_455 S
O44    Zn533   1.953   1_455 S
O45    C109    1.284   .     A
O46    C110    1.278   .     S
O47    C111    1.281   .     A
O48    C636    1.282   .     S
O49    C1157   1.283   1_545 S
O50    C1158   1.274   .     A
O51    C635    1.281   .     S
O52    C112    1.279   .     A
O53    C113    1.280   .     S
O54    C638    1.274   1_455 S
O55    C1163   1.281   1_545 S
O56    C116    1.278   .     A
O57    C113    1.280   .     A
O58    C638    1.281   1_455 A
O59    C1163   1.282   1_545 S
O60    C116    1.282   .     A
O61    C117    1.283   .     A
O62    C118    1.287   .     A
O63    C119    1.282   .     A
O64    C120    1.281   .     A
O65    C121    1.279   .     A
O66    C122    1.286   .     A
O67    C123    1.287   .     A
O68    C124    1.282   .     A
O69    C125    1.285   .     A
O70    C126    1.285   .     A
O71    C127    1.281   .     A
O72    C128    1.284   .     A
O73    C129    1.280   .     A
O74    C130    1.283   .     A
O75    C131    1.279   .     A
O76    C132    1.285   .     A
O77    C127    1.282   .     A
O77    Zn528   1.941   .     S
O78    C128    1.285   .     A
O79    C125    1.282   .     A
O79    Zn1054  1.945   .     S
O80    C126    1.286   .     A
O81    C131    1.281   .     A
O82    C132    1.277   .     A
O82    Zn531   1.942   .     S
O83    C129    1.282   .     A
O84    C130    1.278   .     A
O84    Zn1049  1.943   .     S
O85    C119    1.282   .     A
O85    Zn527   1.945   .     S
O86    C120    1.285   .     A
O87    C117    1.280   .     A
O88    C118    1.282   .     A
O88    Zn1050  1.941   .     S
O89    C123    1.279   .     A
O90    C124    1.283   .     A
O90    Zn532   1.946   .     S
O91    C121    1.286   .     A
O91    Zn1053  1.939   .     S
O92    C122    1.280   .     A
C93    C165    1.418   .     A
C93    C98     1.405   .     A
C93    C729    1.518   1_455 S
C94    C97     1.405   .     A
C94    C209    1.518   .     S
C94    C690    1.419   .     S
C95    C167    1.415   .     A
C95    C100    1.403   .     A
C95    C213    1.519   .     S
C96    C99     1.403   .     A
C96    C168    1.421   .     A
C96    C217    1.517   .     S
C97    C169    1.419   .     A
C97    C745    1.518   .     S
C98    C170    1.419   .     A
C98    C225    1.518   .     S
C99    C229    1.518   .     S
C99    C171    1.415   .     A
C100   C172    1.422   .     A
C100   C233    1.517   .     S
C101   C173    1.417   .     A
C101   C237    1.518   .     S
C101   C106    1.403   1_556 S
C102   C241    1.516   .     S
C102   C174    1.424   .     A
C102   C105    1.404   1_554 S
C103   C175    1.414   .     A
C103   C245    1.519   .     S
C103   C108    1.403   1_556 S
C104   C176    1.420   .     A
C104   C249    1.517   .     S
C104   C107    1.403   1_554 S
C105   C253    1.519   .     S
C105   C177    1.414   .     A
C105   C102    1.404   1_556 S
C106   C178    1.419   .     A
C106   C257    1.518   .     S
C106   C101    1.403   1_554 S
C107   C261    1.518   .     S
C107   C179    1.416   .     A
C107   C104    1.403   1_556 S
C108   C265    1.516   .     S
C108   C180    1.423   .     A
C108   C103    1.403   1_554 S
C109   O1097   1.283   .     S
C110   O1098   1.274   1_545 A
C110   C1084   1.449   1_545 S
C111   O575    1.281   1_455 S
C112   O572    1.282   1_455 S
C114   O582    1.281   .     A
C114   C564    1.454   .     S
C114   O578    1.274   .     S
C115   O1103   1.281   .     S
C115   O1107   1.282   .     S
C115   C1085   1.459   .     S
C117   C183    1.456   .     S
C118   C184    1.466   .     S
C119   C185    1.458   .     S
C120   C186    1.462   .     S
C121   C187    1.463   .     S
C122   C188    1.466   .     S
C123   C181    1.468   .     S
C124   C182    1.467   .     S
C125   C191    1.466   .     S
C126   C192    1.470   .     S
C127   C193    1.456   .     S
C128   C194    1.466   .     S
C129   C195    1.461   .     S
C130   C196    1.459   .     S
C131   C189    1.456   .     S
C132   C190    1.458   .     S
C133   C196    1.411   .     A
C133   N269    1.429   .     S
C133   C148    1.401   .     A
C134   N275    1.429   .     S
C134   C147    1.399   .     A
C134   C195    1.413   .     A
C135   C146    1.402   .     A
C135   C194    1.415   .     A
C135   N281    1.426   .     S
C136   N287    1.429   .     S
C136   C145    1.403   .     A
C136   C193    1.408   .     A
C137   C144    1.402   .     A
C137   N293    1.425   .     S
C137   C192    1.416   .     A
C138   C143    1.412   .     A
C138   C191    1.412   .     A
C138   N299    1.426   .     S
C139   C190    1.411   .     A
C139   C142    1.402   .     A
C139   N305    1.426   .     S
C140   C189    1.408   .     A
C140   C141    1.403   .     A
C140   N311    1.429   .     S
C141   N317    1.427   .     S
C141   C188    1.415   .     A
C142   C187    1.411   .     A
C142   N323    1.428   .     S
C143   N329    1.428   .     S
C143   C186    1.408   .     A
C144   C185    1.410   .     A
C144   N335    1.430   .     S
C145   C184    1.415   .     A
C145   N341    1.427   .     S
C146   C183    1.411   .     A
C146   N347    1.430   .     S
C147   N353    1.427   .     S
C147   C182    1.418   .     A
C148   C181    1.418   .     A
C148   N359    1.426   .     S
C149   C182    1.417   .     A
C149   N365    1.427   .     S
C149   C164    1.394   .     A
C150   C163    1.395   .     A
C150   C181    1.410   .     A
C150   N371    1.425   .     S
C151   C184    1.414   .     A
C151   N377    1.426   .     S
C151   C162    1.407   .     A
C152   N383    1.429   .     S
C152   C161    1.402   .     A
C152   C183    1.409   .     A
C153   C160    1.408   .     A
C153   N389    1.426   .     S
C153   C186    1.408   .     A
C154   C159    1.403   .     A
C154   N395    1.429   .     S
C154   C185    1.410   .     A
C155   C158    1.406   .     A
C155   N401    1.426   .     S
C155   C188    1.413   .     A
C156   C187    1.416   .     A
C156   C157    1.402   .     A
C156   N407    1.425   .     S
C157   C190    1.406   .     A
C157   N413    1.429   .     S
C158   C189    1.411   .     A
C158   N419    1.431   .     S
C159   C192    1.417   .     A
C159   N425    1.427   .     S
C160   N431    1.426   .     S
C160   C191    1.409   .     A
C161   N437    1.427   .     S
C161   C194    1.416   .     A
C162   C193    1.411   .     A
C162   N443    1.432   .     S
C163   N449    1.423   .     S
C163   C196    1.410   .     A
C164   C195    1.413   .     A
C164   N455    1.428   .     S
C165   C197    1.420   .     A
C166   C198    1.420   .     A
C166   C618    1.419   1_455 S
C167   C1247   1.414   1_545 S
C168   C200    1.423   .     A
C169   C721    1.419   .     S
C170   C198    1.420   .     A
C170   C542    1.416   1_455 S
C171   C199    1.415   .     A
C172   C1248   1.422   1_545 S
C173   C1249   1.419   .     S
C174   C202    1.424   .     A
C175   C203    1.417   .     A
C176   C728    1.421   .     S
C177   C201    1.417   .     A
C178   C1250   1.421   .     S
C179   C727    1.419   .     S
C180   C204    1.425   .     A
C197   C198    1.410   .     A
C197   C693    1.419   1_455 S
C199   C200    1.407   .     A
C199   C1215   1.414   .     S
C200   C1220   1.422   .     S
C201   C1221   1.419   1_545 S
C201   C202    1.412   1_556 S
C202   C1226   1.421   1_545 S
C202   C201    1.412   1_554 S
C203   C703    1.419   1_455 S
C203   C204    1.411   1_556 S
C204   C700    1.421   1_455 S
C204   C203    1.411   1_554 S
C205   H206    1.108   .     S
C205   H208    1.111   .     S
C205   C617    1.518   .     S
C205   H731    1.110   .     S
H207   C729    1.110   1_455 S
C209   H212    1.111   .     S
C209   H210    1.108   .     S
C209   H735    1.110   .     S
H211   C733    1.110   1_455 S
C213   H215    1.109   .     S
C213   H214    1.109   .     S
C213   H216    1.111   .     S
C217   H218    1.110   .     S
C217   H220    1.109   .     S
C217   H219    1.108   .     S
C221   H224    1.111   .     S
C221   H222    1.108   .     S
C221   C621    1.518   1_455 S
C221   H747    1.110   1_455 S
H223   C745    1.110   .     S
C225   H228    1.111   .     S
C225   H226    1.108   .     S
C225   H751    1.110   1_455 S
H227   C749    1.110   .     S
C229   H230    1.109   .     S
C229   H232    1.111   .     S
C229   H231    1.110   .     S
C233   H234    1.109   .     S
C233   H236    1.110   .     S
C233   H235    1.109   .     S
C237   H240    1.111   .     S
C237   H239    1.110   .     S
C237   H238    1.108   .     S
C241   H242    1.109   .     S
C241   H244    1.110   .     S
C241   H243    1.109   .     S
C245   H246    1.111   .     S
C245   H248    1.109   .     S
C245   H247    1.109   .     S
C249   H250    1.111   .     S
C249   H252    1.110   .     S
C249   H251    1.107   .     S
C253   H254    1.109   .     S
C253   H256    1.111   .     S
C253   H255    1.109   .     S
C257   H260    1.111   .     S
C257   H258    1.108   .     S
C257   H259    1.110   .     S
C261   H263    1.110   .     S
C261   H264    1.111   .     S
C261   H262    1.109   .     S
C265   H268    1.110   .     S
C265   H267    1.109   .     S
C265   H266    1.109   .     S
N269   H270    1.031   .     S
N269   C271    1.450   .     S
C271   H272    1.110   .     S
C271   H274    1.110   .     S
C271   H273    1.112   .     S
N275   H276    1.029   .     S
N275   C277    1.447   .     S
C277   H279    1.111   .     S
C277   H280    1.111   .     S
C277   H278    1.111   .     S
N281   H282    1.031   .     S
N281   C283    1.444   .     S
C283   H286    1.109   .     S
C283   H284    1.107   .     S
C283   H285    1.111   .     S
N287   H288    1.029   .     S
N287   C289    1.447   .     S
C289   H292    1.111   .     S
C289   H291    1.111   .     S
C289   H290    1.111   .     S
N293   H294    1.031   .     S
N293   C295    1.444   .     S
C295   H297    1.111   .     S
C295   H296    1.107   .     S
C295   H298    1.109   .     S
N299   H300    1.031   .     S
N299   C301    1.449   .     S
C301   H302    1.109   .     S
C301   H304    1.109   .     S
C301   H303    1.110   .     S
N305   C307    1.450   .     S
N305   H306    1.031   .     S
C307   H308    1.110   .     S
C307   H310    1.106   .     S
C307   H309    1.113   .     S
N311   C313    1.447   .     S
N311   H312    1.029   .     S
C313   H315    1.111   .     S
C313   H314    1.111   .     S
C313   H316    1.111   .     S
N317   C319    1.450   .     S
N317   H318    1.031   .     S
C319   H321    1.110   .     S
C319   H320    1.110   .     S
C319   H322    1.109   .     S
N323   H324    1.031   .     S
N323   C325    1.450   .     S
C325   H327    1.112   .     S
C325   H326    1.110   .     S
C325   H328    1.109   .     S
N329   C331    1.447   .     S
N329   H330    1.029   .     S
C331   H334    1.111   .     S
C331   H333    1.110   .     S
C331   H332    1.110   .     S
N335   H336    1.029   .     S
N335   C337    1.449   .     S
C337   H338    1.109   .     S
C337   H340    1.110   .     S
C337   H339    1.109   .     S
N341   C343    1.450   .     S
N341   H342    1.031   .     S
C343   H345    1.111   .     S
C343   H344    1.110   .     S
C343   H346    1.109   .     S
N347   H348    1.029   .     S
N347   C349    1.448   .     S
C349   H352    1.109   .     S
C349   H350    1.109   .     S
C349   H351    1.109   .     S
N353   C355    1.449   .     S
N353   H354    1.031   .     S
C355   H356    1.110   .     S
C355   H357    1.111   .     S
C355   H358    1.110   .     S
N359   H360    1.030   .     S
N359   C361    1.452   .     S
C361   H364    1.108   .     S
C361   H363    1.110   .     S
C361   H362    1.109   .     S
N365   H366    1.031   .     S
N365   C367    1.446   .     S
C367   H370    1.109   .     S
C367   H369    1.112   .     S
C367   H368    1.109   .     S
N371   H372    1.031   .     S
N371   C373    1.448   .     S
C373   H376    1.111   .     S
C373   H375    1.108   .     S
C373   H374    1.111   .     S
N377   C379    1.444   .     S
N377   H378    1.030   .     S
C379   H382    1.109   .     S
C379   H380    1.107   .     S
C379   H381    1.111   .     S
N383   H384    1.029   .     S
N383   C385    1.447   .     S
C385   H387    1.111   .     S
C385   H386    1.111   .     S
C385   H388    1.111   .     S
N389   C391    1.449   .     S
N389   H390    1.030   .     S
C391   H394    1.110   .     S
C391   H393    1.113   .     S
C391   H392    1.110   .     S
N395   H396    1.029   .     S
N395   C397    1.447   .     S
C397   H399    1.111   .     S
C397   H398    1.111   .     S
C397   H400    1.111   .     S
N401   H402    1.030   .     S
N401   C403    1.445   .     S
C403   H405    1.111   .     S
C403   H406    1.109   .     S
C403   H404    1.107   .     S
N407   C409    1.450   .     S
N407   H408    1.030   .     S
C409   H410    1.110   .     S
C409   H412    1.110   .     S
C409   H411    1.108   .     S
N413   C415    1.447   .     S
N413   H414    1.029   .     S
C415   H417    1.111   .     S
C415   H416    1.111   .     S
C415   H418    1.111   .     S
N419   H420    1.029   .     S
N419   C421    1.449   .     S
C421   H422    1.109   .     S
C421   H424    1.109   .     S
C421   H423    1.109   .     S
N425   H426    1.031   .     S
N425   C427    1.450   .     S
C427   H428    1.110   .     S
C427   H429    1.111   .     S
C427   H430    1.109   .     S
N431   H432    1.030   .     S
N431   C433    1.449   .     S
C433   H435    1.113   .     S
C433   H436    1.111   .     S
C433   H434    1.111   .     S
N437   C439    1.449   .     S
N437   H438    1.031   .     S
C439   H441    1.110   .     S
C439   H440    1.110   .     S
C439   H442    1.109   .     S
N443   C445    1.450   .     S
N443   H444    1.029   .     S
C445   H446    1.110   .     S
C445   H448    1.109   .     S
C445   H447    1.109   .     S
N449   C451    1.448   .     S
N449   H450    1.029   .     S
C451   H454    1.113   .     S
C451   H452    1.109   .     S
C451   H453    1.111   .     S
N455   C457    1.447   .     S
N455   H456    1.030   .     S
C457   H458    1.110   .     S
C457   H460    1.109   .     S
C457   H459    1.110   .     S
C461   H462    1.109   .     S
C461   H464    1.110   .     S
C461   H463    1.106   .     S
C465   H468    1.109   .     S
C465   H466    1.104   .     S
C465   H467    1.107   .     S
C469   H470    1.109   .     S
C469   H472    1.110   .     S
C469   H471    1.106   .     S
C473   H476    1.102   .     S
C473   H1522   1.107   1_545 S
C473   H1523   1.110   1_545 S
H474   C1521   1.107   .     S
H475   C1521   1.110   .     S
C477   H479    1.106   .     S
C477   H478    1.109   .     S
C477   H480    1.110   .     S
C481   H483    1.106   .     S
C481   H482    1.109   .     S
C481   H484    1.110   .     S
C485   H488    1.110   .     S
C485   H486    1.109   .     S
C485   H487    1.106   .     S
C489   H491    1.108   .     S
C489   H492    1.109   .     S
C489   H1538   1.107   .     S
H490   C1537   1.107   1_545 S
C493   H495    1.106   .     S
C493   H494    1.107   .     S
C493   H496    1.110   .     S
C497   H500    1.110   .     S
C497   H499    1.107   .     S
C497   H498    1.110   .     S
C501   H503    1.106   .     S
C501   H502    1.109   .     S
C501   H504    1.110   .     S
C505   H508    1.108   .     S
C505   H507    1.109   .     S
C505   H506    1.104   .     S
C509   H511    1.106   .     S
C509   H510    1.108   .     S
C509   H512    1.110   .     S
C513   H515    1.110   .     S
C513   H516    1.102   .     S
C513   H514    1.102   .     S
C517   H519    1.111   .     S
C517   H518    1.105   .     S
C517   H520    1.108   .     S
C521   H523    1.108   .     S
C521   H522    1.107   .     S
C521   H524    1.110   .     S
Zn525  O611    1.941   .     S
Zn525  O580    1.948   .     S
Zn525  O565    1.953   .     S
Zn525  O1656   1.943   1_545 S
Zn526  O607    1.943   .     S
Zn526  O579    1.948   .     S
Zn526  O566    1.953   .     S
Zn526  O1660   1.941   1_545 S
Zn527  O602    1.941   .     S
Zn527  O567    1.953   .     S
Zn527  O582    1.946   .     S
Zn528  O610    1.945   .     S
Zn528  O568    1.953   .     S
Zn528  O581    1.946   .     S
Zn529  O584    1.947   .     S
Zn529  O604    1.945   .     S
Zn529  O565    1.953   .     S
Zn529  O1663   1.939   1_545 S
Zn530  O566    1.953   .     S
Zn530  O616    1.939   .     S
Zn530  O583    1.947   .     S
Zn530  O1651   1.945   1_545 S
Zn531  O567    1.947   .     S
Zn531  O578    1.949   .     S
Zn531  O613    1.946   .     S
Zn532  O605    1.942   .     S
Zn532  O568    1.947   .     S
Zn532  O577    1.949   .     S
Zn533  O572    1.948   .     S
Zn533  O595    1.941   .     S
Zn533  O592    1.943   .     S
Zn533  O44     1.953   1_655 S
Zn534  O571    1.948   .     S
Zn534  O596    1.941   .     S
Zn534  O591    1.943   .     S
Zn534  O567    1.953   .     S
Zn535  O586    1.941   .     S
Zn535  O593    1.945   .     S
Zn535  O574    1.946   .     S
Zn535  O1614   1.953   .     S
Zn536  O573    1.946   .     S
Zn536  O594    1.945   .     S
Zn536  O565    1.953   .     S
Zn536  O585    1.941   .     S
Zn537  O599    1.939   .     S
Zn537  O576    1.947   .     S
Zn537  O588    1.945   .     S
Zn537  O568    1.953   .     S
Zn538  O600    1.939   .     S
Zn538  O575    1.947   .     S
Zn538  O587    1.945   .     S
Zn538  O43     1.953   1_655 S
Zn539  O566    1.947   .     S
Zn539  O590    1.942   .     S
Zn539  O597    1.946   .     S
Zn539  O570    1.949   .     S
Zn540  O569    1.949   .     S
Zn540  O589    1.942   .     S
Zn540  O598    1.946   .     S
Zn540  O1613   1.947   .     S
C541   C693    1.416   .     A
C541   C985    1.519   .     S
C541   C33     1.407   1_655 S
C542   C989    1.516   .     S
C542   C34     1.406   1_655 S
C542   C170    1.416   1_655 S
C543   C559    1.415   .     A
C543   C993    1.520   .     S
C543   C695    1.413   .     A
C544   C997    1.518   .     S
C544   C696    1.413   .     A
C544   C1608   1.403   1_545 S
C545   C557    1.406   .     A
C545   C689    1.416   .     A
C545   C1001   1.519   .     S
C546   C690    1.416   .     A
C546   C558    1.405   .     A
C546   C1005   1.519   .     S
C547   C1009   1.520   .     S
C547   C691    1.411   .     A
C547   C1607   1.415   1_545 S
C548   C1013   1.520   .     S
C548   C560    1.404   .     A
C548   C692    1.414   .     A
C549   C1017   1.519   .     S
C549   C701    1.414   .     A
C549   C561    1.407   .     A
C550   C1021   1.520   .     S
C550   C702    1.413   .     A
C550   C1610   1.403   .     S
C551   C703    1.415   .     A
C551   C1025   1.520   .     S
C551   C39     1.408   1_655 S
C552   C564    1.408   .     A
C552   C704    1.421   .     A
C552   C1029   1.520   .     S
C553   C1033   1.519   .     S
C553   C697    1.416   .     A
C553   C1609   1.408   .     S
C554   C562    1.409   .     A
C554   C1037   1.519   .     S
C554   C698    1.420   .     A
C555   C563    1.409   .     A
C555   C699    1.415   .     A
C555   C1041   1.520   .     S
C556   C1045   1.520   .     S
C556   C700    1.412   .     A
C556   C40     1.401   1_655 S
C557   C635    1.459   .     S
C558   C636    1.459   .     S
C559   C633    1.470   .     S
C559   C1595   1.415   .     S
C560   C1682   1.449   .     S
C560   C1592   1.403   .     S
C561   C1601   1.408   1_545 S
C561   C1687   1.459   1_545 S
C562   C640    1.456   .     S
C562   C1598   1.403   1_545 S
C563   C637    1.461   .     S
O565   Zn1588  1.947   1_545 S
O566   Zn1583  1.953   1_545 S
O569   C633    1.284   .     A
O570   C634    1.278   .     S
O571   C635    1.281   .     A
O572   C112    1.282   1_655 S
O573   C1681   1.283   1_545 S
O574   C1682   1.274   .     A
O575   C111    1.281   1_655 S
O576   C636    1.279   .     A
O577   C637    1.280   .     S
O579   C1687   1.281   1_545 S
O580   C640    1.278   .     A
O581   C637    1.280   .     A
O583   C1687   1.282   1_545 S
O584   C640    1.282   .     A
O585   C641    1.283   .     A
O586   C642    1.287   .     A
O587   C643    1.282   .     A
O588   C644    1.281   .     A
O589   C645    1.279   .     A
O590   C646    1.286   .     A
O591   C647    1.287   .     A
O592   C648    1.282   .     A
O593   C649    1.285   .     A
O594   C650    1.285   .     A
O595   C651    1.281   .     A
O596   C652    1.284   .     A
O597   C653    1.280   .     A
O598   C654    1.283   .     A
O599   C655    1.279   .     A
O600   C656    1.285   .     A
O601   C651    1.282   .     A
O601   Zn4     1.941   1_655 S
O602   C652    1.285   .     A
O603   C649    1.282   .     A
O603   Zn1578  1.945   .     S
O604   C650    1.286   .     A
O605   C655    1.281   .     A
O606   C656    1.277   .     A
O606   Zn7     1.942   1_655 S
O607   C653    1.282   .     A
O608   C654    1.278   .     A
O608   Zn1573  1.943   .     S
O609   C643    1.282   .     A
O609   Zn3     1.945   1_655 S
O610   C644    1.285   .     A
O611   C641    1.280   .     A
O612   C642    1.282   .     A
O612   Zn1574  1.941   .     S
O613   C647    1.279   .     A
O614   C648    1.283   .     A
O614   Zn8     1.946   1_655 S
O615   C645    1.286   .     A
O615   Zn1577  1.939   .     S
O616   C646    1.280   .     A
C617   C689    1.418   .     A
C617   C622    1.405   .     A
C618   C621    1.405   .     A
C618   C733    1.518   .     S
C618   C166    1.419   1_655 S
C619   C691    1.415   .     A
C619   C624    1.403   .     A
C619   C737    1.519   .     S
C620   C623    1.403   .     A
C620   C692    1.421   .     A
C620   C741    1.517   .     S
C621   C693    1.419   .     A
C621   C221    1.518   1_655 S
C622   C694    1.419   .     A
C622   C749    1.518   .     S
C623   C753    1.518   .     S
C623   C695    1.415   .     A
C624   C696    1.422   .     A
C624   C757    1.517   .     S
C625   C697    1.417   .     A
C625   C761    1.518   .     S
C625   C630    1.403   1_556 S
C626   C765    1.516   .     S
C626   C698    1.424   .     A
C626   C629    1.404   1_554 S
C627   C699    1.414   .     A
C627   C769    1.519   .     S
C627   C632    1.403   1_556 S
C628   C700    1.420   .     A
C628   C773    1.517   .     S
C628   C631    1.403   1_554 S
C629   C777    1.519   .     S
C629   C701    1.414   .     A
C629   C626    1.404   1_556 S
C630   C702    1.419   .     A
C630   C781    1.518   .     S
C630   C625    1.403   1_554 S
C631   C785    1.518   .     S
C631   C703    1.416   .     A
C631   C628    1.403   1_556 S
C632   C789    1.516   .     S
C632   C704    1.423   .     A
C632   C627    1.403   1_554 S
C633   O1621   1.283   .     S
C634   O1622   1.274   1_545 A
C634   C1608   1.449   1_545 S
C638   O58     1.281   1_655 A
C638   C40     1.454   1_655 S
C638   O54     1.274   1_655 S
C639   O1627   1.281   .     S
C639   O1631   1.282   .     S
C639   C1609   1.459   .     S
C641   C707    1.456   .     S
C642   C708    1.466   .     S
C643   C709    1.458   .     S
C644   C710    1.462   .     S
C645   C711    1.463   .     S
C646   C712    1.466   .     S
C647   C705    1.468   .     S
C648   C706    1.467   .     S
C649   C715    1.466   .     S
C650   C716    1.470   .     S
C651   C717    1.456   .     S
C652   C718    1.466   .     S
C653   C719    1.461   .     S
C654   C720    1.459   .     S
C655   C713    1.456   .     S
C656   C714    1.458   .     S
C657   C720    1.411   .     A
C657   N793    1.429   .     S
C657   C672    1.401   .     A
C658   N799    1.429   .     S
C658   C671    1.399   .     A
C658   C719    1.413   .     A
C659   C670    1.402   .     A
C659   C718    1.415   .     A
C659   N805    1.426   .     S
C660   N811    1.429   .     S
C660   C669    1.403   .     A
C660   C717    1.408   .     A
C661   C668    1.402   .     A
C661   N817    1.425   .     S
C661   C716    1.416   .     A
C662   C667    1.412   .     A
C662   C715    1.412   .     A
C662   N823    1.426   .     S
C663   C714    1.411   .     A
C663   C666    1.402   .     A
C663   N829    1.426   .     S
C664   C713    1.408   .     A
C664   C665    1.403   .     A
C664   N835    1.429   .     S
C665   N841    1.427   .     S
C665   C712    1.415   .     A
C666   C711    1.411   .     A
C666   N847    1.428   .     S
C667   N853    1.428   .     S
C667   C710    1.408   .     A
C668   C709    1.410   .     A
C668   N859    1.430   .     S
C669   C708    1.415   .     A
C669   N865    1.427   .     S
C670   C707    1.411   .     A
C670   N871    1.430   .     S
C671   N877    1.427   .     S
C671   C706    1.418   .     A
C672   C705    1.418   .     A
C672   N883    1.426   .     S
C673   C706    1.417   .     A
C673   N889    1.427   .     S
C673   C688    1.394   .     A
C674   C687    1.395   .     A
C674   C705    1.410   .     A
C674   N895    1.425   .     S
C675   C708    1.414   .     A
C675   N901    1.426   .     S
C675   C686    1.407   .     A
C676   N907    1.429   .     S
C676   C685    1.402   .     A
C676   C707    1.409   .     A
C677   C684    1.408   .     A
C677   N913    1.426   .     S
C677   C710    1.408   .     A
C678   C683    1.403   .     A
C678   N919    1.429   .     S
C678   C709    1.410   .     A
C679   C682    1.406   .     A
C679   N925    1.426   .     S
C679   C712    1.413   .     A
C680   C711    1.416   .     A
C680   C681    1.402   .     A
C680   N931    1.425   .     S
C681   C714    1.406   .     A
C681   N937    1.429   .     S
C682   C713    1.411   .     A
C682   N943    1.431   .     S
C683   C716    1.417   .     A
C683   N949    1.427   .     S
C684   N955    1.426   .     S
C684   C715    1.409   .     A
C685   N961    1.427   .     S
C685   C718    1.416   .     A
C686   C717    1.411   .     A
C686   N967    1.432   .     S
C687   N973    1.423   .     S
C687   C720    1.410   .     A
C688   C719    1.413   .     A
C688   N979    1.428   .     S
C689   C721    1.420   .     A
C690   C722    1.420   .     A
C691   C1771   1.414   1_545 S
C692   C724    1.423   .     A
C693   C197    1.419   1_655 S
C694   C722    1.420   .     A
C695   C723    1.415   .     A
C696   C1772   1.422   1_545 S
C697   C1773   1.419   .     S
C698   C726    1.424   .     A
C699   C727    1.417   .     A
C700   C204    1.421   1_655 S
C701   C725    1.417   .     A
C702   C1774   1.421   .     S
C703   C203    1.419   1_655 S
C704   C728    1.425   .     A
C721   C722    1.410   .     A
C723   C724    1.407   .     A
C723   C1739   1.414   .     S
C724   C1744   1.422   .     S
C725   C1745   1.419   1_545 S
C725   C726    1.412   1_556 S
C726   C1750   1.421   1_545 S
C726   C725    1.412   1_554 S
C727   C728    1.411   1_556 S
C728   C727    1.411   1_554 S
C729   H730    1.108   .     S
C729   H732    1.111   .     S
C729   C93     1.518   1_655 S
C729   H207    1.110   1_655 S
C733   H736    1.111   .     S
C733   H734    1.108   .     S
C733   H211    1.110   1_655 S
C737   H739    1.109   .     S
C737   H738    1.109   .     S
C737   H740    1.111   .     S
C741   H742    1.110   .     S
C741   H744    1.109   .     S
C741   H743    1.108   .     S
C745   H748    1.111   .     S
C745   H746    1.108   .     S
H747   C221    1.110   1_655 S
C749   H752    1.111   .     S
C749   H750    1.108   .     S
H751   C225    1.110   1_655 S
C753   H754    1.109   .     S
C753   H756    1.111   .     S
C753   H755    1.110   .     S
C757   H758    1.109   .     S
C757   H760    1.110   .     S
C757   H759    1.109   .     S
C761   H764    1.111   .     S
C761   H763    1.110   .     S
C761   H762    1.108   .     S
C765   H766    1.109   .     S
C765   H768    1.110   .     S
C765   H767    1.109   .     S
C769   H770    1.111   .     S
C769   H772    1.109   .     S
C769   H771    1.109   .     S
C773   H774    1.111   .     S
C773   H776    1.110   .     S
C773   H775    1.107   .     S
C777   H778    1.109   .     S
C777   H780    1.111   .     S
C777   H779    1.109   .     S
C781   H784    1.111   .     S
C781   H782    1.108   .     S
C781   H783    1.110   .     S
C785   H787    1.110   .     S
C785   H788    1.111   .     S
C785   H786    1.109   .     S
C789   H792    1.110   .     S
C789   H791    1.109   .     S
C789   H790    1.109   .     S
N793   H794    1.031   .     S
N793   C795    1.450   .     S
C795   H796    1.110   .     S
C795   H798    1.110   .     S
C795   H797    1.112   .     S
N799   H800    1.029   .     S
N799   C801    1.447   .     S
C801   H803    1.111   .     S
C801   H804    1.111   .     S
C801   H802    1.111   .     S
N805   H806    1.031   .     S
N805   C807    1.444   .     S
C807   H810    1.109   .     S
C807   H808    1.107   .     S
C807   H809    1.111   .     S
N811   H812    1.029   .     S
N811   C813    1.447   .     S
C813   H816    1.111   .     S
C813   H815    1.111   .     S
C813   H814    1.111   .     S
N817   H818    1.031   .     S
N817   C819    1.444   .     S
C819   H821    1.111   .     S
C819   H820    1.107   .     S
C819   H822    1.109   .     S
N823   H824    1.031   .     S
N823   C825    1.449   .     S
C825   H826    1.109   .     S
C825   H828    1.109   .     S
C825   H827    1.110   .     S
N829   C831    1.450   .     S
N829   H830    1.031   .     S
C831   H832    1.110   .     S
C831   H834    1.106   .     S
C831   H833    1.113   .     S
N835   C837    1.447   .     S
N835   H836    1.029   .     S
C837   H839    1.111   .     S
C837   H838    1.111   .     S
C837   H840    1.111   .     S
N841   C843    1.450   .     S
N841   H842    1.031   .     S
C843   H845    1.110   .     S
C843   H844    1.110   .     S
C843   H846    1.109   .     S
N847   H848    1.031   .     S
N847   C849    1.450   .     S
C849   H851    1.112   .     S
C849   H850    1.110   .     S
C849   H852    1.109   .     S
N853   C855    1.447   .     S
N853   H854    1.029   .     S
C855   H858    1.111   .     S
C855   H857    1.110   .     S
C855   H856    1.110   .     S
N859   H860    1.029   .     S
N859   C861    1.449   .     S
C861   H862    1.109   .     S
C861   H864    1.110   .     S
C861   H863    1.109   .     S
N865   C867    1.450   .     S
N865   H866    1.031   .     S
C867   H869    1.111   .     S
C867   H868    1.110   .     S
C867   H870    1.109   .     S
N871   H872    1.029   .     S
N871   C873    1.448   .     S
C873   H876    1.109   .     S
C873   H874    1.109   .     S
C873   H875    1.109   .     S
N877   C879    1.449   .     S
N877   H878    1.031   .     S
C879   H880    1.110   .     S
C879   H881    1.111   .     S
C879   H882    1.110   .     S
N883   H884    1.030   .     S
N883   C885    1.452   .     S
C885   H888    1.108   .     S
C885   H887    1.110   .     S
C885   H886    1.109   .     S
N889   H890    1.031   .     S
N889   C891    1.446   .     S
C891   H894    1.109   .     S
C891   H893    1.112   .     S
C891   H892    1.109   .     S
N895   H896    1.031   .     S
N895   C897    1.448   .     S
C897   H900    1.111   .     S
C897   H899    1.108   .     S
C897   H898    1.111   .     S
N901   C903    1.444   .     S
N901   H902    1.030   .     S
C903   H906    1.109   .     S
C903   H904    1.107   .     S
C903   H905    1.111   .     S
N907   H908    1.029   .     S
N907   C909    1.447   .     S
C909   H911    1.111   .     S
C909   H910    1.111   .     S
C909   H912    1.111   .     S
N913   C915    1.449   .     S
N913   H914    1.030   .     S
C915   H918    1.110   .     S
C915   H917    1.113   .     S
C915   H916    1.110   .     S
N919   H920    1.029   .     S
N919   C921    1.447   .     S
C921   H923    1.111   .     S
C921   H922    1.111   .     S
C921   H924    1.111   .     S
N925   H926    1.030   .     S
N925   C927    1.445   .     S
C927   H929    1.111   .     S
C927   H930    1.109   .     S
C927   H928    1.107   .     S
N931   C933    1.450   .     S
N931   H932    1.030   .     S
C933   H934    1.110   .     S
C933   H936    1.110   .     S
C933   H935    1.108   .     S
N937   C939    1.447   .     S
N937   H938    1.029   .     S
C939   H941    1.111   .     S
C939   H940    1.111   .     S
C939   H942    1.111   .     S
N943   H944    1.029   .     S
N943   C945    1.449   .     S
C945   H946    1.109   .     S
C945   H948    1.109   .     S
C945   H947    1.109   .     S
N949   H950    1.031   .     S
N949   C951    1.450   .     S
C951   H952    1.110   .     S
C951   H953    1.111   .     S
C951   H954    1.109   .     S
N955   H956    1.030   .     S
N955   C957    1.449   .     S
C957   H959    1.113   .     S
C957   H960    1.111   .     S
C957   H958    1.111   .     S
N961   C963    1.449   .     S
N961   H962    1.031   .     S
C963   H965    1.110   .     S
C963   H964    1.110   .     S
C963   H966    1.109   .     S
N967   C969    1.450   .     S
N967   H968    1.029   .     S
C969   H970    1.110   .     S
C969   H972    1.109   .     S
C969   H971    1.109   .     S
N973   C975    1.448   .     S
N973   H974    1.029   .     S
C975   H978    1.113   .     S
C975   H976    1.109   .     S
C975   H977    1.111   .     S
N979   C981    1.447   .     S
N979   H980    1.030   .     S
C981   H982    1.110   .     S
C981   H984    1.109   .     S
C981   H983    1.110   .     S
C985   H986    1.109   .     S
C985   H988    1.110   .     S
C985   H987    1.106   .     S
C989   H992    1.109   .     S
C989   H990    1.104   .     S
C989   H991    1.107   .     S
C993   H994    1.109   .     S
C993   H996    1.110   .     S
C993   H995    1.106   .     S
C997   H1000   1.102   .     S
C997   H2046   1.107   1_545 S
C997   H2047   1.110   1_545 S
H998   C2045   1.107   .     S
H999   C2045   1.110   .     S
C1001  H1003   1.106   .     S
C1001  H1002   1.109   .     S
C1001  H1004   1.110   .     S
C1005  H1007   1.106   .     S
C1005  H1006   1.109   .     S
C1005  H1008   1.110   .     S
C1009  H1012   1.110   .     S
C1009  H1010   1.109   .     S
C1009  H1011   1.106   .     S
C1013  H1015   1.108   .     S
C1013  H1016   1.109   .     S
C1013  H2062   1.107   .     S
H1014  C2061   1.107   1_545 S
C1017  H1019   1.106   .     S
C1017  H1018   1.107   .     S
C1017  H1020   1.110   .     S
C1021  H1024   1.110   .     S
C1021  H1023   1.107   .     S
C1021  H1022   1.110   .     S
C1025  H1027   1.106   .     S
C1025  H1026   1.109   .     S
C1025  H1028   1.110   .     S
C1029  H1032   1.108   .     S
C1029  H1031   1.109   .     S
C1029  H1030   1.104   .     S
C1033  H1035   1.106   .     S
C1033  H1034   1.108   .     S
C1033  H1036   1.110   .     S
C1037  H1039   1.110   .     S
C1037  H1040   1.102   .     S
C1037  H1038   1.102   .     S
C1041  H1043   1.111   .     S
C1041  H1042   1.105   .     S
C1041  H1044   1.108   .     S
C1045  H1047   1.108   .     S
C1045  H1046   1.107   .     S
C1045  H1048   1.110   .     S
Zn1049 O1135   1.941   .     S
Zn1049 O1104   1.948   .     S
Zn1049 O1089   1.953   .     S
Zn1050 O1131   1.943   .     S
Zn1050 O1103   1.948   .     S
Zn1050 O1090   1.953   .     S
Zn1051 O1126   1.941   .     S
Zn1051 O1091   1.953   .     S
Zn1051 O1106   1.946   .     S
Zn1051 O1657   1.945   1_455 S
Zn1052 O1134   1.945   .     S
Zn1052 O1092   1.953   .     S
Zn1052 O1105   1.946   .     S
Zn1052 O1649   1.941   1_455 S
Zn1053 O1108   1.947   .     S
Zn1053 O1128   1.945   .     S
Zn1053 O1089   1.953   .     S
Zn1054 O1090   1.953   .     S
Zn1054 O1140   1.939   .     S
Zn1054 O1107   1.947   .     S
Zn1055 O1091   1.947   .     S
Zn1055 O1102   1.949   .     S
Zn1055 O1137   1.946   .     S
Zn1055 O1654   1.942   1_455 S
Zn1056 O1129   1.942   .     S
Zn1056 O1092   1.947   .     S
Zn1056 O1101   1.949   .     S
Zn1056 O1662   1.946   1_455 S
Zn1057 O1096   1.948   .     S
Zn1057 O1119   1.941   .     S
Zn1057 O1116   1.943   .     S
Zn1057 O1616   1.953   .     S
Zn1058 O1095   1.948   .     S
Zn1058 O1120   1.941   .     S
Zn1058 O1115   1.943   .     S
Zn1058 O1091   1.953   .     S
Zn1059 O1110   1.941   .     S
Zn1059 O1117   1.945   .     S
Zn1059 O1098   1.946   .     S
Zn1059 O42     1.953   1_565 S
Zn1060 O1097   1.946   .     S
Zn1060 O1118   1.945   .     S
Zn1060 O1089   1.953   .     S
Zn1060 O1109   1.941   .     S
Zn1061 O1123   1.939   .     S
Zn1061 O1100   1.947   .     S
Zn1061 O1112   1.945   .     S
Zn1061 O1092   1.953   .     S
Zn1062 O1124   1.939   .     S
Zn1062 O1099   1.947   .     S
Zn1062 O1111   1.945   .     S
Zn1062 O1615   1.953   .     S
Zn1063 O1090   1.947   .     S
Zn1063 O1114   1.942   .     S
Zn1063 O1121   1.946   .     S
Zn1063 O1094   1.949   .     S
Zn1064 O1093   1.949   .     S
Zn1064 O1113   1.942   .     S
Zn1064 O1122   1.946   .     S
Zn1064 O41     1.947   1_565 S
C1065  C1217   1.416   .     A
C1065  C1509   1.519   .     S
C1065  C1605   1.407   .     S
C1066  C1513   1.516   .     S
C1066  C1606   1.406   .     S
C1066  C1742   1.416   .     S
C1067  C1083   1.415   .     A
C1067  C1517   1.520   .     S
C1067  C1219   1.413   .     A
C1068  C1521   1.518   .     S
C1068  C1220   1.413   .     A
C1069  C1081   1.406   .     A
C1069  C1213   1.416   .     A
C1069  C1525   1.519   .     S
C1070  C1214   1.416   .     A
C1070  C1082   1.405   .     A
C1070  C1529   1.519   .     S
C1071  C1533   1.520   .     S
C1071  C1215   1.411   .     A
C1072  C1537   1.520   .     S
C1072  C1084   1.404   .     A
C1072  C1216   1.414   .     A
C1073  C1541   1.519   .     S
C1073  C1225   1.414   .     A
C1073  C1085   1.407   .     A
C1074  C1545   1.520   .     S
C1074  C1226   1.413   .     A
C1074  C38     1.403   1_565 S
C1075  C1227   1.415   .     A
C1075  C1549   1.520   .     S
C1075  C1611   1.408   .     S
C1076  C1088   1.408   .     A
C1076  C1228   1.421   .     A
C1076  C1553   1.520   .     S
C1077  C1557   1.519   .     S
C1077  C1221   1.416   .     A
C1077  C37     1.408   1_565 S
C1078  C1086   1.409   .     A
C1078  C1561   1.519   .     S
C1078  C1222   1.420   .     A
C1079  C1087   1.409   .     A
C1079  C1223   1.415   .     A
C1079  C1565   1.520   .     S
C1080  C1569   1.520   .     S
C1080  C1224   1.412   .     A
C1080  C1612   1.401   .     S
C1081  C1159   1.459   .     S
C1081  C1589   1.407   1_455 S
C1082  C1160   1.459   .     S
C1082  C1590   1.406   1_455 S
C1083  C1157   1.470   .     S
C1083  C23     1.415   1_565 S
C1084  C110    1.449   1_565 S
C1084  C20     1.403   1_565 S
C1086  C1164   1.456   .     S
C1087  C1161   1.461   .     S
C1087  C1599   1.408   1_455 S
C1088  C1604   1.401   1_455 S
C1088  C1686   1.454   1_455 S
O1091  Zn1586  1.953   1_455 S
O1092  Zn1581  1.953   1_455 S
O1093  C1157   1.284   .     A
O1094  C1158   1.278   .     S
O1095  C1159   1.281   .     A
O1096  C1684   1.282   .     S
O1098  C110    1.274   1_565 A
O1099  C1683   1.281   .     S
O1100  C1160   1.279   .     A
O1101  C1161   1.280   .     S
O1102  C1686   1.274   1_455 S
O1104  C1164   1.278   .     A
O1105  C1161   1.280   .     A
O1106  C1686   1.281   1_455 A
O1108  C1164   1.282   .     A
O1109  C1165   1.283   .     A
O1110  C1166   1.287   .     A
O1111  C1167   1.282   .     A
O1112  C1168   1.281   .     A
O1113  C1169   1.279   .     A
O1114  C1170   1.286   .     A
O1115  C1171   1.287   .     A
O1116  C1172   1.282   .     A
O1117  C1173   1.285   .     A
O1118  C1174   1.285   .     A
O1119  C1175   1.281   .     A
O1120  C1176   1.284   .     A
O1121  C1177   1.280   .     A
O1122  C1178   1.283   .     A
O1123  C1179   1.279   .     A
O1124  C1180   1.285   .     A
O1125  C1175   1.282   .     A
O1125  Zn1576  1.941   .     S
O1126  C1176   1.285   .     A
O1127  C1173   1.282   .     A
O1127  Zn6     1.945   1_565 S
O1128  C1174   1.286   .     A
O1129  C1179   1.281   .     A
O1130  C1180   1.277   .     A
O1130  Zn1579  1.942   .     S
O1131  C1177   1.282   .     A
O1132  C1178   1.278   .     A
O1132  Zn1     1.943   1_565 S
O1133  C1167   1.282   .     A
O1133  Zn1575  1.945   .     S
O1134  C1168   1.285   .     A
O1135  C1165   1.280   .     A
O1136  C1166   1.282   .     A
O1136  Zn2     1.941   1_565 S
O1137  C1171   1.279   .     A
O1138  C1172   1.283   .     A
O1138  Zn1580  1.946   .     S
O1139  C1169   1.286   .     A
O1139  Zn5     1.939   1_565 S
O1140  C1170   1.280   .     A
C1141  C1213   1.418   .     A
C1141  C1146   1.405   .     A
C1141  C1777   1.518   1_455 S
C1142  C1145   1.405   .     A
C1142  C1257   1.518   .     S
C1142  C1738   1.419   .     S
C1143  C1215   1.415   .     A
C1143  C1148   1.403   .     A
C1143  C1261   1.519   .     S
C1144  C1147   1.403   .     A
C1144  C1216   1.421   .     A
C1144  C1265   1.517   .     S
C1145  C1217   1.419   .     A
C1145  C1793   1.518   .     S
C1146  C1218   1.419   .     A
C1146  C1273   1.518   .     S
C1147  C1277   1.518   .     S
C1147  C1219   1.415   .     A
C1148  C1220   1.422   .     A
C1148  C1281   1.517   .     S
C1149  C1221   1.417   .     A
C1149  C1285   1.518   .     S
C1149  C1154   1.403   1_556 S
C1150  C1289   1.516   .     S
C1150  C1222   1.424   .     A
C1150  C1153   1.404   1_554 S
C1151  C1223   1.414   .     A
C1151  C1293   1.519   .     S
C1151  C1156   1.403   1_556 S
C1152  C1224   1.420   .     A
C1152  C1297   1.517   .     S
C1152  C1155   1.403   1_554 S
C1153  C1301   1.519   .     S
C1153  C1225   1.414   .     A
C1153  C1150   1.404   1_556 S
C1154  C1226   1.419   .     A
C1154  C1305   1.518   .     S
C1154  C1149   1.403   1_554 S
C1155  C1309   1.518   .     S
C1155  C1227   1.416   .     A
C1155  C1152   1.403   1_556 S
C1156  C1313   1.516   .     S
C1156  C1228   1.423   .     A
C1156  C1151   1.403   1_554 S
C1157  O49     1.283   1_565 S
C1159  O1623   1.281   1_455 S
C1160  O1620   1.282   1_455 S
C1162  O1630   1.281   .     A
C1162  C1612   1.454   .     S
C1162  O1626   1.274   .     S
C1163  O55     1.281   1_565 S
C1163  O59     1.282   1_565 S
C1163  C37     1.459   1_565 S
C1165  C1231   1.456   .     S
C1166  C1232   1.466   .     S
C1167  C1233   1.458   .     S
C1168  C1234   1.462   .     S
C1169  C1235   1.463   .     S
C1170  C1236   1.466   .     S
C1171  C1229   1.468   .     S
C1172  C1230   1.467   .     S
C1173  C1239   1.466   .     S
C1174  C1240   1.470   .     S
C1175  C1241   1.456   .     S
C1176  C1242   1.466   .     S
C1177  C1243   1.461   .     S
C1178  C1244   1.459   .     S
C1179  C1237   1.456   .     S
C1180  C1238   1.458   .     S
C1181  C1244   1.411   .     A
C1181  N1317   1.429   .     S
C1181  C1196   1.401   .     A
C1182  N1323   1.429   .     S
C1182  C1195   1.399   .     A
C1182  C1243   1.413   .     A
C1183  C1194   1.402   .     A
C1183  C1242   1.415   .     A
C1183  N1329   1.426   .     S
C1184  N1335   1.429   .     S
C1184  C1193   1.403   .     A
C1184  C1241   1.408   .     A
C1185  C1192   1.402   .     A
C1185  N1341   1.425   .     S
C1185  C1240   1.416   .     A
C1186  C1191   1.412   .     A
C1186  C1239   1.412   .     A
C1186  N1347   1.426   .     S
C1187  C1238   1.411   .     A
C1187  C1190   1.402   .     A
C1187  N1353   1.426   .     S
C1188  C1237   1.408   .     A
C1188  C1189   1.403   .     A
C1188  N1359   1.429   .     S
C1189  N1365   1.427   .     S
C1189  C1236   1.415   .     A
C1190  C1235   1.411   .     A
C1190  N1371   1.428   .     S
C1191  N1377   1.428   .     S
C1191  C1234   1.408   .     A
C1192  C1233   1.410   .     A
C1192  N1383   1.430   .     S
C1193  C1232   1.415   .     A
C1193  N1389   1.427   .     S
C1194  C1231   1.411   .     A
C1194  N1395   1.430   .     S
C1195  N1401   1.427   .     S
C1195  C1230   1.418   .     A
C1196  C1229   1.418   .     A
C1196  N1407   1.426   .     S
C1197  C1230   1.417   .     A
C1197  N1413   1.427   .     S
C1197  C1212   1.394   .     A
C1198  C1211   1.395   .     A
C1198  C1229   1.410   .     A
C1198  N1419   1.425   .     S
C1199  C1232   1.414   .     A
C1199  N1425   1.426   .     S
C1199  C1210   1.407   .     A
C1200  N1431   1.429   .     S
C1200  C1209   1.402   .     A
C1200  C1231   1.409   .     A
C1201  C1208   1.408   .     A
C1201  N1437   1.426   .     S
C1201  C1234   1.408   .     A
C1202  C1207   1.403   .     A
C1202  N1443   1.429   .     S
C1202  C1233   1.410   .     A
C1203  C1206   1.406   .     A
C1203  N1449   1.426   .     S
C1203  C1236   1.413   .     A
C1204  C1235   1.416   .     A
C1204  C1205   1.402   .     A
C1204  N1455   1.425   .     S
C1205  C1238   1.406   .     A
C1205  N1461   1.429   .     S
C1206  C1237   1.411   .     A
C1206  N1467   1.431   .     S
C1207  C1240   1.417   .     A
C1207  N1473   1.427   .     S
C1208  N1479   1.426   .     S
C1208  C1239   1.409   .     A
C1209  N1485   1.427   .     S
C1209  C1242   1.416   .     A
C1210  C1241   1.411   .     A
C1210  N1491   1.432   .     S
C1211  N1497   1.423   .     S
C1211  C1244   1.410   .     A
C1212  C1243   1.413   .     A
C1212  N1503   1.428   .     S
C1213  C1245   1.420   .     A
C1214  C1246   1.420   .     A
C1214  C1666   1.419   1_455 S
C1216  C1248   1.423   .     A
C1217  C1769   1.419   .     S
C1218  C1246   1.420   .     A
C1218  C1590   1.416   1_455 S
C1219  C1247   1.415   .     A
C1221  C201    1.419   1_565 S
C1222  C1250   1.424   .     A
C1223  C1251   1.417   .     A
C1224  C1776   1.421   .     S
C1225  C1249   1.417   .     A
C1226  C202    1.421   1_565 S
C1227  C1775   1.419   .     S
C1228  C1252   1.425   .     A
C1245  C1246   1.410   .     A
C1245  C1741   1.419   1_455 S
C1247  C1248   1.407   .     A
C1247  C167    1.414   1_565 S
C1248  C172    1.422   1_565 S
C1249  C1250   1.412   1_556 S
C1250  C1249   1.412   1_554 S
C1251  C1751   1.419   1_455 S
C1251  C1252   1.411   1_556 S
C1252  C1748   1.421   1_455 S
C1252  C1251   1.411   1_554 S
C1253  H1254   1.108   .     S
C1253  H1256   1.111   .     S
C1253  C1665   1.518   .     S
C1253  H1779   1.110   .     S
H1255  C1777   1.110   1_455 S
C1257  H1260   1.111   .     S
C1257  H1258   1.108   .     S
C1257  H1783   1.110   .     S
H1259  C1781   1.110   1_455 S
C1261  H1263   1.109   .     S
C1261  H1262   1.109   .     S
C1261  H1264   1.111   .     S
C1265  H1266   1.110   .     S
C1265  H1268   1.109   .     S
C1265  H1267   1.108   .     S
C1269  H1272   1.111   .     S
C1269  H1270   1.108   .     S
C1269  C1669   1.518   1_455 S
C1269  H1795   1.110   1_455 S
H1271  C1793   1.110   .     S
C1273  H1276   1.111   .     S
C1273  H1274   1.108   .     S
C1273  H1799   1.110   1_455 S
H1275  C1797   1.110   .     S
C1277  H1278   1.109   .     S
C1277  H1280   1.111   .     S
C1277  H1279   1.110   .     S
C1281  H1282   1.109   .     S
C1281  H1284   1.110   .     S
C1281  H1283   1.109   .     S
C1285  H1288   1.111   .     S
C1285  H1287   1.110   .     S
C1285  H1286   1.108   .     S
C1289  H1290   1.109   .     S
C1289  H1292   1.110   .     S
C1289  H1291   1.109   .     S
C1293  H1294   1.111   .     S
C1293  H1296   1.109   .     S
C1293  H1295   1.109   .     S
C1297  H1298   1.111   .     S
C1297  H1300   1.110   .     S
C1297  H1299   1.107   .     S
C1301  H1302   1.109   .     S
C1301  H1304   1.111   .     S
C1301  H1303   1.109   .     S
C1305  H1308   1.111   .     S
C1305  H1306   1.108   .     S
C1305  H1307   1.110   .     S
C1309  H1311   1.110   .     S
C1309  H1312   1.111   .     S
C1309  H1310   1.109   .     S
C1313  H1316   1.110   .     S
C1313  H1315   1.109   .     S
C1313  H1314   1.109   .     S
N1317  H1318   1.031   .     S
N1317  C1319   1.450   .     S
C1319  H1320   1.110   .     S
C1319  H1322   1.110   .     S
C1319  H1321   1.112   .     S
N1323  H1324   1.029   .     S
N1323  C1325   1.447   .     S
C1325  H1327   1.111   .     S
C1325  H1328   1.111   .     S
C1325  H1326   1.111   .     S
N1329  H1330   1.031   .     S
N1329  C1331   1.444   .     S
C1331  H1334   1.109   .     S
C1331  H1332   1.107   .     S
C1331  H1333   1.111   .     S
N1335  H1336   1.029   .     S
N1335  C1337   1.447   .     S
C1337  H1340   1.111   .     S
C1337  H1339   1.111   .     S
C1337  H1338   1.111   .     S
N1341  H1342   1.031   .     S
N1341  C1343   1.444   .     S
C1343  H1345   1.111   .     S
C1343  H1344   1.107   .     S
C1343  H1346   1.109   .     S
N1347  H1348   1.031   .     S
N1347  C1349   1.449   .     S
C1349  H1350   1.109   .     S
C1349  H1352   1.109   .     S
C1349  H1351   1.110   .     S
N1353  C1355   1.450   .     S
N1353  H1354   1.031   .     S
C1355  H1356   1.110   .     S
C1355  H1358   1.106   .     S
C1355  H1357   1.113   .     S
N1359  C1361   1.447   .     S
N1359  H1360   1.029   .     S
C1361  H1363   1.111   .     S
C1361  H1362   1.111   .     S
C1361  H1364   1.111   .     S
N1365  C1367   1.450   .     S
N1365  H1366   1.031   .     S
C1367  H1369   1.110   .     S
C1367  H1368   1.110   .     S
C1367  H1370   1.109   .     S
N1371  H1372   1.031   .     S
N1371  C1373   1.450   .     S
C1373  H1375   1.112   .     S
C1373  H1374   1.110   .     S
C1373  H1376   1.109   .     S
N1377  C1379   1.447   .     S
N1377  H1378   1.029   .     S
C1379  H1382   1.111   .     S
C1379  H1381   1.110   .     S
C1379  H1380   1.110   .     S
N1383  H1384   1.029   .     S
N1383  C1385   1.449   .     S
C1385  H1386   1.109   .     S
C1385  H1388   1.110   .     S
C1385  H1387   1.109   .     S
N1389  C1391   1.450   .     S
N1389  H1390   1.031   .     S
C1391  H1393   1.111   .     S
C1391  H1392   1.110   .     S
C1391  H1394   1.109   .     S
N1395  H1396   1.029   .     S
N1395  C1397   1.448   .     S
C1397  H1400   1.109   .     S
C1397  H1398   1.109   .     S
C1397  H1399   1.109   .     S
N1401  C1403   1.449   .     S
N1401  H1402   1.031   .     S
C1403  H1404   1.110   .     S
C1403  H1405   1.111   .     S
C1403  H1406   1.110   .     S
N1407  H1408   1.030   .     S
N1407  C1409   1.452   .     S
C1409  H1412   1.108   .     S
C1409  H1411   1.110   .     S
C1409  H1410   1.109   .     S
N1413  H1414   1.031   .     S
N1413  C1415   1.446   .     S
C1415  H1418   1.109   .     S
C1415  H1417   1.112   .     S
C1415  H1416   1.109   .     S
N1419  H1420   1.031   .     S
N1419  C1421   1.448   .     S
C1421  H1424   1.111   .     S
C1421  H1423   1.108   .     S
C1421  H1422   1.111   .     S
N1425  C1427   1.444   .     S
N1425  H1426   1.030   .     S
C1427  H1430   1.109   .     S
C1427  H1428   1.107   .     S
C1427  H1429   1.111   .     S
N1431  H1432   1.029   .     S
N1431  C1433   1.447   .     S
C1433  H1435   1.111   .     S
C1433  H1434   1.111   .     S
C1433  H1436   1.111   .     S
N1437  C1439   1.449   .     S
N1437  H1438   1.030   .     S
C1439  H1442   1.110   .     S
C1439  H1441   1.113   .     S
C1439  H1440   1.110   .     S
N1443  H1444   1.029   .     S
N1443  C1445   1.447   .     S
C1445  H1447   1.111   .     S
C1445  H1446   1.111   .     S
C1445  H1448   1.111   .     S
N1449  H1450   1.030   .     S
N1449  C1451   1.445   .     S
C1451  H1453   1.111   .     S
C1451  H1454   1.109   .     S
C1451  H1452   1.107   .     S
N1455  C1457   1.450   .     S
N1455  H1456   1.030   .     S
C1457  H1458   1.110   .     S
C1457  H1460   1.110   .     S
C1457  H1459   1.108   .     S
N1461  C1463   1.447   .     S
N1461  H1462   1.029   .     S
C1463  H1465   1.111   .     S
C1463  H1464   1.111   .     S
C1463  H1466   1.111   .     S
N1467  H1468   1.029   .     S
N1467  C1469   1.449   .     S
C1469  H1470   1.109   .     S
C1469  H1472   1.109   .     S
C1469  H1471   1.109   .     S
N1473  H1474   1.031   .     S
N1473  C1475   1.450   .     S
C1475  H1476   1.110   .     S
C1475  H1477   1.111   .     S
C1475  H1478   1.109   .     S
N1479  H1480   1.030   .     S
N1479  C1481   1.449   .     S
C1481  H1483   1.113   .     S
C1481  H1484   1.111   .     S
C1481  H1482   1.111   .     S
N1485  C1487   1.449   .     S
N1485  H1486   1.031   .     S
C1487  H1489   1.110   .     S
C1487  H1488   1.110   .     S
C1487  H1490   1.109   .     S
N1491  C1493   1.450   .     S
N1491  H1492   1.029   .     S
C1493  H1494   1.110   .     S
C1493  H1496   1.109   .     S
C1493  H1495   1.109   .     S
N1497  C1499   1.448   .     S
N1497  H1498   1.029   .     S
C1499  H1502   1.113   .     S
C1499  H1500   1.109   .     S
C1499  H1501   1.111   .     S
N1503  C1505   1.447   .     S
N1503  H1504   1.030   .     S
C1505  H1506   1.110   .     S
C1505  H1508   1.109   .     S
C1505  H1507   1.110   .     S
C1509  H1510   1.109   .     S
C1509  H1512   1.110   .     S
C1509  H1511   1.106   .     S
C1513  H1516   1.109   .     S
C1513  H1514   1.104   .     S
C1513  H1515   1.107   .     S
C1517  H1518   1.109   .     S
C1517  H1520   1.110   .     S
C1517  H1519   1.106   .     S
C1521  H1524   1.102   .     S
H1522  C473    1.107   1_565 S
H1523  C473    1.110   1_565 S
C1525  H1527   1.106   .     S
C1525  H1526   1.109   .     S
C1525  H1528   1.110   .     S
C1529  H1531   1.106   .     S
C1529  H1530   1.109   .     S
C1529  H1532   1.110   .     S
C1533  H1536   1.110   .     S
C1533  H1534   1.109   .     S
C1533  H1535   1.106   .     S
C1537  H1539   1.108   .     S
C1537  H1540   1.109   .     S
C1537  H490    1.107   1_565 S
C1541  H1543   1.106   .     S
C1541  H1542   1.107   .     S
C1541  H1544   1.110   .     S
C1545  H1548   1.110   .     S
C1545  H1547   1.107   .     S
C1545  H1546   1.110   .     S
C1549  H1551   1.106   .     S
C1549  H1550   1.109   .     S
C1549  H1552   1.110   .     S
C1553  H1556   1.108   .     S
C1553  H1555   1.109   .     S
C1553  H1554   1.104   .     S
C1557  H1559   1.106   .     S
C1557  H1558   1.108   .     S
C1557  H1560   1.110   .     S
C1561  H1563   1.110   .     S
C1561  H1564   1.102   .     S
C1561  H1562   1.102   .     S
C1565  H1567   1.111   .     S
C1565  H1566   1.105   .     S
C1565  H1568   1.108   .     S
C1569  H1571   1.108   .     S
C1569  H1570   1.107   .     S
C1569  H1572   1.110   .     S
Zn1573 O1659   1.941   .     S
Zn1573 O1628   1.948   .     S
Zn1573 O1613   1.953   .     S
Zn1574 O1655   1.943   .     S
Zn1574 O1627   1.948   .     S
Zn1574 O1614   1.953   .     S
Zn1575 O1650   1.941   .     S
Zn1575 O1615   1.953   .     S
Zn1575 O1630   1.946   .     S
Zn1576 O1658   1.945   .     S
Zn1576 O1616   1.953   .     S
Zn1576 O1629   1.946   .     S
Zn1577 O1632   1.947   .     S
Zn1577 O1652   1.945   .     S
Zn1577 O1613   1.953   .     S
Zn1578 O1614   1.953   .     S
Zn1578 O1664   1.939   .     S
Zn1578 O1631   1.947   .     S
Zn1579 O1615   1.947   .     S
Zn1579 O1626   1.949   .     S
Zn1579 O1661   1.946   .     S
Zn1580 O1653   1.942   .     S
Zn1580 O1616   1.947   .     S
Zn1580 O1625   1.949   .     S
Zn1581 O1620   1.948   .     S
Zn1581 O1643   1.941   .     S
Zn1581 O1640   1.943   .     S
Zn1581 O1092   1.953   1_655 S
Zn1582 O1619   1.948   .     S
Zn1582 O1644   1.941   .     S
Zn1582 O1639   1.943   .     S
Zn1582 O1615   1.953   .     S
Zn1583 O1634   1.941   .     S
Zn1583 O1641   1.945   .     S
Zn1583 O1622   1.946   .     S
Zn1583 O566    1.953   1_565 S
Zn1584 O1621   1.946   .     S
Zn1584 O1642   1.945   .     S
Zn1584 O1613   1.953   .     S
Zn1584 O1633   1.941   .     S
Zn1585 O1647   1.939   .     S
Zn1585 O1624   1.947   .     S
Zn1585 O1636   1.945   .     S
Zn1585 O1616   1.953   .     S
Zn1586 O1648   1.939   .     S
Zn1586 O1623   1.947   .     S
Zn1586 O1635   1.945   .     S
Zn1586 O1091   1.953   1_655 S
Zn1587 O1614   1.947   .     S
Zn1587 O1638   1.942   .     S
Zn1587 O1645   1.946   .     S
Zn1587 O1618   1.949   .     S
Zn1588 O1617   1.949   .     S
Zn1588 O1637   1.942   .     S
Zn1588 O1646   1.946   .     S
Zn1588 O565    1.947   1_565 S
C1589  C1741   1.416   .     A
C1589  C2033   1.519   .     S
C1589  C1081   1.407   1_655 S
C1590  C2037   1.516   .     S
C1590  C1082   1.406   1_655 S
C1590  C1218   1.416   1_655 S
C1591  C1607   1.415   .     A
C1591  C2041   1.520   .     S
C1591  C1743   1.413   .     A
C1592  C2045   1.518   .     S
C1592  C1744   1.413   .     A
C1593  C1605   1.406   .     A
C1593  C1737   1.416   .     A
C1593  C2049   1.519   .     S
C1594  C1738   1.416   .     A
C1594  C1606   1.405   .     A
C1594  C2053   1.519   .     S
C1595  C2057   1.520   .     S
C1595  C1739   1.411   .     A
C1596  C2061   1.520   .     S
C1596  C1608   1.404   .     A
C1596  C1740   1.414   .     A
C1597  C2065   1.519   .     S
C1597  C1749   1.414   .     A
C1597  C1609   1.407   .     A
C1598  C2069   1.520   .     S
C1598  C1750   1.413   .     A
C1598  C562    1.403   1_565 S
C1599  C1751   1.415   .     A
C1599  C2073   1.520   .     S
C1599  C1087   1.408   1_655 S
C1600  C1612   1.408   .     A
C1600  C1752   1.421   .     A
C1600  C2077   1.520   .     S
C1601  C2081   1.519   .     S
C1601  C1745   1.416   .     A
C1601  C561    1.408   1_565 S
C1602  C1610   1.409   .     A
C1602  C2085   1.519   .     S
C1602  C1746   1.420   .     A
C1603  C1611   1.409   .     A
C1603  C1747   1.415   .     A
C1603  C2089   1.520   .     S
C1604  C2093   1.520   .     S
C1604  C1748   1.412   .     A
C1604  C1088   1.401   1_655 S
C1605  C1683   1.459   .     S
C1606  C1684   1.459   .     S
C1607  C1681   1.470   .     S
C1607  C547    1.415   1_565 S
C1608  C634    1.449   1_565 S
C1608  C544    1.403   1_565 S
C1610  C1688   1.456   .     S
C1611  C1685   1.461   .     S
O1617  C1681   1.284   .     A
O1618  C1682   1.278   .     S
O1619  C1683   1.281   .     A
O1620  C1160   1.282   1_655 S
O1622  C634    1.274   1_565 A
O1623  C1159   1.281   1_655 S
O1624  C1684   1.279   .     A
O1625  C1685   1.280   .     S
O1628  C1688   1.278   .     A
O1629  C1685   1.280   .     A
O1632  C1688   1.282   .     A
O1633  C1689   1.283   .     A
O1634  C1690   1.287   .     A
O1635  C1691   1.282   .     A
O1636  C1692   1.281   .     A
O1637  C1693   1.279   .     A
O1638  C1694   1.286   .     A
O1639  C1695   1.287   .     A
O1640  C1696   1.282   .     A
O1641  C1697   1.285   .     A
O1642  C1698   1.285   .     A
O1643  C1699   1.281   .     A
O1644  C1700   1.284   .     A
O1645  C1701   1.280   .     A
O1646  C1702   1.283   .     A
O1647  C1703   1.279   .     A
O1648  C1704   1.285   .     A
O1649  C1699   1.282   .     A
O1649  Zn1052  1.941   1_655 S
O1650  C1700   1.285   .     A
O1651  C1697   1.282   .     A
O1651  Zn530   1.945   1_565 S
O1652  C1698   1.286   .     A
O1653  C1703   1.281   .     A
O1654  C1704   1.277   .     A
O1654  Zn1055  1.942   1_655 S
O1655  C1701   1.282   .     A
O1656  C1702   1.278   .     A
O1656  Zn525   1.943   1_565 S
O1657  C1691   1.282   .     A
O1657  Zn1051  1.945   1_655 S
O1658  C1692   1.285   .     A
O1659  C1689   1.280   .     A
O1660  C1690   1.282   .     A
O1660  Zn526   1.941   1_565 S
O1661  C1695   1.279   .     A
O1662  C1696   1.283   .     A
O1662  Zn1056  1.946   1_655 S
O1663  C1693   1.286   .     A
O1663  Zn529   1.939   1_565 S
O1664  C1694   1.280   .     A
C1665  C1737   1.418   .     A
C1665  C1670   1.405   .     A
C1666  C1669   1.405   .     A
C1666  C1781   1.518   .     S
C1666  C1214   1.419   1_655 S
C1667  C1739   1.415   .     A
C1667  C1672   1.403   .     A
C1667  C1785   1.519   .     S
C1668  C1671   1.403   .     A
C1668  C1740   1.421   .     A
C1668  C1789   1.517   .     S
C1669  C1741   1.419   .     A
C1669  C1269   1.518   1_655 S
C1670  C1742   1.419   .     A
C1670  C1797   1.518   .     S
C1671  C1801   1.518   .     S
C1671  C1743   1.415   .     A
C1672  C1744   1.422   .     A
C1672  C1805   1.517   .     S
C1673  C1745   1.417   .     A
C1673  C1809   1.518   .     S
C1673  C1678   1.403   1_556 S
C1674  C1813   1.516   .     S
C1674  C1746   1.424   .     A
C1674  C1677   1.404   1_554 S
C1675  C1747   1.414   .     A
C1675  C1817   1.519   .     S
C1675  C1680   1.403   1_556 S
C1676  C1748   1.420   .     A
C1676  C1821   1.517   .     S
C1676  C1679   1.403   1_554 S
C1677  C1825   1.519   .     S
C1677  C1749   1.414   .     A
C1677  C1674   1.404   1_556 S
C1678  C1750   1.419   .     A
C1678  C1829   1.518   .     S
C1678  C1673   1.403   1_554 S
C1679  C1833   1.518   .     S
C1679  C1751   1.416   .     A
C1679  C1676   1.403   1_556 S
C1680  C1837   1.516   .     S
C1680  C1752   1.423   .     A
C1680  C1675   1.403   1_554 S
C1681  O573    1.283   1_565 S
C1686  O1106   1.281   1_655 A
C1686  C1088   1.454   1_655 S
C1686  O1102   1.274   1_655 S
C1687  O579    1.281   1_565 S
C1687  O583    1.282   1_565 S
C1687  C561    1.459   1_565 S
C1689  C1755   1.456   .     S
C1690  C1756   1.466   .     S
C1691  C1757   1.458   .     S
C1692  C1758   1.462   .     S
C1693  C1759   1.463   .     S
C1694  C1760   1.466   .     S
C1695  C1753   1.468   .     S
C1696  C1754   1.467   .     S
C1697  C1763   1.466   .     S
C1698  C1764   1.470   .     S
C1699  C1765   1.456   .     S
C1700  C1766   1.466   .     S
C1701  C1767   1.461   .     S
C1702  C1768   1.459   .     S
C1703  C1761   1.456   .     S
C1704  C1762   1.458   .     S
C1705  C1768   1.411   .     A
C1705  N1841   1.429   .     S
C1705  C1720   1.401   .     A
C1706  N1847   1.429   .     S
C1706  C1719   1.399   .     A
C1706  C1767   1.413   .     A
C1707  C1718   1.402   .     A
C1707  C1766   1.415   .     A
C1707  N1853   1.426   .     S
C1708  N1859   1.429   .     S
C1708  C1717   1.403   .     A
C1708  C1765   1.408   .     A
C1709  C1716   1.402   .     A
C1709  N1865   1.425   .     S
C1709  C1764   1.416   .     A
C1710  C1715   1.412   .     A
C1710  C1763   1.412   .     A
C1710  N1871   1.426   .     S
C1711  C1762   1.411   .     A
C1711  C1714   1.402   .     A
C1711  N1877   1.426   .     S
C1712  C1761   1.408   .     A
C1712  C1713   1.403   .     A
C1712  N1883   1.429   .     S
C1713  N1889   1.427   .     S
C1713  C1760   1.415   .     A
C1714  C1759   1.411   .     A
C1714  N1895   1.428   .     S
C1715  N1901   1.428   .     S
C1715  C1758   1.408   .     A
C1716  C1757   1.410   .     A
C1716  N1907   1.430   .     S
C1717  C1756   1.415   .     A
C1717  N1913   1.427   .     S
C1718  C1755   1.411   .     A
C1718  N1919   1.430   .     S
C1719  N1925   1.427   .     S
C1719  C1754   1.418   .     A
C1720  C1753   1.418   .     A
C1720  N1931   1.426   .     S
C1721  C1754   1.417   .     A
C1721  N1937   1.427   .     S
C1721  C1736   1.394   .     A
C1722  C1735   1.395   .     A
C1722  C1753   1.410   .     A
C1722  N1943   1.425   .     S
C1723  C1756   1.414   .     A
C1723  N1949   1.426   .     S
C1723  C1734   1.407   .     A
C1724  N1955   1.429   .     S
C1724  C1733   1.402   .     A
C1724  C1755   1.409   .     A
C1725  C1732   1.408   .     A
C1725  N1961   1.426   .     S
C1725  C1758   1.408   .     A
C1726  C1731   1.403   .     A
C1726  N1967   1.429   .     S
C1726  C1757   1.410   .     A
C1727  C1730   1.406   .     A
C1727  N1973   1.426   .     S
C1727  C1760   1.413   .     A
C1728  C1759   1.416   .     A
C1728  C1729   1.402   .     A
C1728  N1979   1.425   .     S
C1729  C1762   1.406   .     A
C1729  N1985   1.429   .     S
C1730  C1761   1.411   .     A
C1730  N1991   1.431   .     S
C1731  C1764   1.417   .     A
C1731  N1997   1.427   .     S
C1732  N2003   1.426   .     S
C1732  C1763   1.409   .     A
C1733  N2009   1.427   .     S
C1733  C1766   1.416   .     A
C1734  C1765   1.411   .     A
C1734  N2015   1.432   .     S
C1735  N2021   1.423   .     S
C1735  C1768   1.410   .     A
C1736  C1767   1.413   .     A
C1736  N2027   1.428   .     S
C1737  C1769   1.420   .     A
C1738  C1770   1.420   .     A
C1740  C1772   1.423   .     A
C1741  C1245   1.419   1_655 S
C1742  C1770   1.420   .     A
C1743  C1771   1.415   .     A
C1745  C725    1.419   1_565 S
C1746  C1774   1.424   .     A
C1747  C1775   1.417   .     A
C1748  C1252   1.421   1_655 S
C1749  C1773   1.417   .     A
C1750  C726    1.421   1_565 S
C1751  C1251   1.419   1_655 S
C1752  C1776   1.425   .     A
C1769  C1770   1.410   .     A
C1771  C1772   1.407   .     A
C1771  C691    1.414   1_565 S
C1772  C696    1.422   1_565 S
C1773  C1774   1.412   1_556 S
C1774  C1773   1.412   1_554 S
C1775  C1776   1.411   1_556 S
C1776  C1775   1.411   1_554 S
C1777  H1778   1.108   .     S
C1777  H1780   1.111   .     S
C1777  C1141   1.518   1_655 S
C1777  H1255   1.110   1_655 S
C1781  H1784   1.111   .     S
C1781  H1782   1.108   .     S
C1781  H1259   1.110   1_655 S
C1785  H1787   1.109   .     S
C1785  H1786   1.109   .     S
C1785  H1788   1.111   .     S
C1789  H1790   1.110   .     S
C1789  H1792   1.109   .     S
C1789  H1791   1.108   .     S
C1793  H1796   1.111   .     S
C1793  H1794   1.108   .     S
H1795  C1269   1.110   1_655 S
C1797  H1800   1.111   .     S
C1797  H1798   1.108   .     S
H1799  C1273   1.110   1_655 S
C1801  H1802   1.109   .     S
C1801  H1804   1.111   .     S
C1801  H1803   1.110   .     S
C1805  H1806   1.109   .     S
C1805  H1808   1.110   .     S
C1805  H1807   1.109   .     S
C1809  H1812   1.111   .     S
C1809  H1811   1.110   .     S
C1809  H1810   1.108   .     S
C1813  H1814   1.109   .     S
C1813  H1816   1.110   .     S
C1813  H1815   1.109   .     S
C1817  H1818   1.111   .     S
C1817  H1820   1.109   .     S
C1817  H1819   1.109   .     S
C1821  H1822   1.111   .     S
C1821  H1824   1.110   .     S
C1821  H1823   1.107   .     S
C1825  H1826   1.109   .     S
C1825  H1828   1.111   .     S
C1825  H1827   1.109   .     S
C1829  H1832   1.111   .     S
C1829  H1830   1.108   .     S
C1829  H1831   1.110   .     S
C1833  H1835   1.110   .     S
C1833  H1836   1.111   .     S
C1833  H1834   1.109   .     S
C1837  H1840   1.110   .     S
C1837  H1839   1.109   .     S
C1837  H1838   1.109   .     S
N1841  H1842   1.031   .     S
N1841  C1843   1.450   .     S
C1843  H1844   1.110   .     S
C1843  H1846   1.110   .     S
C1843  H1845   1.112   .     S
N1847  H1848   1.029   .     S
N1847  C1849   1.447   .     S
C1849  H1851   1.111   .     S
C1849  H1852   1.111   .     S
C1849  H1850   1.111   .     S
N1853  H1854   1.031   .     S
N1853  C1855   1.444   .     S
C1855  H1858   1.109   .     S
C1855  H1856   1.107   .     S
C1855  H1857   1.111   .     S
N1859  H1860   1.029   .     S
N1859  C1861   1.447   .     S
C1861  H1864   1.111   .     S
C1861  H1863   1.111   .     S
C1861  H1862   1.111   .     S
N1865  H1866   1.031   .     S
N1865  C1867   1.444   .     S
C1867  H1869   1.111   .     S
C1867  H1868   1.107   .     S
C1867  H1870   1.109   .     S
N1871  H1872   1.031   .     S
N1871  C1873   1.449   .     S
C1873  H1874   1.109   .     S
C1873  H1876   1.109   .     S
C1873  H1875   1.110   .     S
N1877  C1879   1.450   .     S
N1877  H1878   1.031   .     S
C1879  H1880   1.110   .     S
C1879  H1882   1.106   .     S
C1879  H1881   1.113   .     S
N1883  C1885   1.447   .     S
N1883  H1884   1.029   .     S
C1885  H1887   1.111   .     S
C1885  H1886   1.111   .     S
C1885  H1888   1.111   .     S
N1889  C1891   1.450   .     S
N1889  H1890   1.031   .     S
C1891  H1893   1.110   .     S
C1891  H1892   1.110   .     S
C1891  H1894   1.109   .     S
N1895  H1896   1.031   .     S
N1895  C1897   1.450   .     S
C1897  H1899   1.112   .     S
C1897  H1898   1.110   .     S
C1897  H1900   1.109   .     S
N1901  C1903   1.447   .     S
N1901  H1902   1.029   .     S
C1903  H1906   1.111   .     S
C1903  H1905   1.110   .     S
C1903  H1904   1.110   .     S
N1907  H1908   1.029   .     S
N1907  C1909   1.449   .     S
C1909  H1910   1.109   .     S
C1909  H1912   1.110   .     S
C1909  H1911   1.109   .     S
N1913  C1915   1.450   .     S
N1913  H1914   1.031   .     S
C1915  H1917   1.111   .     S
C1915  H1916   1.110   .     S
C1915  H1918   1.109   .     S
N1919  H1920   1.029   .     S
N1919  C1921   1.448   .     S
C1921  H1924   1.109   .     S
C1921  H1922   1.109   .     S
C1921  H1923   1.109   .     S
N1925  C1927   1.449   .     S
N1925  H1926   1.031   .     S
C1927  H1928   1.110   .     S
C1927  H1929   1.111   .     S
C1927  H1930   1.110   .     S
N1931  H1932   1.030   .     S
N1931  C1933   1.452   .     S
C1933  H1936   1.108   .     S
C1933  H1935   1.110   .     S
C1933  H1934   1.109   .     S
N1937  H1938   1.031   .     S
N1937  C1939   1.446   .     S
C1939  H1942   1.109   .     S
C1939  H1941   1.112   .     S
C1939  H1940   1.109   .     S
N1943  H1944   1.031   .     S
N1943  C1945   1.448   .     S
C1945  H1948   1.111   .     S
C1945  H1947   1.108   .     S
C1945  H1946   1.111   .     S
N1949  C1951   1.444   .     S
N1949  H1950   1.030   .     S
C1951  H1954   1.109   .     S
C1951  H1952   1.107   .     S
C1951  H1953   1.111   .     S
N1955  H1956   1.029   .     S
N1955  C1957   1.447   .     S
C1957  H1959   1.111   .     S
C1957  H1958   1.111   .     S
C1957  H1960   1.111   .     S
N1961  C1963   1.449   .     S
N1961  H1962   1.030   .     S
C1963  H1966   1.110   .     S
C1963  H1965   1.113   .     S
C1963  H1964   1.110   .     S
N1967  H1968   1.029   .     S
N1967  C1969   1.447   .     S
C1969  H1971   1.111   .     S
C1969  H1970   1.111   .     S
C1969  H1972   1.111   .     S
N1973  H1974   1.030   .     S
N1973  C1975   1.445   .     S
C1975  H1977   1.111   .     S
C1975  H1978   1.109   .     S
C1975  H1976   1.107   .     S
N1979  C1981   1.450   .     S
N1979  H1980   1.030   .     S
C1981  H1982   1.110   .     S
C1981  H1984   1.110   .     S
C1981  H1983   1.108   .     S
N1985  C1987   1.447   .     S
N1985  H1986   1.029   .     S
C1987  H1989   1.111   .     S
C1987  H1988   1.111   .     S
C1987  H1990   1.111   .     S
N1991  H1992   1.029   .     S
N1991  C1993   1.449   .     S
C1993  H1994   1.109   .     S
C1993  H1996   1.109   .     S
C1993  H1995   1.109   .     S
N1997  H1998   1.031   .     S
N1997  C1999   1.450   .     S
C1999  H2000   1.110   .     S
C1999  H2001   1.111   .     S
C1999  H2002   1.109   .     S
N2003  H2004   1.030   .     S
N2003  C2005   1.449   .     S
C2005  H2007   1.113   .     S
C2005  H2008   1.111   .     S
C2005  H2006   1.111   .     S
N2009  C2011   1.449   .     S
N2009  H2010   1.031   .     S
C2011  H2013   1.110   .     S
C2011  H2012   1.110   .     S
C2011  H2014   1.109   .     S
N2015  C2017   1.450   .     S
N2015  H2016   1.029   .     S
C2017  H2018   1.110   .     S
C2017  H2020   1.109   .     S
C2017  H2019   1.109   .     S
N2021  C2023   1.448   .     S
N2021  H2022   1.029   .     S
C2023  H2026   1.113   .     S
C2023  H2024   1.109   .     S
C2023  H2025   1.111   .     S
N2027  C2029   1.447   .     S
N2027  H2028   1.030   .     S
C2029  H2030   1.110   .     S
C2029  H2032   1.109   .     S
C2029  H2031   1.110   .     S
C2033  H2034   1.109   .     S
C2033  H2036   1.110   .     S
C2033  H2035   1.106   .     S
C2037  H2040   1.109   .     S
C2037  H2038   1.104   .     S
C2037  H2039   1.107   .     S
C2041  H2042   1.109   .     S
C2041  H2044   1.110   .     S
C2041  H2043   1.106   .     S
C2045  H2048   1.102   .     S
H2046  C997    1.107   1_565 S
H2047  C997    1.110   1_565 S
C2049  H2051   1.106   .     S
C2049  H2050   1.109   .     S
C2049  H2052   1.110   .     S
C2053  H2055   1.106   .     S
C2053  H2054   1.109   .     S
C2053  H2056   1.110   .     S
C2057  H2060   1.110   .     S
C2057  H2058   1.109   .     S
C2057  H2059   1.106   .     S
C2061  H2063   1.108   .     S
C2061  H2064   1.109   .     S
C2061  H1014   1.107   1_565 S
C2065  H2067   1.106   .     S
C2065  H2066   1.107   .     S
C2065  H2068   1.110   .     S
C2069  H2072   1.110   .     S
C2069  H2071   1.107   .     S
C2069  H2070   1.110   .     S
C2073  H2075   1.106   .     S
C2073  H2074   1.109   .     S
C2073  H2076   1.110   .     S
C2077  H2080   1.108   .     S
C2077  H2079   1.109   .     S
C2077  H2078   1.104   .     S
C2081  H2083   1.106   .     S
C2081  H2082   1.108   .     S
C2081  H2084   1.110   .     S
C2085  H2087   1.110   .     S
C2085  H2088   1.102   .     S
C2085  H2086   1.102   .     S
C2089  H2091   1.111   .     S
C2089  H2090   1.105   .     S
C2089  H2092   1.108   .     S
C2093  H2095   1.108   .     S
C2093  H2094   1.107   .     S
C2093  H2096   1.110   .     S
