data_str_m3_o1_o17_pcu_sym.113
_audit_creation_date              2020-01-03
_audit_creation_method            'Materials Studio'
_symmetry_space_group_name_H-M    'P1'
_symmetry_Int_Tables_number       1
_symmetry_cell_setting            triclinic
loop_
_symmetry_equiv_pos_as_xyz
  x,y,z
_cell_length_a                    32.4276
_cell_length_b                    29.3982
_cell_length_c                    30.0357
_cell_angle_alpha                 90.3291
_cell_angle_beta                  88.3930
_cell_angle_gamma                 88.3602
loop_
_atom_site_label
_atom_site_type_symbol
_atom_site_fract_x
_atom_site_fract_y
_atom_site_fract_z
_atom_site_U_iso_or_equiv
_atom_site_adp_type
_atom_site_occupancy
O1     O     0.10559   0.20487   0.24999   0.00000  Uiso   1.00
O2     O     0.22774   0.12846   0.25000   0.00000  Uiso   1.00
O3     O     0.22774   0.20487   0.25000   0.00000  Uiso   1.00
O4     O     0.10559   0.12846   0.24999   0.00000  Uiso   1.00
C5     C     0.08665   0.16768   0.25401   0.00000  Uiso   1.00
C6     C     0.24697   0.16614   0.25090   0.00000  Uiso   1.00
O7     O     0.16666   0.20489   0.18392   0.00000  Uiso   1.00
O8     O     0.16667   0.12844   0.31607   0.00000  Uiso   1.00
O9     O     0.16667   0.20489   0.31607   0.00000  Uiso   1.00
O10    O     0.16666   0.12844   0.18392   0.00000  Uiso   1.00
C11    C     0.16696   0.16634   0.16331   0.00000  Uiso   1.00
C12    C     0.16539   0.16695   0.33646   0.00000  Uiso   1.00
Zn13   Zn    0.16667   0.21771   0.25000   0.00000  Uiso   1.00
Zn14   Zn    0.16667   0.11563   0.25000   0.00000  Uiso   1.00
C15    C     0.20251   0.16828   0.40564   0.00000  Uiso   1.00
C16    C     0.12858   0.17361   0.09406   0.00000  Uiso   1.00
C17    C     0.16490   0.16786   0.38409   0.00000  Uiso   1.00
C18    C     0.16604   0.16508   0.11535   0.00000  Uiso   1.00
C19    C     0.12688   0.16842   0.40753   0.00000  Uiso   1.00
C20    C     0.20201   0.15203   0.09091   0.00000  Uiso   1.00
C21    C     0.12639   0.16621   0.45424   0.00000  Uiso   1.00
C22    C     0.20225   0.15551   0.04464   0.00000  Uiso   1.00
C23    C     0.16447   0.16137   0.47607   0.00000  Uiso   1.00
C24    C     0.16452   0.16031   0.02283   0.00000  Uiso   1.00
C25    C     0.20261   0.15870   0.45139   0.00000  Uiso   1.00
C26    C     0.12699   0.16447   0.04790   0.00000  Uiso   1.00
C27    C     0.08890   0.16674   0.47962   0.00000  Uiso   1.00
C28    C     0.23965   0.15321   0.01984   0.00000  Uiso   1.00
C29    C     0.08956   0.15995   0.02576   0.00000  Uiso   1.00
C30    C     0.23950   0.14846   0.47378   0.00000  Uiso   1.00
C31    C     0.02219   0.13298   0.28040   0.00000  Uiso   1.00
C32    C     0.31230   0.20553   0.23880   0.00000  Uiso   1.00
C33    C     0.31320   0.12911   0.27361   0.00000  Uiso   1.00
C34    C     0.02000   0.21004   0.24931   0.00000  Uiso   1.00
C35    C     0.29165   0.16578   0.25270   0.00000  Uiso   1.00
C36    C     0.04247   0.17069   0.26239   0.00000  Uiso   1.00
C37    C     0.18881   0.02349   0.28035   0.00000  Uiso   1.00
C38    C     0.14451   0.30983   0.21966   0.00000  Uiso   1.00
C39    C     0.14447   0.02455   0.21969   0.00000  Uiso   1.00
C40    C     0.18885   0.30877   0.28032   0.00000  Uiso   1.00
H41    H     0.20641   0.04134   0.30463   0.00000  Uiso   1.00
H42    H     0.12691   0.29197   0.19539   0.00000  Uiso   1.00
H43    H     0.12674   0.04327   0.19552   0.00000  Uiso   1.00
H44    H     0.20660   0.29005   0.30447   0.00000  Uiso   1.00
N45    N     0.16667   0.28573   0.25000   0.00000  Uiso   1.00
N46    N     0.16667   0.04760   0.25000   0.00000  Uiso   1.00
C47    C     0.24019   0.18603   0.38066   0.00000  Uiso   1.00
H48    H     0.26319   0.19963   0.40341   0.00000  Uiso   1.00
H49    H     0.25445   0.15922   0.35868   0.00000  Uiso   1.00
H50    H     0.23142   0.21562   0.35985   0.00000  Uiso   1.00
C51    C     0.09223   0.19508   0.12029   0.00000  Uiso   1.00
H52    H     0.06880   0.21050   0.09844   0.00000  Uiso   1.00
H53    H     0.07793   0.16959   0.14258   0.00000  Uiso   1.00
H54    H     0.10255   0.22389   0.14079   0.00000  Uiso   1.00
O55    O     0.09032   0.16864   0.38463   0.00000  Uiso   1.00
C56    C     0.08092   0.21298   0.36907   0.00000  Uiso   1.00
H57    H     0.09456   0.24077   0.38877   0.00000  Uiso   1.00
H58    H     0.04692   0.21838   0.37007   0.00000  Uiso   1.00
H59    H     0.09118   0.21613   0.33397   0.00000  Uiso   1.00
O60    O     0.23411   0.12822   0.11067   0.00000  Uiso   1.00
C61    C     0.25940   0.15786   0.13376   0.00000  Uiso   1.00
H62    H     0.25207   0.19466   0.12870   0.00000  Uiso   1.00
H63    H     0.29207   0.15100   0.12326   0.00000  Uiso   1.00
H64    H     0.25692   0.14969   0.16924   0.00000  Uiso   1.00
O65    O     0.05131   0.17245   0.45945   0.00000  Uiso   1.00
C66    C     0.03681   0.21765   0.46748   0.00000  Uiso   1.00
H67    H     0.05996   0.24302   0.45720   0.00000  Uiso   1.00
H68    H     0.02845   0.22342   0.00313   0.00000  Uiso   1.00
H69    H     0.00886   0.22415   0.44778   0.00000  Uiso   1.00
O70    O     0.27659   0.16131   0.03980   0.00000  Uiso   1.00
C71    C     0.28135   0.20905   0.04045   0.00000  Uiso   1.00
H72    H     0.25410   0.22757   0.05598   0.00000  Uiso   1.00
H73    H     0.28683   0.22214   0.00622   0.00000  Uiso   1.00
H74    H     0.30807   0.21729   0.06085   0.00000  Uiso   1.00
C75    C     0.05216   0.13966   0.04844   0.00000  Uiso   1.00
H76    H     0.03843   0.11422   0.02618   0.00000  Uiso   1.00
H77    H     0.06056   0.12120   0.07916   0.00000  Uiso   1.00
H78    H     0.02842   0.16618   0.05674   0.00000  Uiso   1.00
C79    C     0.27798   0.12774   0.45124   0.00000  Uiso   1.00
H80    H     0.29040   0.09946   0.47179   0.00000  Uiso   1.00
H81    H     0.27145   0.11234   0.41852   0.00000  Uiso   1.00
H82    H     0.30220   0.15339   0.44765   0.00000  Uiso   1.00
C83    C     0.04484   0.09925   0.30993   0.00000  Uiso   1.00
H84    H     0.07488   0.11160   0.32091   0.00000  Uiso   1.00
H85    H     0.02676   0.09421   0.34139   0.00000  Uiso   1.00
H86    H     0.05007   0.06624   0.29218   0.00000  Uiso   1.00
C87    C     0.29237   0.24270   0.21059   0.00000  Uiso   1.00
H88    H     0.26744   0.23027   0.19009   0.00000  Uiso   1.00
H89    H     0.27990   0.27086   0.23229   0.00000  Uiso   1.00
H90    H     0.31501   0.25629   0.18598   0.00000  Uiso   1.00
C91    C     0.29158   0.08585   0.28770   0.00000  Uiso   1.00
H92    H     0.27898   0.06907   0.25801   0.00000  Uiso   1.00
H93    H     0.31170   0.05937   0.30254   0.00000  Uiso   1.00
H94    H     0.26661   0.09398   0.31272   0.00000  Uiso   1.00
C95    C     0.03883   0.25699   0.24733   0.00000  Uiso   1.00
H96    H     0.05791   0.26276   0.27682   0.00000  Uiso   1.00
H97    H     0.05728   0.26070   0.21594   0.00000  Uiso   1.00
H98    H     0.01534   0.28512   0.24931   0.00000  Uiso   1.00
O99    O     0.43892   0.20487   0.24999   0.00000  Uiso   1.00
O100   O     0.56108   0.12846   0.25000   0.00000  Uiso   1.00
O101   O     0.56108   0.20487   0.25000   0.00000  Uiso   1.00
O102   O     0.43892   0.12846   0.24999   0.00000  Uiso   1.00
C103   C     0.41999   0.16768   0.25401   0.00000  Uiso   1.00
C104   C     0.58030   0.16614   0.25090   0.00000  Uiso   1.00
O105   O     0.49999   0.20489   0.18392   0.00000  Uiso   1.00
O106   O     0.50001   0.12844   0.31607   0.00000  Uiso   1.00
O107   O     0.50001   0.20489   0.31607   0.00000  Uiso   1.00
O108   O     0.49999   0.12844   0.18392   0.00000  Uiso   1.00
C109   C     0.50029   0.16634   0.16331   0.00000  Uiso   1.00
C110   C     0.49872   0.16695   0.33646   0.00000  Uiso   1.00
Zn111  Zn    0.50000   0.21771   0.25000   0.00000  Uiso   1.00
Zn112  Zn    0.50000   0.11563   0.25000   0.00000  Uiso   1.00
C113   C     0.53584   0.16828   0.40564   0.00000  Uiso   1.00
C114   C     0.46191   0.17361   0.09406   0.00000  Uiso   1.00
C115   C     0.49823   0.16786   0.38409   0.00000  Uiso   1.00
C116   C     0.49937   0.16508   0.11535   0.00000  Uiso   1.00
C117   C     0.46021   0.16842   0.40753   0.00000  Uiso   1.00
C118   C     0.53534   0.15203   0.09091   0.00000  Uiso   1.00
C119   C     0.45973   0.16621   0.45424   0.00000  Uiso   1.00
C120   C     0.53558   0.15551   0.04464   0.00000  Uiso   1.00
C121   C     0.49780   0.16137   0.47607   0.00000  Uiso   1.00
C122   C     0.49785   0.16031   0.02283   0.00000  Uiso   1.00
C123   C     0.53594   0.15870   0.45139   0.00000  Uiso   1.00
C124   C     0.46032   0.16447   0.04790   0.00000  Uiso   1.00
C125   C     0.42224   0.16674   0.47962   0.00000  Uiso   1.00
C126   C     0.57299   0.15321   0.01984   0.00000  Uiso   1.00
C127   C     0.42289   0.15995   0.02576   0.00000  Uiso   1.00
C128   C     0.57283   0.14846   0.47378   0.00000  Uiso   1.00
C129   C     0.35553   0.13298   0.28040   0.00000  Uiso   1.00
C130   C     0.64563   0.20553   0.23880   0.00000  Uiso   1.00
C131   C     0.64653   0.12911   0.27361   0.00000  Uiso   1.00
C132   C     0.35334   0.21004   0.24931   0.00000  Uiso   1.00
C133   C     0.62499   0.16578   0.25270   0.00000  Uiso   1.00
C134   C     0.37580   0.17069   0.26239   0.00000  Uiso   1.00
C135   C     0.52215   0.02349   0.28035   0.00000  Uiso   1.00
C136   C     0.47785   0.30983   0.21966   0.00000  Uiso   1.00
C137   C     0.47781   0.02455   0.21969   0.00000  Uiso   1.00
C138   C     0.52219   0.30877   0.28032   0.00000  Uiso   1.00
H139   H     0.53974   0.04134   0.30463   0.00000  Uiso   1.00
H140   H     0.46025   0.29197   0.19539   0.00000  Uiso   1.00
H141   H     0.46007   0.04327   0.19552   0.00000  Uiso   1.00
H142   H     0.53993   0.29005   0.30447   0.00000  Uiso   1.00
N143   N     0.50000   0.28573   0.25000   0.00000  Uiso   1.00
N144   N     0.50000   0.04760   0.25000   0.00000  Uiso   1.00
C145   C     0.57352   0.18603   0.38066   0.00000  Uiso   1.00
H146   H     0.59652   0.19963   0.40341   0.00000  Uiso   1.00
H147   H     0.58778   0.15922   0.35868   0.00000  Uiso   1.00
H148   H     0.56475   0.21562   0.35985   0.00000  Uiso   1.00
C149   C     0.42556   0.19508   0.12029   0.00000  Uiso   1.00
H150   H     0.40214   0.21050   0.09844   0.00000  Uiso   1.00
H151   H     0.41126   0.16959   0.14258   0.00000  Uiso   1.00
H152   H     0.43588   0.22389   0.14079   0.00000  Uiso   1.00
O153   O     0.42365   0.16864   0.38463   0.00000  Uiso   1.00
C154   C     0.41426   0.21298   0.36907   0.00000  Uiso   1.00
H155   H     0.42789   0.24077   0.38877   0.00000  Uiso   1.00
H156   H     0.38025   0.21838   0.37007   0.00000  Uiso   1.00
H157   H     0.42451   0.21613   0.33397   0.00000  Uiso   1.00
O158   O     0.56745   0.12822   0.11067   0.00000  Uiso   1.00
C159   C     0.59273   0.15786   0.13376   0.00000  Uiso   1.00
H160   H     0.58540   0.19466   0.12870   0.00000  Uiso   1.00
H161   H     0.62541   0.15100   0.12326   0.00000  Uiso   1.00
H162   H     0.59025   0.14969   0.16924   0.00000  Uiso   1.00
O163   O     0.38464   0.17245   0.45945   0.00000  Uiso   1.00
C164   C     0.37014   0.21765   0.46748   0.00000  Uiso   1.00
H165   H     0.39329   0.24302   0.45720   0.00000  Uiso   1.00
H166   H     0.36179   0.22342   0.00313   0.00000  Uiso   1.00
H167   H     0.34220   0.22415   0.44778   0.00000  Uiso   1.00
O168   O     0.60993   0.16131   0.03980   0.00000  Uiso   1.00
C169   C     0.61468   0.20905   0.04045   0.00000  Uiso   1.00
H170   H     0.58743   0.22757   0.05598   0.00000  Uiso   1.00
H171   H     0.62016   0.22214   0.00622   0.00000  Uiso   1.00
H172   H     0.64141   0.21729   0.06085   0.00000  Uiso   1.00
C173   C     0.38549   0.13966   0.04844   0.00000  Uiso   1.00
H174   H     0.37176   0.11422   0.02618   0.00000  Uiso   1.00
H175   H     0.39390   0.12120   0.07916   0.00000  Uiso   1.00
H176   H     0.36175   0.16618   0.05674   0.00000  Uiso   1.00
C177   C     0.61132   0.12774   0.45124   0.00000  Uiso   1.00
H178   H     0.62373   0.09946   0.47179   0.00000  Uiso   1.00
H179   H     0.60478   0.11234   0.41852   0.00000  Uiso   1.00
H180   H     0.63553   0.15339   0.44765   0.00000  Uiso   1.00
C181   C     0.37818   0.09925   0.30993   0.00000  Uiso   1.00
H182   H     0.40821   0.11160   0.32091   0.00000  Uiso   1.00
H183   H     0.36009   0.09421   0.34139   0.00000  Uiso   1.00
H184   H     0.38340   0.06624   0.29218   0.00000  Uiso   1.00
C185   C     0.62571   0.24270   0.21059   0.00000  Uiso   1.00
H186   H     0.60077   0.23027   0.19009   0.00000  Uiso   1.00
H187   H     0.61323   0.27086   0.23229   0.00000  Uiso   1.00
H188   H     0.64835   0.25629   0.18598   0.00000  Uiso   1.00
C189   C     0.62492   0.08585   0.28770   0.00000  Uiso   1.00
H190   H     0.61231   0.06907   0.25801   0.00000  Uiso   1.00
H191   H     0.64503   0.05937   0.30254   0.00000  Uiso   1.00
H192   H     0.59994   0.09398   0.31272   0.00000  Uiso   1.00
C193   C     0.37216   0.25699   0.24733   0.00000  Uiso   1.00
H194   H     0.39124   0.26276   0.27682   0.00000  Uiso   1.00
H195   H     0.39062   0.26070   0.21594   0.00000  Uiso   1.00
H196   H     0.34867   0.28512   0.24931   0.00000  Uiso   1.00
O197   O     0.77226   0.20487   0.24999   0.00000  Uiso   1.00
O198   O     0.89441   0.12846   0.25000   0.00000  Uiso   1.00
O199   O     0.89441   0.20487   0.25000   0.00000  Uiso   1.00
O200   O     0.77226   0.12846   0.24999   0.00000  Uiso   1.00
C201   C     0.75332   0.16768   0.25401   0.00000  Uiso   1.00
C202   C     0.91364   0.16614   0.25090   0.00000  Uiso   1.00
O203   O     0.83333   0.20489   0.18392   0.00000  Uiso   1.00
O204   O     0.83334   0.12844   0.31607   0.00000  Uiso   1.00
O205   O     0.83334   0.20489   0.31607   0.00000  Uiso   1.00
O206   O     0.83333   0.12844   0.18392   0.00000  Uiso   1.00
C207   C     0.83362   0.16634   0.16331   0.00000  Uiso   1.00
C208   C     0.83205   0.16695   0.33646   0.00000  Uiso   1.00
Zn209  Zn    0.83333   0.21771   0.25000   0.00000  Uiso   1.00
Zn210  Zn    0.83333   0.11563   0.25000   0.00000  Uiso   1.00
C211   C     0.86918   0.16828   0.40564   0.00000  Uiso   1.00
C212   C     0.79524   0.17361   0.09406   0.00000  Uiso   1.00
C213   C     0.83157   0.16786   0.38409   0.00000  Uiso   1.00
C214   C     0.83271   0.16508   0.11535   0.00000  Uiso   1.00
C215   C     0.79355   0.16842   0.40753   0.00000  Uiso   1.00
C216   C     0.86868   0.15203   0.09091   0.00000  Uiso   1.00
C217   C     0.79306   0.16621   0.45424   0.00000  Uiso   1.00
C218   C     0.86891   0.15551   0.04464   0.00000  Uiso   1.00
C219   C     0.83113   0.16137   0.47607   0.00000  Uiso   1.00
C220   C     0.83119   0.16031   0.02283   0.00000  Uiso   1.00
C221   C     0.86927   0.15870   0.45139   0.00000  Uiso   1.00
C222   C     0.79365   0.16447   0.04790   0.00000  Uiso   1.00
C223   C     0.75557   0.16674   0.47962   0.00000  Uiso   1.00
C224   C     0.90632   0.15321   0.01984   0.00000  Uiso   1.00
C225   C     0.75622   0.15995   0.02576   0.00000  Uiso   1.00
C226   C     0.90616   0.14846   0.47378   0.00000  Uiso   1.00
C227   C     0.68886   0.13298   0.28040   0.00000  Uiso   1.00
C228   C     0.97896   0.20553   0.23880   0.00000  Uiso   1.00
C229   C     0.97986   0.12911   0.27361   0.00000  Uiso   1.00
C230   C     0.68667   0.21004   0.24931   0.00000  Uiso   1.00
C231   C     0.95832   0.16578   0.25270   0.00000  Uiso   1.00
C232   C     0.70914   0.17069   0.26239   0.00000  Uiso   1.00
C233   C     0.85548   0.02349   0.28035   0.00000  Uiso   1.00
C234   C     0.81118   0.30983   0.21966   0.00000  Uiso   1.00
C235   C     0.81114   0.02455   0.21969   0.00000  Uiso   1.00
C236   C     0.85552   0.30877   0.28032   0.00000  Uiso   1.00
H237   H     0.87308   0.04134   0.30463   0.00000  Uiso   1.00
H238   H     0.79358   0.29197   0.19539   0.00000  Uiso   1.00
H239   H     0.79340   0.04327   0.19552   0.00000  Uiso   1.00
H240   H     0.87327   0.29005   0.30447   0.00000  Uiso   1.00
N241   N     0.83333   0.28573   0.25000   0.00000  Uiso   1.00
N242   N     0.83333   0.04760   0.25000   0.00000  Uiso   1.00
C243   C     0.90686   0.18603   0.38066   0.00000  Uiso   1.00
H244   H     0.92985   0.19963   0.40341   0.00000  Uiso   1.00
H245   H     0.92112   0.15922   0.35868   0.00000  Uiso   1.00
H246   H     0.89809   0.21562   0.35985   0.00000  Uiso   1.00
C247   C     0.75889   0.19508   0.12029   0.00000  Uiso   1.00
H248   H     0.73547   0.21050   0.09844   0.00000  Uiso   1.00
H249   H     0.74460   0.16959   0.14258   0.00000  Uiso   1.00
H250   H     0.76922   0.22389   0.14079   0.00000  Uiso   1.00
O251   O     0.75699   0.16864   0.38463   0.00000  Uiso   1.00
C252   C     0.74759   0.21298   0.36907   0.00000  Uiso   1.00
H253   H     0.76122   0.24077   0.38877   0.00000  Uiso   1.00
H254   H     0.71359   0.21838   0.37007   0.00000  Uiso   1.00
H255   H     0.75785   0.21613   0.33397   0.00000  Uiso   1.00
O256   O     0.90078   0.12822   0.11067   0.00000  Uiso   1.00
C257   C     0.92607   0.15786   0.13376   0.00000  Uiso   1.00
H258   H     0.91873   0.19466   0.12870   0.00000  Uiso   1.00
H259   H     0.95874   0.15100   0.12326   0.00000  Uiso   1.00
H260   H     0.92358   0.14969   0.16924   0.00000  Uiso   1.00
O261   O     0.71797   0.17245   0.45945   0.00000  Uiso   1.00
C262   C     0.70348   0.21765   0.46748   0.00000  Uiso   1.00
H263   H     0.72662   0.24302   0.45720   0.00000  Uiso   1.00
H264   H     0.69512   0.22342   0.00313   0.00000  Uiso   1.00
H265   H     0.67553   0.22415   0.44778   0.00000  Uiso   1.00
O266   O     0.94326   0.16131   0.03980   0.00000  Uiso   1.00
C267   C     0.94801   0.20905   0.04045   0.00000  Uiso   1.00
H268   H     0.92077   0.22757   0.05598   0.00000  Uiso   1.00
H269   H     0.95350   0.22214   0.00622   0.00000  Uiso   1.00
H270   H     0.97474   0.21729   0.06085   0.00000  Uiso   1.00
C271   C     0.71882   0.13966   0.04844   0.00000  Uiso   1.00
H272   H     0.70510   0.11422   0.02618   0.00000  Uiso   1.00
H273   H     0.72723   0.12120   0.07916   0.00000  Uiso   1.00
H274   H     0.69508   0.16618   0.05674   0.00000  Uiso   1.00
C275   C     0.94465   0.12774   0.45124   0.00000  Uiso   1.00
H276   H     0.95706   0.09946   0.47179   0.00000  Uiso   1.00
H277   H     0.93812   0.11234   0.41852   0.00000  Uiso   1.00
H278   H     0.96886   0.15339   0.44765   0.00000  Uiso   1.00
C279   C     0.71151   0.09925   0.30993   0.00000  Uiso   1.00
H280   H     0.74154   0.11160   0.32091   0.00000  Uiso   1.00
H281   H     0.69342   0.09421   0.34139   0.00000  Uiso   1.00
H282   H     0.71673   0.06624   0.29218   0.00000  Uiso   1.00
C283   C     0.95904   0.24270   0.21059   0.00000  Uiso   1.00
H284   H     0.93410   0.23027   0.19009   0.00000  Uiso   1.00
H285   H     0.94656   0.27086   0.23229   0.00000  Uiso   1.00
H286   H     0.98168   0.25629   0.18598   0.00000  Uiso   1.00
C287   C     0.95825   0.08585   0.28770   0.00000  Uiso   1.00
H288   H     0.94564   0.06907   0.25801   0.00000  Uiso   1.00
H289   H     0.97837   0.05937   0.30254   0.00000  Uiso   1.00
H290   H     0.93328   0.09398   0.31272   0.00000  Uiso   1.00
C291   C     0.70550   0.25699   0.24733   0.00000  Uiso   1.00
H292   H     0.72458   0.26276   0.27682   0.00000  Uiso   1.00
H293   H     0.72395   0.26070   0.21594   0.00000  Uiso   1.00
H294   H     0.68201   0.28512   0.24931   0.00000  Uiso   1.00
O295   O     0.10559   0.53821   0.24999   0.00000  Uiso   1.00
O296   O     0.22774   0.46179   0.25000   0.00000  Uiso   1.00
O297   O     0.22774   0.53821   0.25000   0.00000  Uiso   1.00
O298   O     0.10559   0.46179   0.24999   0.00000  Uiso   1.00
C299   C     0.08665   0.50101   0.25401   0.00000  Uiso   1.00
C300   C     0.24697   0.49947   0.25090   0.00000  Uiso   1.00
O301   O     0.16666   0.53823   0.18392   0.00000  Uiso   1.00
O302   O     0.16667   0.46177   0.31607   0.00000  Uiso   1.00
O303   O     0.16667   0.53823   0.31607   0.00000  Uiso   1.00
O304   O     0.16666   0.46177   0.18392   0.00000  Uiso   1.00
C305   C     0.16696   0.49968   0.16331   0.00000  Uiso   1.00
C306   C     0.16539   0.50028   0.33646   0.00000  Uiso   1.00
Zn307  Zn    0.16667   0.55104   0.25000   0.00000  Uiso   1.00
Zn308  Zn    0.16667   0.44896   0.25000   0.00000  Uiso   1.00
C309   C     0.20251   0.50161   0.40564   0.00000  Uiso   1.00
C310   C     0.12858   0.50695   0.09406   0.00000  Uiso   1.00
C311   C     0.16490   0.50119   0.38409   0.00000  Uiso   1.00
C312   C     0.16604   0.49841   0.11535   0.00000  Uiso   1.00
C313   C     0.12688   0.50176   0.40753   0.00000  Uiso   1.00
C314   C     0.20201   0.48536   0.09091   0.00000  Uiso   1.00
C315   C     0.12639   0.49954   0.45424   0.00000  Uiso   1.00
C316   C     0.20225   0.48885   0.04464   0.00000  Uiso   1.00
C317   C     0.16447   0.49470   0.47607   0.00000  Uiso   1.00
C318   C     0.16452   0.49364   0.02283   0.00000  Uiso   1.00
C319   C     0.20261   0.49204   0.45139   0.00000  Uiso   1.00
C320   C     0.12699   0.49780   0.04790   0.00000  Uiso   1.00
C321   C     0.08890   0.50008   0.47962   0.00000  Uiso   1.00
C322   C     0.23965   0.48655   0.01984   0.00000  Uiso   1.00
C323   C     0.08956   0.49329   0.02576   0.00000  Uiso   1.00
C324   C     0.23950   0.48179   0.47378   0.00000  Uiso   1.00
C325   C     0.02219   0.46631   0.28040   0.00000  Uiso   1.00
C326   C     0.31230   0.53886   0.23880   0.00000  Uiso   1.00
C327   C     0.31320   0.46244   0.27361   0.00000  Uiso   1.00
C328   C     0.02000   0.54337   0.24931   0.00000  Uiso   1.00
C329   C     0.29165   0.49911   0.25270   0.00000  Uiso   1.00
C330   C     0.04247   0.50402   0.26239   0.00000  Uiso   1.00
C331   C     0.18881   0.35682   0.28035   0.00000  Uiso   1.00
C332   C     0.14451   0.64316   0.21966   0.00000  Uiso   1.00
C333   C     0.14447   0.35789   0.21969   0.00000  Uiso   1.00
C334   C     0.18885   0.64210   0.28032   0.00000  Uiso   1.00
H335   H     0.20641   0.37467   0.30463   0.00000  Uiso   1.00
H336   H     0.12691   0.62530   0.19539   0.00000  Uiso   1.00
H337   H     0.12674   0.37660   0.19552   0.00000  Uiso   1.00
H338   H     0.20660   0.62338   0.30447   0.00000  Uiso   1.00
N339   N     0.16667   0.61907   0.25000   0.00000  Uiso   1.00
N340   N     0.16667   0.38093   0.25000   0.00000  Uiso   1.00
C341   C     0.24019   0.51936   0.38066   0.00000  Uiso   1.00
H342   H     0.26319   0.53296   0.40341   0.00000  Uiso   1.00
H343   H     0.25445   0.49255   0.35868   0.00000  Uiso   1.00
H344   H     0.23142   0.54896   0.35985   0.00000  Uiso   1.00
C345   C     0.09223   0.52842   0.12029   0.00000  Uiso   1.00
H346   H     0.06880   0.54383   0.09844   0.00000  Uiso   1.00
H347   H     0.07793   0.50293   0.14258   0.00000  Uiso   1.00
H348   H     0.10255   0.55722   0.14079   0.00000  Uiso   1.00
O349   O     0.09032   0.50197   0.38463   0.00000  Uiso   1.00
C350   C     0.08092   0.54631   0.36907   0.00000  Uiso   1.00
H351   H     0.09456   0.57410   0.38877   0.00000  Uiso   1.00
H352   H     0.04692   0.55171   0.37007   0.00000  Uiso   1.00
H353   H     0.09118   0.54946   0.33397   0.00000  Uiso   1.00
O354   O     0.23411   0.46156   0.11067   0.00000  Uiso   1.00
C355   C     0.25940   0.49119   0.13376   0.00000  Uiso   1.00
H356   H     0.25207   0.52799   0.12870   0.00000  Uiso   1.00
H357   H     0.29207   0.48433   0.12326   0.00000  Uiso   1.00
H358   H     0.25692   0.48302   0.16924   0.00000  Uiso   1.00
O359   O     0.05131   0.50578   0.45945   0.00000  Uiso   1.00
C360   C     0.03681   0.55098   0.46748   0.00000  Uiso   1.00
H361   H     0.05996   0.57636   0.45720   0.00000  Uiso   1.00
H362   H     0.02845   0.55675   0.00313   0.00000  Uiso   1.00
H363   H     0.00886   0.55748   0.44778   0.00000  Uiso   1.00
O364   O     0.27659   0.49464   0.03980   0.00000  Uiso   1.00
C365   C     0.28135   0.54238   0.04045   0.00000  Uiso   1.00
H366   H     0.25410   0.56090   0.05598   0.00000  Uiso   1.00
H367   H     0.28683   0.55547   0.00622   0.00000  Uiso   1.00
H368   H     0.30807   0.55063   0.06085   0.00000  Uiso   1.00
C369   C     0.05216   0.47299   0.04844   0.00000  Uiso   1.00
H370   H     0.03843   0.44756   0.02618   0.00000  Uiso   1.00
H371   H     0.06056   0.45454   0.07916   0.00000  Uiso   1.00
H372   H     0.02842   0.49951   0.05674   0.00000  Uiso   1.00
C373   C     0.27798   0.46107   0.45124   0.00000  Uiso   1.00
H374   H     0.29040   0.43279   0.47179   0.00000  Uiso   1.00
H375   H     0.27145   0.44568   0.41852   0.00000  Uiso   1.00
H376   H     0.30220   0.48672   0.44765   0.00000  Uiso   1.00
C377   C     0.04484   0.43258   0.30993   0.00000  Uiso   1.00
H378   H     0.07488   0.44493   0.32091   0.00000  Uiso   1.00
H379   H     0.02676   0.42754   0.34139   0.00000  Uiso   1.00
H380   H     0.05007   0.39957   0.29218   0.00000  Uiso   1.00
C381   C     0.29237   0.57603   0.21059   0.00000  Uiso   1.00
H382   H     0.26744   0.56360   0.19009   0.00000  Uiso   1.00
H383   H     0.27990   0.60420   0.23229   0.00000  Uiso   1.00
H384   H     0.31501   0.58962   0.18598   0.00000  Uiso   1.00
C385   C     0.29158   0.41918   0.28770   0.00000  Uiso   1.00
H386   H     0.27898   0.40241   0.25801   0.00000  Uiso   1.00
H387   H     0.31170   0.39270   0.30254   0.00000  Uiso   1.00
H388   H     0.26661   0.42731   0.31272   0.00000  Uiso   1.00
C389   C     0.03883   0.59032   0.24733   0.00000  Uiso   1.00
H390   H     0.05791   0.59609   0.27682   0.00000  Uiso   1.00
H391   H     0.05728   0.59403   0.21594   0.00000  Uiso   1.00
H392   H     0.01534   0.61845   0.24931   0.00000  Uiso   1.00
O393   O     0.43892   0.53821   0.24999   0.00000  Uiso   1.00
O394   O     0.56108   0.46179   0.25000   0.00000  Uiso   1.00
O395   O     0.56108   0.53821   0.25000   0.00000  Uiso   1.00
O396   O     0.43892   0.46179   0.24999   0.00000  Uiso   1.00
C397   C     0.41999   0.50101   0.25401   0.00000  Uiso   1.00
C398   C     0.58030   0.49947   0.25090   0.00000  Uiso   1.00
O399   O     0.49999   0.53823   0.18392   0.00000  Uiso   1.00
O400   O     0.50001   0.46177   0.31607   0.00000  Uiso   1.00
O401   O     0.50001   0.53823   0.31607   0.00000  Uiso   1.00
O402   O     0.49999   0.46177   0.18392   0.00000  Uiso   1.00
C403   C     0.50029   0.49968   0.16331   0.00000  Uiso   1.00
C404   C     0.49872   0.50028   0.33646   0.00000  Uiso   1.00
Zn405  Zn    0.50000   0.55104   0.25000   0.00000  Uiso   1.00
Zn406  Zn    0.50000   0.44896   0.25000   0.00000  Uiso   1.00
C407   C     0.53584   0.50161   0.40564   0.00000  Uiso   1.00
C408   C     0.46191   0.50695   0.09406   0.00000  Uiso   1.00
C409   C     0.49823   0.50119   0.38409   0.00000  Uiso   1.00
C410   C     0.49937   0.49841   0.11535   0.00000  Uiso   1.00
C411   C     0.46021   0.50176   0.40753   0.00000  Uiso   1.00
C412   C     0.53534   0.48536   0.09091   0.00000  Uiso   1.00
C413   C     0.45973   0.49954   0.45424   0.00000  Uiso   1.00
C414   C     0.53558   0.48885   0.04464   0.00000  Uiso   1.00
C415   C     0.49780   0.49470   0.47607   0.00000  Uiso   1.00
C416   C     0.49785   0.49364   0.02283   0.00000  Uiso   1.00
C417   C     0.53594   0.49204   0.45139   0.00000  Uiso   1.00
C418   C     0.46032   0.49780   0.04790   0.00000  Uiso   1.00
C419   C     0.42224   0.50008   0.47962   0.00000  Uiso   1.00
C420   C     0.57299   0.48655   0.01984   0.00000  Uiso   1.00
C421   C     0.42289   0.49329   0.02576   0.00000  Uiso   1.00
C422   C     0.57283   0.48179   0.47378   0.00000  Uiso   1.00
C423   C     0.35553   0.46631   0.28040   0.00000  Uiso   1.00
C424   C     0.64563   0.53886   0.23880   0.00000  Uiso   1.00
C425   C     0.64653   0.46244   0.27361   0.00000  Uiso   1.00
C426   C     0.35334   0.54337   0.24931   0.00000  Uiso   1.00
C427   C     0.62499   0.49911   0.25270   0.00000  Uiso   1.00
C428   C     0.37580   0.50402   0.26239   0.00000  Uiso   1.00
C429   C     0.52215   0.35682   0.28035   0.00000  Uiso   1.00
C430   C     0.47785   0.64316   0.21966   0.00000  Uiso   1.00
C431   C     0.47781   0.35789   0.21969   0.00000  Uiso   1.00
C432   C     0.52219   0.64210   0.28032   0.00000  Uiso   1.00
H433   H     0.53974   0.37467   0.30463   0.00000  Uiso   1.00
H434   H     0.46025   0.62530   0.19539   0.00000  Uiso   1.00
H435   H     0.46007   0.37660   0.19552   0.00000  Uiso   1.00
H436   H     0.53993   0.62338   0.30447   0.00000  Uiso   1.00
N437   N     0.50000   0.61907   0.25000   0.00000  Uiso   1.00
N438   N     0.50000   0.38093   0.25000   0.00000  Uiso   1.00
C439   C     0.57352   0.51936   0.38066   0.00000  Uiso   1.00
H440   H     0.59652   0.53296   0.40341   0.00000  Uiso   1.00
H441   H     0.58778   0.49255   0.35868   0.00000  Uiso   1.00
H442   H     0.56475   0.54896   0.35985   0.00000  Uiso   1.00
C443   C     0.42556   0.52842   0.12029   0.00000  Uiso   1.00
H444   H     0.40214   0.54383   0.09844   0.00000  Uiso   1.00
H445   H     0.41126   0.50293   0.14258   0.00000  Uiso   1.00
H446   H     0.43588   0.55722   0.14079   0.00000  Uiso   1.00
O447   O     0.42365   0.50197   0.38463   0.00000  Uiso   1.00
C448   C     0.41426   0.54631   0.36907   0.00000  Uiso   1.00
H449   H     0.42789   0.57410   0.38877   0.00000  Uiso   1.00
H450   H     0.38025   0.55171   0.37007   0.00000  Uiso   1.00
H451   H     0.42451   0.54946   0.33397   0.00000  Uiso   1.00
O452   O     0.56745   0.46156   0.11067   0.00000  Uiso   1.00
C453   C     0.59273   0.49119   0.13376   0.00000  Uiso   1.00
H454   H     0.58540   0.52799   0.12870   0.00000  Uiso   1.00
H455   H     0.62541   0.48433   0.12326   0.00000  Uiso   1.00
H456   H     0.59025   0.48302   0.16924   0.00000  Uiso   1.00
O457   O     0.38464   0.50578   0.45945   0.00000  Uiso   1.00
C458   C     0.37014   0.55098   0.46748   0.00000  Uiso   1.00
H459   H     0.39329   0.57636   0.45720   0.00000  Uiso   1.00
H460   H     0.36179   0.55675   0.00313   0.00000  Uiso   1.00
H461   H     0.34220   0.55748   0.44778   0.00000  Uiso   1.00
O462   O     0.60993   0.49464   0.03980   0.00000  Uiso   1.00
C463   C     0.61468   0.54238   0.04045   0.00000  Uiso   1.00
H464   H     0.58743   0.56090   0.05598   0.00000  Uiso   1.00
H465   H     0.62016   0.55547   0.00622   0.00000  Uiso   1.00
H466   H     0.64141   0.55063   0.06085   0.00000  Uiso   1.00
C467   C     0.38549   0.47299   0.04844   0.00000  Uiso   1.00
H468   H     0.37176   0.44756   0.02618   0.00000  Uiso   1.00
H469   H     0.39390   0.45454   0.07916   0.00000  Uiso   1.00
H470   H     0.36175   0.49951   0.05674   0.00000  Uiso   1.00
C471   C     0.61132   0.46107   0.45124   0.00000  Uiso   1.00
H472   H     0.62373   0.43279   0.47179   0.00000  Uiso   1.00
H473   H     0.60478   0.44568   0.41852   0.00000  Uiso   1.00
H474   H     0.63553   0.48672   0.44765   0.00000  Uiso   1.00
C475   C     0.37818   0.43258   0.30993   0.00000  Uiso   1.00
H476   H     0.40821   0.44493   0.32091   0.00000  Uiso   1.00
H477   H     0.36009   0.42754   0.34139   0.00000  Uiso   1.00
H478   H     0.38340   0.39957   0.29218   0.00000  Uiso   1.00
C479   C     0.62571   0.57603   0.21059   0.00000  Uiso   1.00
H480   H     0.60077   0.56360   0.19009   0.00000  Uiso   1.00
H481   H     0.61323   0.60420   0.23229   0.00000  Uiso   1.00
H482   H     0.64835   0.58962   0.18598   0.00000  Uiso   1.00
C483   C     0.62492   0.41918   0.28770   0.00000  Uiso   1.00
H484   H     0.61231   0.40241   0.25801   0.00000  Uiso   1.00
H485   H     0.64503   0.39270   0.30254   0.00000  Uiso   1.00
H486   H     0.59994   0.42731   0.31272   0.00000  Uiso   1.00
C487   C     0.37216   0.59032   0.24733   0.00000  Uiso   1.00
H488   H     0.39124   0.59609   0.27682   0.00000  Uiso   1.00
H489   H     0.39062   0.59403   0.21594   0.00000  Uiso   1.00
H490   H     0.34867   0.61845   0.24931   0.00000  Uiso   1.00
O491   O     0.77226   0.53821   0.24999   0.00000  Uiso   1.00
O492   O     0.89441   0.46179   0.25000   0.00000  Uiso   1.00
O493   O     0.89441   0.53821   0.25000   0.00000  Uiso   1.00
O494   O     0.77226   0.46179   0.24999   0.00000  Uiso   1.00
C495   C     0.75332   0.50101   0.25401   0.00000  Uiso   1.00
C496   C     0.91364   0.49947   0.25090   0.00000  Uiso   1.00
O497   O     0.83333   0.53823   0.18392   0.00000  Uiso   1.00
O498   O     0.83334   0.46177   0.31607   0.00000  Uiso   1.00
O499   O     0.83334   0.53823   0.31607   0.00000  Uiso   1.00
O500   O     0.83333   0.46177   0.18392   0.00000  Uiso   1.00
C501   C     0.83362   0.49968   0.16331   0.00000  Uiso   1.00
C502   C     0.83205   0.50028   0.33646   0.00000  Uiso   1.00
Zn503  Zn    0.83333   0.55104   0.25000   0.00000  Uiso   1.00
Zn504  Zn    0.83333   0.44896   0.25000   0.00000  Uiso   1.00
C505   C     0.86918   0.50161   0.40564   0.00000  Uiso   1.00
C506   C     0.79524   0.50695   0.09406   0.00000  Uiso   1.00
C507   C     0.83157   0.50119   0.38409   0.00000  Uiso   1.00
C508   C     0.83271   0.49841   0.11535   0.00000  Uiso   1.00
C509   C     0.79355   0.50176   0.40753   0.00000  Uiso   1.00
C510   C     0.86868   0.48536   0.09091   0.00000  Uiso   1.00
C511   C     0.79306   0.49954   0.45424   0.00000  Uiso   1.00
C512   C     0.86891   0.48885   0.04464   0.00000  Uiso   1.00
C513   C     0.83113   0.49470   0.47607   0.00000  Uiso   1.00
C514   C     0.83119   0.49364   0.02283   0.00000  Uiso   1.00
C515   C     0.86927   0.49204   0.45139   0.00000  Uiso   1.00
C516   C     0.79365   0.49780   0.04790   0.00000  Uiso   1.00
C517   C     0.75557   0.50008   0.47962   0.00000  Uiso   1.00
C518   C     0.90632   0.48655   0.01984   0.00000  Uiso   1.00
C519   C     0.75622   0.49329   0.02576   0.00000  Uiso   1.00
C520   C     0.90616   0.48179   0.47378   0.00000  Uiso   1.00
C521   C     0.68886   0.46631   0.28040   0.00000  Uiso   1.00
C522   C     0.97896   0.53886   0.23880   0.00000  Uiso   1.00
C523   C     0.97986   0.46244   0.27361   0.00000  Uiso   1.00
C524   C     0.68667   0.54337   0.24931   0.00000  Uiso   1.00
C525   C     0.95832   0.49911   0.25270   0.00000  Uiso   1.00
C526   C     0.70914   0.50402   0.26239   0.00000  Uiso   1.00
C527   C     0.85548   0.35682   0.28035   0.00000  Uiso   1.00
C528   C     0.81118   0.64316   0.21966   0.00000  Uiso   1.00
C529   C     0.81114   0.35789   0.21969   0.00000  Uiso   1.00
C530   C     0.85552   0.64210   0.28032   0.00000  Uiso   1.00
H531   H     0.87308   0.37467   0.30463   0.00000  Uiso   1.00
H532   H     0.79358   0.62530   0.19539   0.00000  Uiso   1.00
H533   H     0.79340   0.37660   0.19552   0.00000  Uiso   1.00
H534   H     0.87327   0.62338   0.30447   0.00000  Uiso   1.00
N535   N     0.83333   0.61907   0.25000   0.00000  Uiso   1.00
N536   N     0.83333   0.38093   0.25000   0.00000  Uiso   1.00
C537   C     0.90686   0.51936   0.38066   0.00000  Uiso   1.00
H538   H     0.92985   0.53296   0.40341   0.00000  Uiso   1.00
H539   H     0.92112   0.49255   0.35868   0.00000  Uiso   1.00
H540   H     0.89809   0.54896   0.35985   0.00000  Uiso   1.00
C541   C     0.75889   0.52842   0.12029   0.00000  Uiso   1.00
H542   H     0.73547   0.54383   0.09844   0.00000  Uiso   1.00
H543   H     0.74460   0.50293   0.14258   0.00000  Uiso   1.00
H544   H     0.76922   0.55722   0.14079   0.00000  Uiso   1.00
O545   O     0.75699   0.50197   0.38463   0.00000  Uiso   1.00
C546   C     0.74759   0.54631   0.36907   0.00000  Uiso   1.00
H547   H     0.76122   0.57410   0.38877   0.00000  Uiso   1.00
H548   H     0.71359   0.55171   0.37007   0.00000  Uiso   1.00
H549   H     0.75785   0.54946   0.33397   0.00000  Uiso   1.00
O550   O     0.90078   0.46156   0.11067   0.00000  Uiso   1.00
C551   C     0.92607   0.49119   0.13376   0.00000  Uiso   1.00
H552   H     0.91873   0.52799   0.12870   0.00000  Uiso   1.00
H553   H     0.95874   0.48433   0.12326   0.00000  Uiso   1.00
H554   H     0.92358   0.48302   0.16924   0.00000  Uiso   1.00
O555   O     0.71797   0.50578   0.45945   0.00000  Uiso   1.00
C556   C     0.70348   0.55098   0.46748   0.00000  Uiso   1.00
H557   H     0.72662   0.57636   0.45720   0.00000  Uiso   1.00
H558   H     0.69512   0.55675   0.00313   0.00000  Uiso   1.00
H559   H     0.67553   0.55748   0.44778   0.00000  Uiso   1.00
O560   O     0.94326   0.49464   0.03980   0.00000  Uiso   1.00
C561   C     0.94801   0.54238   0.04045   0.00000  Uiso   1.00
H562   H     0.92077   0.56090   0.05598   0.00000  Uiso   1.00
H563   H     0.95350   0.55547   0.00622   0.00000  Uiso   1.00
H564   H     0.97474   0.55063   0.06085   0.00000  Uiso   1.00
C565   C     0.71882   0.47299   0.04844   0.00000  Uiso   1.00
H566   H     0.70510   0.44756   0.02618   0.00000  Uiso   1.00
H567   H     0.72723   0.45454   0.07916   0.00000  Uiso   1.00
H568   H     0.69508   0.49951   0.05674   0.00000  Uiso   1.00
C569   C     0.94465   0.46107   0.45124   0.00000  Uiso   1.00
H570   H     0.95706   0.43279   0.47179   0.00000  Uiso   1.00
H571   H     0.93812   0.44568   0.41852   0.00000  Uiso   1.00
H572   H     0.96886   0.48672   0.44765   0.00000  Uiso   1.00
C573   C     0.71151   0.43258   0.30993   0.00000  Uiso   1.00
H574   H     0.74154   0.44493   0.32091   0.00000  Uiso   1.00
H575   H     0.69342   0.42754   0.34139   0.00000  Uiso   1.00
H576   H     0.71673   0.39957   0.29218   0.00000  Uiso   1.00
C577   C     0.95904   0.57603   0.21059   0.00000  Uiso   1.00
H578   H     0.93410   0.56360   0.19009   0.00000  Uiso   1.00
H579   H     0.94656   0.60420   0.23229   0.00000  Uiso   1.00
H580   H     0.98168   0.58962   0.18598   0.00000  Uiso   1.00
C581   C     0.95825   0.41918   0.28770   0.00000  Uiso   1.00
H582   H     0.94564   0.40241   0.25801   0.00000  Uiso   1.00
H583   H     0.97837   0.39270   0.30254   0.00000  Uiso   1.00
H584   H     0.93328   0.42731   0.31272   0.00000  Uiso   1.00
C585   C     0.70550   0.59032   0.24733   0.00000  Uiso   1.00
H586   H     0.72458   0.59609   0.27682   0.00000  Uiso   1.00
H587   H     0.72395   0.59403   0.21594   0.00000  Uiso   1.00
H588   H     0.68201   0.61845   0.24931   0.00000  Uiso   1.00
O589   O     0.10559   0.87154   0.24999   0.00000  Uiso   1.00
O590   O     0.22774   0.79513   0.25000   0.00000  Uiso   1.00
O591   O     0.22774   0.87154   0.25000   0.00000  Uiso   1.00
O592   O     0.10559   0.79513   0.24999   0.00000  Uiso   1.00
C593   C     0.08665   0.83434   0.25401   0.00000  Uiso   1.00
C594   C     0.24697   0.83280   0.25090   0.00000  Uiso   1.00
O595   O     0.16666   0.87156   0.18392   0.00000  Uiso   1.00
O596   O     0.16667   0.79511   0.31607   0.00000  Uiso   1.00
O597   O     0.16667   0.87156   0.31607   0.00000  Uiso   1.00
O598   O     0.16666   0.79511   0.18392   0.00000  Uiso   1.00
C599   C     0.16696   0.83301   0.16331   0.00000  Uiso   1.00
C600   C     0.16539   0.83361   0.33646   0.00000  Uiso   1.00
Zn601  Zn    0.16667   0.88437   0.25000   0.00000  Uiso   1.00
Zn602  Zn    0.16667   0.78229   0.25000   0.00000  Uiso   1.00
C603   C     0.20251   0.83495   0.40564   0.00000  Uiso   1.00
C604   C     0.12858   0.84028   0.09406   0.00000  Uiso   1.00
C605   C     0.16490   0.83452   0.38409   0.00000  Uiso   1.00
C606   C     0.16604   0.83175   0.11535   0.00000  Uiso   1.00
C607   C     0.12688   0.83509   0.40753   0.00000  Uiso   1.00
C608   C     0.20201   0.81870   0.09091   0.00000  Uiso   1.00
C609   C     0.12639   0.83288   0.45424   0.00000  Uiso   1.00
C610   C     0.20225   0.82218   0.04464   0.00000  Uiso   1.00
C611   C     0.16447   0.82803   0.47607   0.00000  Uiso   1.00
C612   C     0.16452   0.82697   0.02283   0.00000  Uiso   1.00
C613   C     0.20261   0.82537   0.45139   0.00000  Uiso   1.00
C614   C     0.12699   0.83113   0.04790   0.00000  Uiso   1.00
C615   C     0.08890   0.83341   0.47962   0.00000  Uiso   1.00
C616   C     0.23965   0.81988   0.01984   0.00000  Uiso   1.00
C617   C     0.08956   0.82662   0.02576   0.00000  Uiso   1.00
C618   C     0.23950   0.81512   0.47378   0.00000  Uiso   1.00
C619   C     0.02219   0.79964   0.28040   0.00000  Uiso   1.00
C620   C     0.31230   0.87219   0.23880   0.00000  Uiso   1.00
C621   C     0.31320   0.79577   0.27361   0.00000  Uiso   1.00
C622   C     0.02000   0.87670   0.24931   0.00000  Uiso   1.00
C623   C     0.29165   0.83245   0.25270   0.00000  Uiso   1.00
C624   C     0.04247   0.83736   0.26239   0.00000  Uiso   1.00
C625   C     0.18881   0.69016   0.28035   0.00000  Uiso   1.00
C626   C     0.14451   0.97650   0.21966   0.00000  Uiso   1.00
C627   C     0.14447   0.69122   0.21969   0.00000  Uiso   1.00
C628   C     0.18885   0.97544   0.28032   0.00000  Uiso   1.00
H629   H     0.20641   0.70800   0.30463   0.00000  Uiso   1.00
H630   H     0.12691   0.95863   0.19539   0.00000  Uiso   1.00
H631   H     0.12674   0.70993   0.19552   0.00000  Uiso   1.00
H632   H     0.20660   0.95671   0.30447   0.00000  Uiso   1.00
N633   N     0.16667   0.95240   0.25000   0.00000  Uiso   1.00
N634   N     0.16667   0.71427   0.25000   0.00000  Uiso   1.00
C635   C     0.24019   0.85269   0.38066   0.00000  Uiso   1.00
H636   H     0.26319   0.86630   0.40341   0.00000  Uiso   1.00
H637   H     0.25445   0.82588   0.35868   0.00000  Uiso   1.00
H638   H     0.23142   0.88229   0.35985   0.00000  Uiso   1.00
C639   C     0.09223   0.86175   0.12029   0.00000  Uiso   1.00
H640   H     0.06880   0.87716   0.09844   0.00000  Uiso   1.00
H641   H     0.07793   0.83626   0.14258   0.00000  Uiso   1.00
H642   H     0.10255   0.89055   0.14079   0.00000  Uiso   1.00
O643   O     0.09032   0.83530   0.38463   0.00000  Uiso   1.00
C644   C     0.08092   0.87964   0.36907   0.00000  Uiso   1.00
H645   H     0.09456   0.90744   0.38877   0.00000  Uiso   1.00
H646   H     0.04692   0.88504   0.37007   0.00000  Uiso   1.00
H647   H     0.09118   0.88279   0.33397   0.00000  Uiso   1.00
O648   O     0.23411   0.79489   0.11067   0.00000  Uiso   1.00
C649   C     0.25940   0.82452   0.13376   0.00000  Uiso   1.00
H650   H     0.25207   0.86132   0.12870   0.00000  Uiso   1.00
H651   H     0.29207   0.81767   0.12326   0.00000  Uiso   1.00
H652   H     0.25692   0.81635   0.16924   0.00000  Uiso   1.00
O653   O     0.05131   0.83912   0.45945   0.00000  Uiso   1.00
C654   C     0.03681   0.88432   0.46748   0.00000  Uiso   1.00
H655   H     0.05996   0.90969   0.45720   0.00000  Uiso   1.00
H656   H     0.02845   0.89008   0.00313   0.00000  Uiso   1.00
H657   H     0.00886   0.89081   0.44778   0.00000  Uiso   1.00
O658   O     0.27659   0.82797   0.03980   0.00000  Uiso   1.00
C659   C     0.28135   0.87571   0.04045   0.00000  Uiso   1.00
H660   H     0.25410   0.89424   0.05598   0.00000  Uiso   1.00
H661   H     0.28683   0.88880   0.00622   0.00000  Uiso   1.00
H662   H     0.30807   0.88396   0.06085   0.00000  Uiso   1.00
C663   C     0.05216   0.80633   0.04844   0.00000  Uiso   1.00
H664   H     0.03843   0.78089   0.02618   0.00000  Uiso   1.00
H665   H     0.06056   0.78787   0.07916   0.00000  Uiso   1.00
H666   H     0.02842   0.83284   0.05674   0.00000  Uiso   1.00
C667   C     0.27798   0.79441   0.45124   0.00000  Uiso   1.00
H668   H     0.29040   0.76613   0.47179   0.00000  Uiso   1.00
H669   H     0.27145   0.77901   0.41852   0.00000  Uiso   1.00
H670   H     0.30220   0.82005   0.44765   0.00000  Uiso   1.00
C671   C     0.04484   0.76591   0.30993   0.00000  Uiso   1.00
H672   H     0.07488   0.77826   0.32091   0.00000  Uiso   1.00
H673   H     0.02676   0.76088   0.34139   0.00000  Uiso   1.00
H674   H     0.05007   0.73290   0.29218   0.00000  Uiso   1.00
C675   C     0.29237   0.90936   0.21059   0.00000  Uiso   1.00
H676   H     0.26744   0.89694   0.19009   0.00000  Uiso   1.00
H677   H     0.27990   0.93753   0.23229   0.00000  Uiso   1.00
H678   H     0.31501   0.92296   0.18598   0.00000  Uiso   1.00
C679   C     0.29158   0.75252   0.28770   0.00000  Uiso   1.00
H680   H     0.27898   0.73574   0.25801   0.00000  Uiso   1.00
H681   H     0.31170   0.72604   0.30254   0.00000  Uiso   1.00
H682   H     0.26661   0.76064   0.31272   0.00000  Uiso   1.00
C683   C     0.03883   0.92365   0.24733   0.00000  Uiso   1.00
H684   H     0.05791   0.92943   0.27682   0.00000  Uiso   1.00
H685   H     0.05728   0.92737   0.21594   0.00000  Uiso   1.00
H686   H     0.01534   0.95178   0.24931   0.00000  Uiso   1.00
O687   O     0.43892   0.87154   0.24999   0.00000  Uiso   1.00
O688   O     0.56108   0.79513   0.25000   0.00000  Uiso   1.00
O689   O     0.56108   0.87154   0.25000   0.00000  Uiso   1.00
O690   O     0.43892   0.79513   0.24999   0.00000  Uiso   1.00
C691   C     0.41999   0.83434   0.25401   0.00000  Uiso   1.00
C692   C     0.58030   0.83280   0.25090   0.00000  Uiso   1.00
O693   O     0.49999   0.87156   0.18392   0.00000  Uiso   1.00
O694   O     0.50001   0.79511   0.31607   0.00000  Uiso   1.00
O695   O     0.50001   0.87156   0.31607   0.00000  Uiso   1.00
O696   O     0.49999   0.79511   0.18392   0.00000  Uiso   1.00
C697   C     0.50029   0.83301   0.16331   0.00000  Uiso   1.00
C698   C     0.49872   0.83361   0.33646   0.00000  Uiso   1.00
Zn699  Zn    0.50000   0.88437   0.25000   0.00000  Uiso   1.00
Zn700  Zn    0.50000   0.78229   0.25000   0.00000  Uiso   1.00
C701   C     0.53584   0.83495   0.40564   0.00000  Uiso   1.00
C702   C     0.46191   0.84028   0.09406   0.00000  Uiso   1.00
C703   C     0.49823   0.83452   0.38409   0.00000  Uiso   1.00
C704   C     0.49937   0.83175   0.11535   0.00000  Uiso   1.00
C705   C     0.46021   0.83509   0.40753   0.00000  Uiso   1.00
C706   C     0.53534   0.81870   0.09091   0.00000  Uiso   1.00
C707   C     0.45973   0.83288   0.45424   0.00000  Uiso   1.00
C708   C     0.53558   0.82218   0.04464   0.00000  Uiso   1.00
C709   C     0.49780   0.82803   0.47607   0.00000  Uiso   1.00
C710   C     0.49785   0.82697   0.02283   0.00000  Uiso   1.00
C711   C     0.53594   0.82537   0.45139   0.00000  Uiso   1.00
C712   C     0.46032   0.83113   0.04790   0.00000  Uiso   1.00
C713   C     0.42224   0.83341   0.47962   0.00000  Uiso   1.00
C714   C     0.57299   0.81988   0.01984   0.00000  Uiso   1.00
C715   C     0.42289   0.82662   0.02576   0.00000  Uiso   1.00
C716   C     0.57283   0.81512   0.47378   0.00000  Uiso   1.00
C717   C     0.35553   0.79964   0.28040   0.00000  Uiso   1.00
C718   C     0.64563   0.87219   0.23880   0.00000  Uiso   1.00
C719   C     0.64653   0.79577   0.27361   0.00000  Uiso   1.00
C720   C     0.35334   0.87670   0.24931   0.00000  Uiso   1.00
C721   C     0.62499   0.83245   0.25270   0.00000  Uiso   1.00
C722   C     0.37580   0.83736   0.26239   0.00000  Uiso   1.00
C723   C     0.52215   0.69016   0.28035   0.00000  Uiso   1.00
C724   C     0.47785   0.97650   0.21966   0.00000  Uiso   1.00
C725   C     0.47781   0.69122   0.21969   0.00000  Uiso   1.00
C726   C     0.52219   0.97544   0.28032   0.00000  Uiso   1.00
H727   H     0.53974   0.70800   0.30463   0.00000  Uiso   1.00
H728   H     0.46025   0.95863   0.19539   0.00000  Uiso   1.00
H729   H     0.46007   0.70993   0.19552   0.00000  Uiso   1.00
H730   H     0.53993   0.95671   0.30447   0.00000  Uiso   1.00
N731   N     0.50000   0.95240   0.25000   0.00000  Uiso   1.00
N732   N     0.50000   0.71427   0.25000   0.00000  Uiso   1.00
C733   C     0.57352   0.85269   0.38066   0.00000  Uiso   1.00
H734   H     0.59652   0.86630   0.40341   0.00000  Uiso   1.00
H735   H     0.58778   0.82588   0.35868   0.00000  Uiso   1.00
H736   H     0.56475   0.88229   0.35985   0.00000  Uiso   1.00
C737   C     0.42556   0.86175   0.12029   0.00000  Uiso   1.00
H738   H     0.40214   0.87716   0.09844   0.00000  Uiso   1.00
H739   H     0.41126   0.83626   0.14258   0.00000  Uiso   1.00
H740   H     0.43588   0.89055   0.14079   0.00000  Uiso   1.00
O741   O     0.42365   0.83530   0.38463   0.00000  Uiso   1.00
C742   C     0.41426   0.87964   0.36907   0.00000  Uiso   1.00
H743   H     0.42789   0.90744   0.38877   0.00000  Uiso   1.00
H744   H     0.38025   0.88504   0.37007   0.00000  Uiso   1.00
H745   H     0.42451   0.88279   0.33397   0.00000  Uiso   1.00
O746   O     0.56745   0.79489   0.11067   0.00000  Uiso   1.00
C747   C     0.59273   0.82452   0.13376   0.00000  Uiso   1.00
H748   H     0.58540   0.86132   0.12870   0.00000  Uiso   1.00
H749   H     0.62541   0.81767   0.12326   0.00000  Uiso   1.00
H750   H     0.59025   0.81635   0.16924   0.00000  Uiso   1.00
O751   O     0.38464   0.83912   0.45945   0.00000  Uiso   1.00
C752   C     0.37014   0.88432   0.46748   0.00000  Uiso   1.00
H753   H     0.39329   0.90969   0.45720   0.00000  Uiso   1.00
H754   H     0.36179   0.89008   0.00313   0.00000  Uiso   1.00
H755   H     0.34220   0.89081   0.44778   0.00000  Uiso   1.00
O756   O     0.60993   0.82797   0.03980   0.00000  Uiso   1.00
C757   C     0.61468   0.87571   0.04045   0.00000  Uiso   1.00
H758   H     0.58743   0.89424   0.05598   0.00000  Uiso   1.00
H759   H     0.62016   0.88880   0.00622   0.00000  Uiso   1.00
H760   H     0.64141   0.88396   0.06085   0.00000  Uiso   1.00
C761   C     0.38549   0.80633   0.04844   0.00000  Uiso   1.00
H762   H     0.37176   0.78089   0.02618   0.00000  Uiso   1.00
H763   H     0.39390   0.78787   0.07916   0.00000  Uiso   1.00
H764   H     0.36175   0.83284   0.05674   0.00000  Uiso   1.00
C765   C     0.61132   0.79441   0.45124   0.00000  Uiso   1.00
H766   H     0.62373   0.76613   0.47179   0.00000  Uiso   1.00
H767   H     0.60478   0.77901   0.41852   0.00000  Uiso   1.00
H768   H     0.63553   0.82005   0.44765   0.00000  Uiso   1.00
C769   C     0.37818   0.76591   0.30993   0.00000  Uiso   1.00
H770   H     0.40821   0.77826   0.32091   0.00000  Uiso   1.00
H771   H     0.36009   0.76088   0.34139   0.00000  Uiso   1.00
H772   H     0.38340   0.73290   0.29218   0.00000  Uiso   1.00
C773   C     0.62571   0.90936   0.21059   0.00000  Uiso   1.00
H774   H     0.60077   0.89694   0.19009   0.00000  Uiso   1.00
H775   H     0.61323   0.93753   0.23229   0.00000  Uiso   1.00
H776   H     0.64835   0.92296   0.18598   0.00000  Uiso   1.00
C777   C     0.62492   0.75252   0.28770   0.00000  Uiso   1.00
H778   H     0.61231   0.73574   0.25801   0.00000  Uiso   1.00
H779   H     0.64503   0.72604   0.30254   0.00000  Uiso   1.00
H780   H     0.59994   0.76064   0.31272   0.00000  Uiso   1.00
C781   C     0.37216   0.92365   0.24733   0.00000  Uiso   1.00
H782   H     0.39124   0.92943   0.27682   0.00000  Uiso   1.00
H783   H     0.39062   0.92737   0.21594   0.00000  Uiso   1.00
H784   H     0.34867   0.95178   0.24931   0.00000  Uiso   1.00
O785   O     0.77226   0.87154   0.24999   0.00000  Uiso   1.00
O786   O     0.89441   0.79513   0.25000   0.00000  Uiso   1.00
O787   O     0.89441   0.87154   0.25000   0.00000  Uiso   1.00
O788   O     0.77226   0.79513   0.24999   0.00000  Uiso   1.00
C789   C     0.75332   0.83434   0.25401   0.00000  Uiso   1.00
C790   C     0.91364   0.83280   0.25090   0.00000  Uiso   1.00
O791   O     0.83333   0.87156   0.18392   0.00000  Uiso   1.00
O792   O     0.83334   0.79511   0.31607   0.00000  Uiso   1.00
O793   O     0.83334   0.87156   0.31607   0.00000  Uiso   1.00
O794   O     0.83333   0.79511   0.18392   0.00000  Uiso   1.00
C795   C     0.83362   0.83301   0.16331   0.00000  Uiso   1.00
C796   C     0.83205   0.83361   0.33646   0.00000  Uiso   1.00
Zn797  Zn    0.83333   0.88437   0.25000   0.00000  Uiso   1.00
Zn798  Zn    0.83333   0.78229   0.25000   0.00000  Uiso   1.00
C799   C     0.86918   0.83495   0.40564   0.00000  Uiso   1.00
C800   C     0.79524   0.84028   0.09406   0.00000  Uiso   1.00
C801   C     0.83157   0.83452   0.38409   0.00000  Uiso   1.00
C802   C     0.83271   0.83175   0.11535   0.00000  Uiso   1.00
C803   C     0.79355   0.83509   0.40753   0.00000  Uiso   1.00
C804   C     0.86868   0.81870   0.09091   0.00000  Uiso   1.00
C805   C     0.79306   0.83288   0.45424   0.00000  Uiso   1.00
C806   C     0.86891   0.82218   0.04464   0.00000  Uiso   1.00
C807   C     0.83113   0.82803   0.47607   0.00000  Uiso   1.00
C808   C     0.83119   0.82697   0.02283   0.00000  Uiso   1.00
C809   C     0.86927   0.82537   0.45139   0.00000  Uiso   1.00
C810   C     0.79365   0.83113   0.04790   0.00000  Uiso   1.00
C811   C     0.75557   0.83341   0.47962   0.00000  Uiso   1.00
C812   C     0.90632   0.81988   0.01984   0.00000  Uiso   1.00
C813   C     0.75622   0.82662   0.02576   0.00000  Uiso   1.00
C814   C     0.90616   0.81512   0.47378   0.00000  Uiso   1.00
C815   C     0.68886   0.79964   0.28040   0.00000  Uiso   1.00
C816   C     0.97896   0.87219   0.23880   0.00000  Uiso   1.00
C817   C     0.97986   0.79577   0.27361   0.00000  Uiso   1.00
C818   C     0.68667   0.87670   0.24931   0.00000  Uiso   1.00
C819   C     0.95832   0.83245   0.25270   0.00000  Uiso   1.00
C820   C     0.70914   0.83736   0.26239   0.00000  Uiso   1.00
C821   C     0.85548   0.69016   0.28035   0.00000  Uiso   1.00
C822   C     0.81118   0.97650   0.21966   0.00000  Uiso   1.00
C823   C     0.81114   0.69122   0.21969   0.00000  Uiso   1.00
C824   C     0.85552   0.97544   0.28032   0.00000  Uiso   1.00
H825   H     0.87308   0.70800   0.30463   0.00000  Uiso   1.00
H826   H     0.79358   0.95863   0.19539   0.00000  Uiso   1.00
H827   H     0.79340   0.70993   0.19552   0.00000  Uiso   1.00
H828   H     0.87327   0.95671   0.30447   0.00000  Uiso   1.00
N829   N     0.83333   0.95240   0.25000   0.00000  Uiso   1.00
N830   N     0.83333   0.71427   0.25000   0.00000  Uiso   1.00
C831   C     0.90686   0.85269   0.38066   0.00000  Uiso   1.00
H832   H     0.92985   0.86630   0.40341   0.00000  Uiso   1.00
H833   H     0.92112   0.82588   0.35868   0.00000  Uiso   1.00
H834   H     0.89809   0.88229   0.35985   0.00000  Uiso   1.00
C835   C     0.75889   0.86175   0.12029   0.00000  Uiso   1.00
H836   H     0.73547   0.87716   0.09844   0.00000  Uiso   1.00
H837   H     0.74460   0.83626   0.14258   0.00000  Uiso   1.00
H838   H     0.76922   0.89055   0.14079   0.00000  Uiso   1.00
O839   O     0.75699   0.83530   0.38463   0.00000  Uiso   1.00
C840   C     0.74759   0.87964   0.36907   0.00000  Uiso   1.00
H841   H     0.76122   0.90744   0.38877   0.00000  Uiso   1.00
H842   H     0.71359   0.88504   0.37007   0.00000  Uiso   1.00
H843   H     0.75785   0.88279   0.33397   0.00000  Uiso   1.00
O844   O     0.90078   0.79489   0.11067   0.00000  Uiso   1.00
C845   C     0.92607   0.82452   0.13376   0.00000  Uiso   1.00
H846   H     0.91873   0.86132   0.12870   0.00000  Uiso   1.00
H847   H     0.95874   0.81767   0.12326   0.00000  Uiso   1.00
H848   H     0.92358   0.81635   0.16924   0.00000  Uiso   1.00
O849   O     0.71797   0.83912   0.45945   0.00000  Uiso   1.00
C850   C     0.70348   0.88432   0.46748   0.00000  Uiso   1.00
H851   H     0.72662   0.90969   0.45720   0.00000  Uiso   1.00
H852   H     0.69512   0.89008   0.00313   0.00000  Uiso   1.00
H853   H     0.67553   0.89081   0.44778   0.00000  Uiso   1.00
O854   O     0.94326   0.82797   0.03980   0.00000  Uiso   1.00
C855   C     0.94801   0.87571   0.04045   0.00000  Uiso   1.00
H856   H     0.92077   0.89424   0.05598   0.00000  Uiso   1.00
H857   H     0.95350   0.88880   0.00622   0.00000  Uiso   1.00
H858   H     0.97474   0.88396   0.06085   0.00000  Uiso   1.00
C859   C     0.71882   0.80633   0.04844   0.00000  Uiso   1.00
H860   H     0.70510   0.78089   0.02618   0.00000  Uiso   1.00
H861   H     0.72723   0.78787   0.07916   0.00000  Uiso   1.00
H862   H     0.69508   0.83284   0.05674   0.00000  Uiso   1.00
C863   C     0.94465   0.79441   0.45124   0.00000  Uiso   1.00
H864   H     0.95706   0.76613   0.47179   0.00000  Uiso   1.00
H865   H     0.93812   0.77901   0.41852   0.00000  Uiso   1.00
H866   H     0.96886   0.82005   0.44765   0.00000  Uiso   1.00
C867   C     0.71151   0.76591   0.30993   0.00000  Uiso   1.00
H868   H     0.74154   0.77826   0.32091   0.00000  Uiso   1.00
H869   H     0.69342   0.76088   0.34139   0.00000  Uiso   1.00
H870   H     0.71673   0.73290   0.29218   0.00000  Uiso   1.00
C871   C     0.95904   0.90936   0.21059   0.00000  Uiso   1.00
H872   H     0.93410   0.89694   0.19009   0.00000  Uiso   1.00
H873   H     0.94656   0.93753   0.23229   0.00000  Uiso   1.00
H874   H     0.98168   0.92296   0.18598   0.00000  Uiso   1.00
C875   C     0.95825   0.75252   0.28770   0.00000  Uiso   1.00
H876   H     0.94564   0.73574   0.25801   0.00000  Uiso   1.00
H877   H     0.97837   0.72604   0.30254   0.00000  Uiso   1.00
H878   H     0.93328   0.76064   0.31272   0.00000  Uiso   1.00
C879   C     0.70550   0.92365   0.24733   0.00000  Uiso   1.00
H880   H     0.72458   0.92943   0.27682   0.00000  Uiso   1.00
H881   H     0.72395   0.92737   0.21594   0.00000  Uiso   1.00
H882   H     0.68201   0.95178   0.24931   0.00000  Uiso   1.00
O883   O     0.10559   0.20487   0.74999   0.00000  Uiso   1.00
O884   O     0.22774   0.12846   0.75000   0.00000  Uiso   1.00
O885   O     0.22774   0.20487   0.75000   0.00000  Uiso   1.00
O886   O     0.10559   0.12846   0.74999   0.00000  Uiso   1.00
C887   C     0.08665   0.16768   0.75401   0.00000  Uiso   1.00
C888   C     0.24697   0.16614   0.75090   0.00000  Uiso   1.00
O889   O     0.16666   0.20489   0.68392   0.00000  Uiso   1.00
O890   O     0.16667   0.12844   0.81607   0.00000  Uiso   1.00
O891   O     0.16667   0.20489   0.81607   0.00000  Uiso   1.00
O892   O     0.16666   0.12844   0.68392   0.00000  Uiso   1.00
C893   C     0.16696   0.16634   0.66331   0.00000  Uiso   1.00
C894   C     0.16539   0.16695   0.83646   0.00000  Uiso   1.00
Zn895  Zn    0.16667   0.21771   0.75000   0.00000  Uiso   1.00
Zn896  Zn    0.16667   0.11563   0.75000   0.00000  Uiso   1.00
C897   C     0.20251   0.16828   0.90564   0.00000  Uiso   1.00
C898   C     0.12858   0.17361   0.59406   0.00000  Uiso   1.00
C899   C     0.16490   0.16786   0.88409   0.00000  Uiso   1.00
C900   C     0.16604   0.16508   0.61535   0.00000  Uiso   1.00
C901   C     0.12688   0.16842   0.90753   0.00000  Uiso   1.00
C902   C     0.20201   0.15203   0.59091   0.00000  Uiso   1.00
C903   C     0.12639   0.16621   0.95424   0.00000  Uiso   1.00
C904   C     0.20225   0.15551   0.54464   0.00000  Uiso   1.00
C905   C     0.16447   0.16137   0.97607   0.00000  Uiso   1.00
C906   C     0.16452   0.16031   0.52283   0.00000  Uiso   1.00
C907   C     0.20261   0.15870   0.95139   0.00000  Uiso   1.00
C908   C     0.12699   0.16447   0.54790   0.00000  Uiso   1.00
C909   C     0.08890   0.16674   0.97962   0.00000  Uiso   1.00
C910   C     0.23965   0.15321   0.51984   0.00000  Uiso   1.00
C911   C     0.08956   0.15995   0.52576   0.00000  Uiso   1.00
C912   C     0.23950   0.14846   0.97378   0.00000  Uiso   1.00
C913   C     0.02219   0.13298   0.78040   0.00000  Uiso   1.00
C914   C     0.31230   0.20553   0.73880   0.00000  Uiso   1.00
C915   C     0.31320   0.12911   0.77361   0.00000  Uiso   1.00
C916   C     0.02000   0.21004   0.74931   0.00000  Uiso   1.00
C917   C     0.29165   0.16578   0.75270   0.00000  Uiso   1.00
C918   C     0.04247   0.17069   0.76239   0.00000  Uiso   1.00
C919   C     0.18881   0.02349   0.78035   0.00000  Uiso   1.00
C920   C     0.14451   0.30983   0.71966   0.00000  Uiso   1.00
C921   C     0.14447   0.02455   0.71969   0.00000  Uiso   1.00
C922   C     0.18885   0.30877   0.78032   0.00000  Uiso   1.00
H923   H     0.20641   0.04134   0.80463   0.00000  Uiso   1.00
H924   H     0.12691   0.29197   0.69539   0.00000  Uiso   1.00
H925   H     0.12674   0.04327   0.69552   0.00000  Uiso   1.00
H926   H     0.20660   0.29005   0.80447   0.00000  Uiso   1.00
N927   N     0.16667   0.28573   0.75000   0.00000  Uiso   1.00
N928   N     0.16667   0.04760   0.75000   0.00000  Uiso   1.00
C929   C     0.24019   0.18603   0.88066   0.00000  Uiso   1.00
H930   H     0.26319   0.19963   0.90341   0.00000  Uiso   1.00
H931   H     0.25445   0.15922   0.85868   0.00000  Uiso   1.00
H932   H     0.23142   0.21562   0.85985   0.00000  Uiso   1.00
C933   C     0.09223   0.19508   0.62029   0.00000  Uiso   1.00
H934   H     0.06880   0.21050   0.59844   0.00000  Uiso   1.00
H935   H     0.07793   0.16959   0.64258   0.00000  Uiso   1.00
H936   H     0.10255   0.22389   0.64079   0.00000  Uiso   1.00
O937   O     0.09032   0.16864   0.88463   0.00000  Uiso   1.00
C938   C     0.08092   0.21298   0.86907   0.00000  Uiso   1.00
H939   H     0.09456   0.24077   0.88877   0.00000  Uiso   1.00
H940   H     0.04692   0.21838   0.87007   0.00000  Uiso   1.00
H941   H     0.09118   0.21613   0.83397   0.00000  Uiso   1.00
O942   O     0.23411   0.12822   0.61067   0.00000  Uiso   1.00
C943   C     0.25940   0.15786   0.63376   0.00000  Uiso   1.00
H944   H     0.25207   0.19466   0.62870   0.00000  Uiso   1.00
H945   H     0.29207   0.15100   0.62326   0.00000  Uiso   1.00
H946   H     0.25692   0.14969   0.66924   0.00000  Uiso   1.00
O947   O     0.05131   0.17245   0.95945   0.00000  Uiso   1.00
C948   C     0.03681   0.21765   0.96748   0.00000  Uiso   1.00
H949   H     0.05996   0.24302   0.95720   0.00000  Uiso   1.00
H950   H     0.02845   0.22342   0.50313   0.00000  Uiso   1.00
H951   H     0.00886   0.22415   0.94778   0.00000  Uiso   1.00
O952   O     0.27659   0.16131   0.53980   0.00000  Uiso   1.00
C953   C     0.28135   0.20905   0.54045   0.00000  Uiso   1.00
H954   H     0.25410   0.22757   0.55598   0.00000  Uiso   1.00
H955   H     0.28683   0.22214   0.50622   0.00000  Uiso   1.00
H956   H     0.30807   0.21729   0.56085   0.00000  Uiso   1.00
C957   C     0.05216   0.13966   0.54844   0.00000  Uiso   1.00
H958   H     0.03843   0.11422   0.52618   0.00000  Uiso   1.00
H959   H     0.06056   0.12120   0.57916   0.00000  Uiso   1.00
H960   H     0.02842   0.16618   0.55674   0.00000  Uiso   1.00
C961   C     0.27798   0.12774   0.95124   0.00000  Uiso   1.00
H962   H     0.29040   0.09946   0.97179   0.00000  Uiso   1.00
H963   H     0.27145   0.11234   0.91852   0.00000  Uiso   1.00
H964   H     0.30220   0.15339   0.94765   0.00000  Uiso   1.00
C965   C     0.04484   0.09925   0.80993   0.00000  Uiso   1.00
H966   H     0.07488   0.11160   0.82091   0.00000  Uiso   1.00
H967   H     0.02676   0.09421   0.84139   0.00000  Uiso   1.00
H968   H     0.05007   0.06624   0.79218   0.00000  Uiso   1.00
C969   C     0.29237   0.24270   0.71059   0.00000  Uiso   1.00
H970   H     0.26744   0.23027   0.69009   0.00000  Uiso   1.00
H971   H     0.27990   0.27086   0.73229   0.00000  Uiso   1.00
H972   H     0.31501   0.25629   0.68598   0.00000  Uiso   1.00
C973   C     0.29158   0.08585   0.78770   0.00000  Uiso   1.00
H974   H     0.27898   0.06907   0.75801   0.00000  Uiso   1.00
H975   H     0.31170   0.05937   0.80254   0.00000  Uiso   1.00
H976   H     0.26661   0.09398   0.81272   0.00000  Uiso   1.00
C977   C     0.03883   0.25699   0.74733   0.00000  Uiso   1.00
H978   H     0.05791   0.26276   0.77682   0.00000  Uiso   1.00
H979   H     0.05728   0.26070   0.71594   0.00000  Uiso   1.00
H980   H     0.01534   0.28512   0.74931   0.00000  Uiso   1.00
O981   O     0.43892   0.20487   0.74999   0.00000  Uiso   1.00
O982   O     0.56108   0.12846   0.75000   0.00000  Uiso   1.00
O983   O     0.56108   0.20487   0.75000   0.00000  Uiso   1.00
O984   O     0.43892   0.12846   0.74999   0.00000  Uiso   1.00
C985   C     0.41999   0.16768   0.75401   0.00000  Uiso   1.00
C986   C     0.58030   0.16614   0.75090   0.00000  Uiso   1.00
O987   O     0.49999   0.20489   0.68392   0.00000  Uiso   1.00
O988   O     0.50001   0.12844   0.81607   0.00000  Uiso   1.00
O989   O     0.50001   0.20489   0.81607   0.00000  Uiso   1.00
O990   O     0.49999   0.12844   0.68392   0.00000  Uiso   1.00
C991   C     0.50029   0.16634   0.66331   0.00000  Uiso   1.00
C992   C     0.49872   0.16695   0.83646   0.00000  Uiso   1.00
Zn993  Zn    0.50000   0.21771   0.75000   0.00000  Uiso   1.00
Zn994  Zn    0.50000   0.11563   0.75000   0.00000  Uiso   1.00
C995   C     0.53584   0.16828   0.90564   0.00000  Uiso   1.00
C996   C     0.46191   0.17361   0.59406   0.00000  Uiso   1.00
C997   C     0.49823   0.16786   0.88409   0.00000  Uiso   1.00
C998   C     0.49937   0.16508   0.61535   0.00000  Uiso   1.00
C999   C     0.46021   0.16842   0.90753   0.00000  Uiso   1.00
C1000  C     0.53534   0.15203   0.59091   0.00000  Uiso   1.00
C1001  C     0.45973   0.16621   0.95424   0.00000  Uiso   1.00
C1002  C     0.53558   0.15551   0.54464   0.00000  Uiso   1.00
C1003  C     0.49780   0.16137   0.97607   0.00000  Uiso   1.00
C1004  C     0.49785   0.16031   0.52283   0.00000  Uiso   1.00
C1005  C     0.53594   0.15870   0.95139   0.00000  Uiso   1.00
C1006  C     0.46032   0.16447   0.54790   0.00000  Uiso   1.00
C1007  C     0.42224   0.16674   0.97962   0.00000  Uiso   1.00
C1008  C     0.57299   0.15321   0.51984   0.00000  Uiso   1.00
C1009  C     0.42289   0.15995   0.52576   0.00000  Uiso   1.00
C1010  C     0.57283   0.14846   0.97378   0.00000  Uiso   1.00
C1011  C     0.35553   0.13298   0.78040   0.00000  Uiso   1.00
C1012  C     0.64563   0.20553   0.73880   0.00000  Uiso   1.00
C1013  C     0.64653   0.12911   0.77361   0.00000  Uiso   1.00
C1014  C     0.35334   0.21004   0.74931   0.00000  Uiso   1.00
C1015  C     0.62499   0.16578   0.75270   0.00000  Uiso   1.00
C1016  C     0.37580   0.17069   0.76239   0.00000  Uiso   1.00
C1017  C     0.52215   0.02349   0.78035   0.00000  Uiso   1.00
C1018  C     0.47785   0.30983   0.71966   0.00000  Uiso   1.00
C1019  C     0.47781   0.02455   0.71969   0.00000  Uiso   1.00
C1020  C     0.52219   0.30877   0.78032   0.00000  Uiso   1.00
H1021  H     0.53974   0.04134   0.80463   0.00000  Uiso   1.00
H1022  H     0.46025   0.29197   0.69539   0.00000  Uiso   1.00
H1023  H     0.46007   0.04327   0.69552   0.00000  Uiso   1.00
H1024  H     0.53993   0.29005   0.80447   0.00000  Uiso   1.00
N1025  N     0.50000   0.28573   0.75000   0.00000  Uiso   1.00
N1026  N     0.50000   0.04760   0.75000   0.00000  Uiso   1.00
C1027  C     0.57352   0.18603   0.88066   0.00000  Uiso   1.00
H1028  H     0.59652   0.19963   0.90341   0.00000  Uiso   1.00
H1029  H     0.58778   0.15922   0.85868   0.00000  Uiso   1.00
H1030  H     0.56475   0.21562   0.85985   0.00000  Uiso   1.00
C1031  C     0.42556   0.19508   0.62029   0.00000  Uiso   1.00
H1032  H     0.40214   0.21050   0.59844   0.00000  Uiso   1.00
H1033  H     0.41126   0.16959   0.64258   0.00000  Uiso   1.00
H1034  H     0.43588   0.22389   0.64079   0.00000  Uiso   1.00
O1035  O     0.42365   0.16864   0.88463   0.00000  Uiso   1.00
C1036  C     0.41426   0.21298   0.86907   0.00000  Uiso   1.00
H1037  H     0.42789   0.24077   0.88877   0.00000  Uiso   1.00
H1038  H     0.38025   0.21838   0.87007   0.00000  Uiso   1.00
H1039  H     0.42451   0.21613   0.83397   0.00000  Uiso   1.00
O1040  O     0.56745   0.12822   0.61067   0.00000  Uiso   1.00
C1041  C     0.59273   0.15786   0.63376   0.00000  Uiso   1.00
H1042  H     0.58540   0.19466   0.62870   0.00000  Uiso   1.00
H1043  H     0.62541   0.15100   0.62326   0.00000  Uiso   1.00
H1044  H     0.59025   0.14969   0.66924   0.00000  Uiso   1.00
O1045  O     0.38464   0.17245   0.95945   0.00000  Uiso   1.00
C1046  C     0.37014   0.21765   0.96748   0.00000  Uiso   1.00
H1047  H     0.39329   0.24302   0.95720   0.00000  Uiso   1.00
H1048  H     0.36179   0.22342   0.50313   0.00000  Uiso   1.00
H1049  H     0.34220   0.22415   0.94778   0.00000  Uiso   1.00
O1050  O     0.60993   0.16131   0.53980   0.00000  Uiso   1.00
C1051  C     0.61468   0.20905   0.54045   0.00000  Uiso   1.00
H1052  H     0.58743   0.22757   0.55598   0.00000  Uiso   1.00
H1053  H     0.62016   0.22214   0.50622   0.00000  Uiso   1.00
H1054  H     0.64141   0.21729   0.56085   0.00000  Uiso   1.00
C1055  C     0.38549   0.13966   0.54844   0.00000  Uiso   1.00
H1056  H     0.37176   0.11422   0.52618   0.00000  Uiso   1.00
H1057  H     0.39390   0.12120   0.57916   0.00000  Uiso   1.00
H1058  H     0.36175   0.16618   0.55674   0.00000  Uiso   1.00
C1059  C     0.61132   0.12774   0.95124   0.00000  Uiso   1.00
H1060  H     0.62373   0.09946   0.97179   0.00000  Uiso   1.00
H1061  H     0.60478   0.11234   0.91852   0.00000  Uiso   1.00
H1062  H     0.63553   0.15339   0.94765   0.00000  Uiso   1.00
C1063  C     0.37818   0.09925   0.80993   0.00000  Uiso   1.00
H1064  H     0.40821   0.11160   0.82091   0.00000  Uiso   1.00
H1065  H     0.36009   0.09421   0.84139   0.00000  Uiso   1.00
H1066  H     0.38340   0.06624   0.79218   0.00000  Uiso   1.00
C1067  C     0.62571   0.24270   0.71059   0.00000  Uiso   1.00
H1068  H     0.60077   0.23027   0.69009   0.00000  Uiso   1.00
H1069  H     0.61323   0.27086   0.73229   0.00000  Uiso   1.00
H1070  H     0.64835   0.25629   0.68598   0.00000  Uiso   1.00
C1071  C     0.62492   0.08585   0.78770   0.00000  Uiso   1.00
H1072  H     0.61231   0.06907   0.75801   0.00000  Uiso   1.00
H1073  H     0.64503   0.05937   0.80254   0.00000  Uiso   1.00
H1074  H     0.59994   0.09398   0.81272   0.00000  Uiso   1.00
C1075  C     0.37216   0.25699   0.74733   0.00000  Uiso   1.00
H1076  H     0.39124   0.26276   0.77682   0.00000  Uiso   1.00
H1077  H     0.39062   0.26070   0.71594   0.00000  Uiso   1.00
H1078  H     0.34867   0.28512   0.74931   0.00000  Uiso   1.00
O1079  O     0.77226   0.20487   0.74999   0.00000  Uiso   1.00
O1080  O     0.89441   0.12846   0.75000   0.00000  Uiso   1.00
O1081  O     0.89441   0.20487   0.75000   0.00000  Uiso   1.00
O1082  O     0.77226   0.12846   0.74999   0.00000  Uiso   1.00
C1083  C     0.75332   0.16768   0.75401   0.00000  Uiso   1.00
C1084  C     0.91364   0.16614   0.75090   0.00000  Uiso   1.00
O1085  O     0.83333   0.20489   0.68392   0.00000  Uiso   1.00
O1086  O     0.83334   0.12844   0.81607   0.00000  Uiso   1.00
O1087  O     0.83334   0.20489   0.81607   0.00000  Uiso   1.00
O1088  O     0.83333   0.12844   0.68392   0.00000  Uiso   1.00
C1089  C     0.83362   0.16634   0.66331   0.00000  Uiso   1.00
C1090  C     0.83205   0.16695   0.83646   0.00000  Uiso   1.00
Zn1091 Zn    0.83333   0.21771   0.75000   0.00000  Uiso   1.00
Zn1092 Zn    0.83333   0.11563   0.75000   0.00000  Uiso   1.00
C1093  C     0.86918   0.16828   0.90564   0.00000  Uiso   1.00
C1094  C     0.79524   0.17361   0.59406   0.00000  Uiso   1.00
C1095  C     0.83157   0.16786   0.88409   0.00000  Uiso   1.00
C1096  C     0.83271   0.16508   0.61535   0.00000  Uiso   1.00
C1097  C     0.79355   0.16842   0.90753   0.00000  Uiso   1.00
C1098  C     0.86868   0.15203   0.59091   0.00000  Uiso   1.00
C1099  C     0.79306   0.16621   0.95424   0.00000  Uiso   1.00
C1100  C     0.86891   0.15551   0.54464   0.00000  Uiso   1.00
C1101  C     0.83113   0.16137   0.97607   0.00000  Uiso   1.00
C1102  C     0.83119   0.16031   0.52283   0.00000  Uiso   1.00
C1103  C     0.86927   0.15870   0.95139   0.00000  Uiso   1.00
C1104  C     0.79365   0.16447   0.54790   0.00000  Uiso   1.00
C1105  C     0.75557   0.16674   0.97962   0.00000  Uiso   1.00
C1106  C     0.90632   0.15321   0.51984   0.00000  Uiso   1.00
C1107  C     0.75622   0.15995   0.52576   0.00000  Uiso   1.00
C1108  C     0.90616   0.14846   0.97378   0.00000  Uiso   1.00
C1109  C     0.68886   0.13298   0.78040   0.00000  Uiso   1.00
C1110  C     0.97896   0.20553   0.73880   0.00000  Uiso   1.00
C1111  C     0.97986   0.12911   0.77361   0.00000  Uiso   1.00
C1112  C     0.68667   0.21004   0.74931   0.00000  Uiso   1.00
C1113  C     0.95832   0.16578   0.75270   0.00000  Uiso   1.00
C1114  C     0.70914   0.17069   0.76239   0.00000  Uiso   1.00
C1115  C     0.85548   0.02349   0.78035   0.00000  Uiso   1.00
C1116  C     0.81118   0.30983   0.71966   0.00000  Uiso   1.00
C1117  C     0.81114   0.02455   0.71969   0.00000  Uiso   1.00
C1118  C     0.85552   0.30877   0.78032   0.00000  Uiso   1.00
H1119  H     0.87308   0.04134   0.80463   0.00000  Uiso   1.00
H1120  H     0.79358   0.29197   0.69539   0.00000  Uiso   1.00
H1121  H     0.79340   0.04327   0.69552   0.00000  Uiso   1.00
H1122  H     0.87327   0.29005   0.80447   0.00000  Uiso   1.00
N1123  N     0.83333   0.28573   0.75000   0.00000  Uiso   1.00
N1124  N     0.83333   0.04760   0.75000   0.00000  Uiso   1.00
C1125  C     0.90686   0.18603   0.88066   0.00000  Uiso   1.00
H1126  H     0.92985   0.19963   0.90341   0.00000  Uiso   1.00
H1127  H     0.92112   0.15922   0.85868   0.00000  Uiso   1.00
H1128  H     0.89809   0.21562   0.85985   0.00000  Uiso   1.00
C1129  C     0.75889   0.19508   0.62029   0.00000  Uiso   1.00
H1130  H     0.73547   0.21050   0.59844   0.00000  Uiso   1.00
H1131  H     0.74460   0.16959   0.64258   0.00000  Uiso   1.00
H1132  H     0.76922   0.22389   0.64079   0.00000  Uiso   1.00
O1133  O     0.75699   0.16864   0.88463   0.00000  Uiso   1.00
C1134  C     0.74759   0.21298   0.86907   0.00000  Uiso   1.00
H1135  H     0.76122   0.24077   0.88877   0.00000  Uiso   1.00
H1136  H     0.71359   0.21838   0.87007   0.00000  Uiso   1.00
H1137  H     0.75785   0.21613   0.83397   0.00000  Uiso   1.00
O1138  O     0.90078   0.12822   0.61067   0.00000  Uiso   1.00
C1139  C     0.92607   0.15786   0.63376   0.00000  Uiso   1.00
H1140  H     0.91873   0.19466   0.62870   0.00000  Uiso   1.00
H1141  H     0.95874   0.15100   0.62326   0.00000  Uiso   1.00
H1142  H     0.92358   0.14969   0.66924   0.00000  Uiso   1.00
O1143  O     0.71797   0.17245   0.95945   0.00000  Uiso   1.00
C1144  C     0.70348   0.21765   0.96748   0.00000  Uiso   1.00
H1145  H     0.72662   0.24302   0.95720   0.00000  Uiso   1.00
H1146  H     0.69512   0.22342   0.50313   0.00000  Uiso   1.00
H1147  H     0.67553   0.22415   0.94778   0.00000  Uiso   1.00
O1148  O     0.94326   0.16131   0.53980   0.00000  Uiso   1.00
C1149  C     0.94801   0.20905   0.54045   0.00000  Uiso   1.00
H1150  H     0.92077   0.22757   0.55598   0.00000  Uiso   1.00
H1151  H     0.95350   0.22214   0.50622   0.00000  Uiso   1.00
H1152  H     0.97474   0.21729   0.56085   0.00000  Uiso   1.00
C1153  C     0.71882   0.13966   0.54844   0.00000  Uiso   1.00
H1154  H     0.70510   0.11422   0.52618   0.00000  Uiso   1.00
H1155  H     0.72723   0.12120   0.57916   0.00000  Uiso   1.00
H1156  H     0.69508   0.16618   0.55674   0.00000  Uiso   1.00
C1157  C     0.94465   0.12774   0.95124   0.00000  Uiso   1.00
H1158  H     0.95706   0.09946   0.97179   0.00000  Uiso   1.00
H1159  H     0.93812   0.11234   0.91852   0.00000  Uiso   1.00
H1160  H     0.96886   0.15339   0.94765   0.00000  Uiso   1.00
C1161  C     0.71151   0.09925   0.80993   0.00000  Uiso   1.00
H1162  H     0.74154   0.11160   0.82091   0.00000  Uiso   1.00
H1163  H     0.69342   0.09421   0.84139   0.00000  Uiso   1.00
H1164  H     0.71673   0.06624   0.79218   0.00000  Uiso   1.00
C1165  C     0.95904   0.24270   0.71059   0.00000  Uiso   1.00
H1166  H     0.93410   0.23027   0.69009   0.00000  Uiso   1.00
H1167  H     0.94656   0.27086   0.73229   0.00000  Uiso   1.00
H1168  H     0.98168   0.25629   0.68598   0.00000  Uiso   1.00
C1169  C     0.95825   0.08585   0.78770   0.00000  Uiso   1.00
H1170  H     0.94564   0.06907   0.75801   0.00000  Uiso   1.00
H1171  H     0.97837   0.05937   0.80254   0.00000  Uiso   1.00
H1172  H     0.93328   0.09398   0.81272   0.00000  Uiso   1.00
C1173  C     0.70550   0.25699   0.74733   0.00000  Uiso   1.00
H1174  H     0.72458   0.26276   0.77682   0.00000  Uiso   1.00
H1175  H     0.72395   0.26070   0.71594   0.00000  Uiso   1.00
H1176  H     0.68201   0.28512   0.74931   0.00000  Uiso   1.00
O1177  O     0.10559   0.53821   0.74999   0.00000  Uiso   1.00
O1178  O     0.22774   0.46179   0.75000   0.00000  Uiso   1.00
O1179  O     0.22774   0.53821   0.75000   0.00000  Uiso   1.00
O1180  O     0.10559   0.46179   0.74999   0.00000  Uiso   1.00
C1181  C     0.08665   0.50101   0.75401   0.00000  Uiso   1.00
C1182  C     0.24697   0.49947   0.75090   0.00000  Uiso   1.00
O1183  O     0.16666   0.53823   0.68392   0.00000  Uiso   1.00
O1184  O     0.16667   0.46177   0.81607   0.00000  Uiso   1.00
O1185  O     0.16667   0.53823   0.81607   0.00000  Uiso   1.00
O1186  O     0.16666   0.46177   0.68392   0.00000  Uiso   1.00
C1187  C     0.16696   0.49968   0.66331   0.00000  Uiso   1.00
C1188  C     0.16539   0.50028   0.83646   0.00000  Uiso   1.00
Zn1189 Zn    0.16667   0.55104   0.75000   0.00000  Uiso   1.00
Zn1190 Zn    0.16667   0.44896   0.75000   0.00000  Uiso   1.00
C1191  C     0.20251   0.50161   0.90564   0.00000  Uiso   1.00
C1192  C     0.12858   0.50695   0.59406   0.00000  Uiso   1.00
C1193  C     0.16490   0.50119   0.88409   0.00000  Uiso   1.00
C1194  C     0.16604   0.49841   0.61535   0.00000  Uiso   1.00
C1195  C     0.12688   0.50176   0.90753   0.00000  Uiso   1.00
C1196  C     0.20201   0.48536   0.59091   0.00000  Uiso   1.00
C1197  C     0.12639   0.49954   0.95424   0.00000  Uiso   1.00
C1198  C     0.20225   0.48885   0.54464   0.00000  Uiso   1.00
C1199  C     0.16447   0.49470   0.97607   0.00000  Uiso   1.00
C1200  C     0.16452   0.49364   0.52283   0.00000  Uiso   1.00
C1201  C     0.20261   0.49204   0.95139   0.00000  Uiso   1.00
C1202  C     0.12699   0.49780   0.54790   0.00000  Uiso   1.00
C1203  C     0.08890   0.50008   0.97962   0.00000  Uiso   1.00
C1204  C     0.23965   0.48655   0.51984   0.00000  Uiso   1.00
C1205  C     0.08956   0.49329   0.52576   0.00000  Uiso   1.00
C1206  C     0.23950   0.48179   0.97378   0.00000  Uiso   1.00
C1207  C     0.02219   0.46631   0.78040   0.00000  Uiso   1.00
C1208  C     0.31230   0.53886   0.73880   0.00000  Uiso   1.00
C1209  C     0.31320   0.46244   0.77361   0.00000  Uiso   1.00
C1210  C     0.02000   0.54337   0.74931   0.00000  Uiso   1.00
C1211  C     0.29165   0.49911   0.75270   0.00000  Uiso   1.00
C1212  C     0.04247   0.50402   0.76239   0.00000  Uiso   1.00
C1213  C     0.18881   0.35682   0.78035   0.00000  Uiso   1.00
C1214  C     0.14451   0.64316   0.71966   0.00000  Uiso   1.00
C1215  C     0.14447   0.35789   0.71969   0.00000  Uiso   1.00
C1216  C     0.18885   0.64210   0.78032   0.00000  Uiso   1.00
H1217  H     0.20641   0.37467   0.80463   0.00000  Uiso   1.00
H1218  H     0.12691   0.62530   0.69539   0.00000  Uiso   1.00
H1219  H     0.12674   0.37660   0.69552   0.00000  Uiso   1.00
H1220  H     0.20660   0.62338   0.80447   0.00000  Uiso   1.00
N1221  N     0.16667   0.61907   0.75000   0.00000  Uiso   1.00
N1222  N     0.16667   0.38093   0.75000   0.00000  Uiso   1.00
C1223  C     0.24019   0.51936   0.88066   0.00000  Uiso   1.00
H1224  H     0.26319   0.53296   0.90341   0.00000  Uiso   1.00
H1225  H     0.25445   0.49255   0.85868   0.00000  Uiso   1.00
H1226  H     0.23142   0.54896   0.85985   0.00000  Uiso   1.00
C1227  C     0.09223   0.52842   0.62029   0.00000  Uiso   1.00
H1228  H     0.06880   0.54383   0.59844   0.00000  Uiso   1.00
H1229  H     0.07793   0.50293   0.64258   0.00000  Uiso   1.00
H1230  H     0.10255   0.55722   0.64079   0.00000  Uiso   1.00
O1231  O     0.09032   0.50197   0.88463   0.00000  Uiso   1.00
C1232  C     0.08092   0.54631   0.86907   0.00000  Uiso   1.00
H1233  H     0.09456   0.57410   0.88877   0.00000  Uiso   1.00
H1234  H     0.04692   0.55171   0.87007   0.00000  Uiso   1.00
H1235  H     0.09118   0.54946   0.83397   0.00000  Uiso   1.00
O1236  O     0.23411   0.46156   0.61067   0.00000  Uiso   1.00
C1237  C     0.25940   0.49119   0.63376   0.00000  Uiso   1.00
H1238  H     0.25207   0.52799   0.62870   0.00000  Uiso   1.00
H1239  H     0.29207   0.48433   0.62326   0.00000  Uiso   1.00
H1240  H     0.25692   0.48302   0.66924   0.00000  Uiso   1.00
O1241  O     0.05131   0.50578   0.95945   0.00000  Uiso   1.00
C1242  C     0.03681   0.55098   0.96748   0.00000  Uiso   1.00
H1243  H     0.05996   0.57636   0.95720   0.00000  Uiso   1.00
H1244  H     0.02845   0.55675   0.50313   0.00000  Uiso   1.00
H1245  H     0.00886   0.55748   0.94778   0.00000  Uiso   1.00
O1246  O     0.27659   0.49464   0.53980   0.00000  Uiso   1.00
C1247  C     0.28135   0.54238   0.54045   0.00000  Uiso   1.00
H1248  H     0.25410   0.56090   0.55598   0.00000  Uiso   1.00
H1249  H     0.28683   0.55547   0.50622   0.00000  Uiso   1.00
H1250  H     0.30807   0.55063   0.56085   0.00000  Uiso   1.00
C1251  C     0.05216   0.47299   0.54844   0.00000  Uiso   1.00
H1252  H     0.03843   0.44756   0.52618   0.00000  Uiso   1.00
H1253  H     0.06056   0.45454   0.57916   0.00000  Uiso   1.00
H1254  H     0.02842   0.49951   0.55674   0.00000  Uiso   1.00
C1255  C     0.27798   0.46107   0.95124   0.00000  Uiso   1.00
H1256  H     0.29040   0.43279   0.97179   0.00000  Uiso   1.00
H1257  H     0.27145   0.44568   0.91852   0.00000  Uiso   1.00
H1258  H     0.30220   0.48672   0.94765   0.00000  Uiso   1.00
C1259  C     0.04484   0.43258   0.80993   0.00000  Uiso   1.00
H1260  H     0.07488   0.44493   0.82091   0.00000  Uiso   1.00
H1261  H     0.02676   0.42754   0.84139   0.00000  Uiso   1.00
H1262  H     0.05007   0.39957   0.79218   0.00000  Uiso   1.00
C1263  C     0.29237   0.57603   0.71059   0.00000  Uiso   1.00
H1264  H     0.26744   0.56360   0.69009   0.00000  Uiso   1.00
H1265  H     0.27990   0.60420   0.73229   0.00000  Uiso   1.00
H1266  H     0.31501   0.58962   0.68598   0.00000  Uiso   1.00
C1267  C     0.29158   0.41918   0.78770   0.00000  Uiso   1.00
H1268  H     0.27898   0.40241   0.75801   0.00000  Uiso   1.00
H1269  H     0.31170   0.39270   0.80254   0.00000  Uiso   1.00
H1270  H     0.26661   0.42731   0.81272   0.00000  Uiso   1.00
C1271  C     0.03883   0.59032   0.74733   0.00000  Uiso   1.00
H1272  H     0.05791   0.59609   0.77682   0.00000  Uiso   1.00
H1273  H     0.05728   0.59403   0.71594   0.00000  Uiso   1.00
H1274  H     0.01534   0.61845   0.74931   0.00000  Uiso   1.00
O1275  O     0.43892   0.53821   0.74999   0.00000  Uiso   1.00
O1276  O     0.56108   0.46179   0.75000   0.00000  Uiso   1.00
O1277  O     0.56108   0.53821   0.75000   0.00000  Uiso   1.00
O1278  O     0.43892   0.46179   0.74999   0.00000  Uiso   1.00
C1279  C     0.41999   0.50101   0.75401   0.00000  Uiso   1.00
C1280  C     0.58030   0.49947   0.75090   0.00000  Uiso   1.00
O1281  O     0.49999   0.53823   0.68392   0.00000  Uiso   1.00
O1282  O     0.50001   0.46177   0.81607   0.00000  Uiso   1.00
O1283  O     0.50001   0.53823   0.81607   0.00000  Uiso   1.00
O1284  O     0.49999   0.46177   0.68392   0.00000  Uiso   1.00
C1285  C     0.50029   0.49968   0.66331   0.00000  Uiso   1.00
C1286  C     0.49872   0.50028   0.83646   0.00000  Uiso   1.00
Zn1287 Zn    0.50000   0.55104   0.75000   0.00000  Uiso   1.00
Zn1288 Zn    0.50000   0.44896   0.75000   0.00000  Uiso   1.00
C1289  C     0.53584   0.50161   0.90564   0.00000  Uiso   1.00
C1290  C     0.46191   0.50695   0.59406   0.00000  Uiso   1.00
C1291  C     0.49823   0.50119   0.88409   0.00000  Uiso   1.00
C1292  C     0.49937   0.49841   0.61535   0.00000  Uiso   1.00
C1293  C     0.46021   0.50176   0.90753   0.00000  Uiso   1.00
C1294  C     0.53534   0.48536   0.59091   0.00000  Uiso   1.00
C1295  C     0.45973   0.49954   0.95424   0.00000  Uiso   1.00
C1296  C     0.53558   0.48885   0.54464   0.00000  Uiso   1.00
C1297  C     0.49780   0.49470   0.97607   0.00000  Uiso   1.00
C1298  C     0.49785   0.49364   0.52283   0.00000  Uiso   1.00
C1299  C     0.53594   0.49204   0.95139   0.00000  Uiso   1.00
C1300  C     0.46032   0.49780   0.54790   0.00000  Uiso   1.00
C1301  C     0.42224   0.50008   0.97962   0.00000  Uiso   1.00
C1302  C     0.57299   0.48655   0.51984   0.00000  Uiso   1.00
C1303  C     0.42289   0.49329   0.52576   0.00000  Uiso   1.00
C1304  C     0.57283   0.48179   0.97378   0.00000  Uiso   1.00
C1305  C     0.35553   0.46631   0.78040   0.00000  Uiso   1.00
C1306  C     0.64563   0.53886   0.73880   0.00000  Uiso   1.00
C1307  C     0.64653   0.46244   0.77361   0.00000  Uiso   1.00
C1308  C     0.35334   0.54337   0.74931   0.00000  Uiso   1.00
C1309  C     0.62499   0.49911   0.75270   0.00000  Uiso   1.00
C1310  C     0.37580   0.50402   0.76239   0.00000  Uiso   1.00
C1311  C     0.52215   0.35682   0.78035   0.00000  Uiso   1.00
C1312  C     0.47785   0.64316   0.71966   0.00000  Uiso   1.00
C1313  C     0.47781   0.35789   0.71969   0.00000  Uiso   1.00
C1314  C     0.52219   0.64210   0.78032   0.00000  Uiso   1.00
H1315  H     0.53974   0.37467   0.80463   0.00000  Uiso   1.00
H1316  H     0.46025   0.62530   0.69539   0.00000  Uiso   1.00
H1317  H     0.46007   0.37660   0.69552   0.00000  Uiso   1.00
H1318  H     0.53993   0.62338   0.80447   0.00000  Uiso   1.00
N1319  N     0.50000   0.61907   0.75000   0.00000  Uiso   1.00
N1320  N     0.50000   0.38093   0.75000   0.00000  Uiso   1.00
C1321  C     0.57352   0.51936   0.88066   0.00000  Uiso   1.00
H1322  H     0.59652   0.53296   0.90341   0.00000  Uiso   1.00
H1323  H     0.58778   0.49255   0.85868   0.00000  Uiso   1.00
H1324  H     0.56475   0.54896   0.85985   0.00000  Uiso   1.00
C1325  C     0.42556   0.52842   0.62029   0.00000  Uiso   1.00
H1326  H     0.40214   0.54383   0.59844   0.00000  Uiso   1.00
H1327  H     0.41126   0.50293   0.64258   0.00000  Uiso   1.00
H1328  H     0.43588   0.55722   0.64079   0.00000  Uiso   1.00
O1329  O     0.42365   0.50197   0.88463   0.00000  Uiso   1.00
C1330  C     0.41426   0.54631   0.86907   0.00000  Uiso   1.00
H1331  H     0.42789   0.57410   0.88877   0.00000  Uiso   1.00
H1332  H     0.38025   0.55171   0.87007   0.00000  Uiso   1.00
H1333  H     0.42451   0.54946   0.83397   0.00000  Uiso   1.00
O1334  O     0.56745   0.46156   0.61067   0.00000  Uiso   1.00
C1335  C     0.59273   0.49119   0.63376   0.00000  Uiso   1.00
H1336  H     0.58540   0.52799   0.62870   0.00000  Uiso   1.00
H1337  H     0.62541   0.48433   0.62326   0.00000  Uiso   1.00
H1338  H     0.59025   0.48302   0.66924   0.00000  Uiso   1.00
O1339  O     0.38464   0.50578   0.95945   0.00000  Uiso   1.00
C1340  C     0.37014   0.55098   0.96748   0.00000  Uiso   1.00
H1341  H     0.39329   0.57636   0.95720   0.00000  Uiso   1.00
H1342  H     0.36179   0.55675   0.50313   0.00000  Uiso   1.00
H1343  H     0.34220   0.55748   0.94778   0.00000  Uiso   1.00
O1344  O     0.60993   0.49464   0.53980   0.00000  Uiso   1.00
C1345  C     0.61468   0.54238   0.54045   0.00000  Uiso   1.00
H1346  H     0.58743   0.56090   0.55598   0.00000  Uiso   1.00
H1347  H     0.62016   0.55547   0.50622   0.00000  Uiso   1.00
H1348  H     0.64141   0.55063   0.56085   0.00000  Uiso   1.00
C1349  C     0.38549   0.47299   0.54844   0.00000  Uiso   1.00
H1350  H     0.37176   0.44756   0.52618   0.00000  Uiso   1.00
H1351  H     0.39390   0.45454   0.57916   0.00000  Uiso   1.00
H1352  H     0.36175   0.49951   0.55674   0.00000  Uiso   1.00
C1353  C     0.61132   0.46107   0.95124   0.00000  Uiso   1.00
H1354  H     0.62373   0.43279   0.97179   0.00000  Uiso   1.00
H1355  H     0.60478   0.44568   0.91852   0.00000  Uiso   1.00
H1356  H     0.63553   0.48672   0.94765   0.00000  Uiso   1.00
C1357  C     0.37818   0.43258   0.80993   0.00000  Uiso   1.00
H1358  H     0.40821   0.44493   0.82091   0.00000  Uiso   1.00
H1359  H     0.36009   0.42754   0.84139   0.00000  Uiso   1.00
H1360  H     0.38340   0.39957   0.79218   0.00000  Uiso   1.00
C1361  C     0.62571   0.57603   0.71059   0.00000  Uiso   1.00
H1362  H     0.60077   0.56360   0.69009   0.00000  Uiso   1.00
H1363  H     0.61323   0.60420   0.73229   0.00000  Uiso   1.00
H1364  H     0.64835   0.58962   0.68598   0.00000  Uiso   1.00
C1365  C     0.62492   0.41918   0.78770   0.00000  Uiso   1.00
H1366  H     0.61231   0.40241   0.75801   0.00000  Uiso   1.00
H1367  H     0.64503   0.39270   0.80254   0.00000  Uiso   1.00
H1368  H     0.59994   0.42731   0.81272   0.00000  Uiso   1.00
C1369  C     0.37216   0.59032   0.74733   0.00000  Uiso   1.00
H1370  H     0.39124   0.59609   0.77682   0.00000  Uiso   1.00
H1371  H     0.39062   0.59403   0.71594   0.00000  Uiso   1.00
H1372  H     0.34867   0.61845   0.74931   0.00000  Uiso   1.00
O1373  O     0.77226   0.53821   0.74999   0.00000  Uiso   1.00
O1374  O     0.89441   0.46179   0.75000   0.00000  Uiso   1.00
O1375  O     0.89441   0.53821   0.75000   0.00000  Uiso   1.00
O1376  O     0.77226   0.46179   0.74999   0.00000  Uiso   1.00
C1377  C     0.75332   0.50101   0.75401   0.00000  Uiso   1.00
C1378  C     0.91364   0.49947   0.75090   0.00000  Uiso   1.00
O1379  O     0.83333   0.53823   0.68392   0.00000  Uiso   1.00
O1380  O     0.83334   0.46177   0.81607   0.00000  Uiso   1.00
O1381  O     0.83334   0.53823   0.81607   0.00000  Uiso   1.00
O1382  O     0.83333   0.46177   0.68392   0.00000  Uiso   1.00
C1383  C     0.83362   0.49968   0.66331   0.00000  Uiso   1.00
C1384  C     0.83205   0.50028   0.83646   0.00000  Uiso   1.00
Zn1385 Zn    0.83333   0.55104   0.75000   0.00000  Uiso   1.00
Zn1386 Zn    0.83333   0.44896   0.75000   0.00000  Uiso   1.00
C1387  C     0.86918   0.50161   0.90564   0.00000  Uiso   1.00
C1388  C     0.79524   0.50695   0.59406   0.00000  Uiso   1.00
C1389  C     0.83157   0.50119   0.88409   0.00000  Uiso   1.00
C1390  C     0.83271   0.49841   0.61535   0.00000  Uiso   1.00
C1391  C     0.79355   0.50176   0.90753   0.00000  Uiso   1.00
C1392  C     0.86868   0.48536   0.59091   0.00000  Uiso   1.00
C1393  C     0.79306   0.49954   0.95424   0.00000  Uiso   1.00
C1394  C     0.86891   0.48885   0.54464   0.00000  Uiso   1.00
C1395  C     0.83113   0.49470   0.97607   0.00000  Uiso   1.00
C1396  C     0.83119   0.49364   0.52283   0.00000  Uiso   1.00
C1397  C     0.86927   0.49204   0.95139   0.00000  Uiso   1.00
C1398  C     0.79365   0.49780   0.54790   0.00000  Uiso   1.00
C1399  C     0.75557   0.50008   0.97962   0.00000  Uiso   1.00
C1400  C     0.90632   0.48655   0.51984   0.00000  Uiso   1.00
C1401  C     0.75622   0.49329   0.52576   0.00000  Uiso   1.00
C1402  C     0.90616   0.48179   0.97378   0.00000  Uiso   1.00
C1403  C     0.68886   0.46631   0.78040   0.00000  Uiso   1.00
C1404  C     0.97896   0.53886   0.73880   0.00000  Uiso   1.00
C1405  C     0.97986   0.46244   0.77361   0.00000  Uiso   1.00
C1406  C     0.68667   0.54337   0.74931   0.00000  Uiso   1.00
C1407  C     0.95832   0.49911   0.75270   0.00000  Uiso   1.00
C1408  C     0.70914   0.50402   0.76239   0.00000  Uiso   1.00
C1409  C     0.85548   0.35682   0.78035   0.00000  Uiso   1.00
C1410  C     0.81118   0.64316   0.71966   0.00000  Uiso   1.00
C1411  C     0.81114   0.35789   0.71969   0.00000  Uiso   1.00
C1412  C     0.85552   0.64210   0.78032   0.00000  Uiso   1.00
H1413  H     0.87308   0.37467   0.80463   0.00000  Uiso   1.00
H1414  H     0.79358   0.62530   0.69539   0.00000  Uiso   1.00
H1415  H     0.79340   0.37660   0.69552   0.00000  Uiso   1.00
H1416  H     0.87327   0.62338   0.80447   0.00000  Uiso   1.00
N1417  N     0.83333   0.61907   0.75000   0.00000  Uiso   1.00
N1418  N     0.83333   0.38093   0.75000   0.00000  Uiso   1.00
C1419  C     0.90686   0.51936   0.88066   0.00000  Uiso   1.00
H1420  H     0.92985   0.53296   0.90341   0.00000  Uiso   1.00
H1421  H     0.92112   0.49255   0.85868   0.00000  Uiso   1.00
H1422  H     0.89809   0.54896   0.85985   0.00000  Uiso   1.00
C1423  C     0.75889   0.52842   0.62029   0.00000  Uiso   1.00
H1424  H     0.73547   0.54383   0.59844   0.00000  Uiso   1.00
H1425  H     0.74460   0.50293   0.64258   0.00000  Uiso   1.00
H1426  H     0.76922   0.55722   0.64079   0.00000  Uiso   1.00
O1427  O     0.75699   0.50197   0.88463   0.00000  Uiso   1.00
C1428  C     0.74759   0.54631   0.86907   0.00000  Uiso   1.00
H1429  H     0.76122   0.57410   0.88877   0.00000  Uiso   1.00
H1430  H     0.71359   0.55171   0.87007   0.00000  Uiso   1.00
H1431  H     0.75785   0.54946   0.83397   0.00000  Uiso   1.00
O1432  O     0.90078   0.46156   0.61067   0.00000  Uiso   1.00
C1433  C     0.92607   0.49119   0.63376   0.00000  Uiso   1.00
H1434  H     0.91873   0.52799   0.62870   0.00000  Uiso   1.00
H1435  H     0.95874   0.48433   0.62326   0.00000  Uiso   1.00
H1436  H     0.92358   0.48302   0.66924   0.00000  Uiso   1.00
O1437  O     0.71797   0.50578   0.95945   0.00000  Uiso   1.00
C1438  C     0.70348   0.55098   0.96748   0.00000  Uiso   1.00
H1439  H     0.72662   0.57636   0.95720   0.00000  Uiso   1.00
H1440  H     0.69512   0.55675   0.50313   0.00000  Uiso   1.00
H1441  H     0.67553   0.55748   0.94778   0.00000  Uiso   1.00
O1442  O     0.94326   0.49464   0.53980   0.00000  Uiso   1.00
C1443  C     0.94801   0.54238   0.54045   0.00000  Uiso   1.00
H1444  H     0.92077   0.56090   0.55598   0.00000  Uiso   1.00
H1445  H     0.95350   0.55547   0.50622   0.00000  Uiso   1.00
H1446  H     0.97474   0.55063   0.56085   0.00000  Uiso   1.00
C1447  C     0.71882   0.47299   0.54844   0.00000  Uiso   1.00
H1448  H     0.70510   0.44756   0.52618   0.00000  Uiso   1.00
H1449  H     0.72723   0.45454   0.57916   0.00000  Uiso   1.00
H1450  H     0.69508   0.49951   0.55674   0.00000  Uiso   1.00
C1451  C     0.94465   0.46107   0.95124   0.00000  Uiso   1.00
H1452  H     0.95706   0.43279   0.97179   0.00000  Uiso   1.00
H1453  H     0.93812   0.44568   0.91852   0.00000  Uiso   1.00
H1454  H     0.96886   0.48672   0.94765   0.00000  Uiso   1.00
C1455  C     0.71151   0.43258   0.80993   0.00000  Uiso   1.00
H1456  H     0.74154   0.44493   0.82091   0.00000  Uiso   1.00
H1457  H     0.69342   0.42754   0.84139   0.00000  Uiso   1.00
H1458  H     0.71673   0.39957   0.79218   0.00000  Uiso   1.00
C1459  C     0.95904   0.57603   0.71059   0.00000  Uiso   1.00
H1460  H     0.93410   0.56360   0.69009   0.00000  Uiso   1.00
H1461  H     0.94656   0.60420   0.73229   0.00000  Uiso   1.00
H1462  H     0.98168   0.58962   0.68598   0.00000  Uiso   1.00
C1463  C     0.95825   0.41918   0.78770   0.00000  Uiso   1.00
H1464  H     0.94564   0.40241   0.75801   0.00000  Uiso   1.00
H1465  H     0.97837   0.39270   0.80254   0.00000  Uiso   1.00
H1466  H     0.93328   0.42731   0.81272   0.00000  Uiso   1.00
C1467  C     0.70550   0.59032   0.74733   0.00000  Uiso   1.00
H1468  H     0.72458   0.59609   0.77682   0.00000  Uiso   1.00
H1469  H     0.72395   0.59403   0.71594   0.00000  Uiso   1.00
H1470  H     0.68201   0.61845   0.74931   0.00000  Uiso   1.00
O1471  O     0.10559   0.87154   0.74999   0.00000  Uiso   1.00
O1472  O     0.22774   0.79513   0.75000   0.00000  Uiso   1.00
O1473  O     0.22774   0.87154   0.75000   0.00000  Uiso   1.00
O1474  O     0.10559   0.79513   0.74999   0.00000  Uiso   1.00
C1475  C     0.08665   0.83434   0.75401   0.00000  Uiso   1.00
C1476  C     0.24697   0.83280   0.75090   0.00000  Uiso   1.00
O1477  O     0.16666   0.87156   0.68392   0.00000  Uiso   1.00
O1478  O     0.16667   0.79511   0.81607   0.00000  Uiso   1.00
O1479  O     0.16667   0.87156   0.81607   0.00000  Uiso   1.00
O1480  O     0.16666   0.79511   0.68392   0.00000  Uiso   1.00
C1481  C     0.16696   0.83301   0.66331   0.00000  Uiso   1.00
C1482  C     0.16539   0.83361   0.83646   0.00000  Uiso   1.00
Zn1483 Zn    0.16667   0.88437   0.75000   0.00000  Uiso   1.00
Zn1484 Zn    0.16667   0.78229   0.75000   0.00000  Uiso   1.00
C1485  C     0.20251   0.83495   0.90564   0.00000  Uiso   1.00
C1486  C     0.12858   0.84028   0.59406   0.00000  Uiso   1.00
C1487  C     0.16490   0.83452   0.88409   0.00000  Uiso   1.00
C1488  C     0.16604   0.83175   0.61535   0.00000  Uiso   1.00
C1489  C     0.12688   0.83509   0.90753   0.00000  Uiso   1.00
C1490  C     0.20201   0.81870   0.59091   0.00000  Uiso   1.00
C1491  C     0.12639   0.83288   0.95424   0.00000  Uiso   1.00
C1492  C     0.20225   0.82218   0.54464   0.00000  Uiso   1.00
C1493  C     0.16447   0.82803   0.97607   0.00000  Uiso   1.00
C1494  C     0.16452   0.82697   0.52283   0.00000  Uiso   1.00
C1495  C     0.20261   0.82537   0.95139   0.00000  Uiso   1.00
C1496  C     0.12699   0.83113   0.54790   0.00000  Uiso   1.00
C1497  C     0.08890   0.83341   0.97962   0.00000  Uiso   1.00
C1498  C     0.23965   0.81988   0.51984   0.00000  Uiso   1.00
C1499  C     0.08956   0.82662   0.52576   0.00000  Uiso   1.00
C1500  C     0.23950   0.81512   0.97378   0.00000  Uiso   1.00
C1501  C     0.02219   0.79964   0.78040   0.00000  Uiso   1.00
C1502  C     0.31230   0.87219   0.73880   0.00000  Uiso   1.00
C1503  C     0.31320   0.79577   0.77361   0.00000  Uiso   1.00
C1504  C     0.02000   0.87670   0.74931   0.00000  Uiso   1.00
C1505  C     0.29165   0.83245   0.75270   0.00000  Uiso   1.00
C1506  C     0.04247   0.83736   0.76239   0.00000  Uiso   1.00
C1507  C     0.18881   0.69016   0.78035   0.00000  Uiso   1.00
C1508  C     0.14451   0.97650   0.71966   0.00000  Uiso   1.00
C1509  C     0.14447   0.69122   0.71969   0.00000  Uiso   1.00
C1510  C     0.18885   0.97544   0.78032   0.00000  Uiso   1.00
H1511  H     0.20641   0.70800   0.80463   0.00000  Uiso   1.00
H1512  H     0.12691   0.95863   0.69539   0.00000  Uiso   1.00
H1513  H     0.12674   0.70993   0.69552   0.00000  Uiso   1.00
H1514  H     0.20660   0.95671   0.80447   0.00000  Uiso   1.00
N1515  N     0.16667   0.95240   0.75000   0.00000  Uiso   1.00
N1516  N     0.16667   0.71427   0.75000   0.00000  Uiso   1.00
C1517  C     0.24019   0.85269   0.88066   0.00000  Uiso   1.00
H1518  H     0.26319   0.86630   0.90341   0.00000  Uiso   1.00
H1519  H     0.25445   0.82588   0.85868   0.00000  Uiso   1.00
H1520  H     0.23142   0.88229   0.85985   0.00000  Uiso   1.00
C1521  C     0.09223   0.86175   0.62029   0.00000  Uiso   1.00
H1522  H     0.06880   0.87716   0.59844   0.00000  Uiso   1.00
H1523  H     0.07793   0.83626   0.64258   0.00000  Uiso   1.00
H1524  H     0.10255   0.89055   0.64079   0.00000  Uiso   1.00
O1525  O     0.09032   0.83530   0.88463   0.00000  Uiso   1.00
C1526  C     0.08092   0.87964   0.86907   0.00000  Uiso   1.00
H1527  H     0.09456   0.90744   0.88877   0.00000  Uiso   1.00
H1528  H     0.04692   0.88504   0.87007   0.00000  Uiso   1.00
H1529  H     0.09118   0.88279   0.83397   0.00000  Uiso   1.00
O1530  O     0.23411   0.79489   0.61067   0.00000  Uiso   1.00
C1531  C     0.25940   0.82452   0.63376   0.00000  Uiso   1.00
H1532  H     0.25207   0.86132   0.62870   0.00000  Uiso   1.00
H1533  H     0.29207   0.81767   0.62326   0.00000  Uiso   1.00
H1534  H     0.25692   0.81635   0.66924   0.00000  Uiso   1.00
O1535  O     0.05131   0.83912   0.95945   0.00000  Uiso   1.00
C1536  C     0.03681   0.88432   0.96748   0.00000  Uiso   1.00
H1537  H     0.05996   0.90969   0.95720   0.00000  Uiso   1.00
H1538  H     0.02845   0.89008   0.50313   0.00000  Uiso   1.00
H1539  H     0.00886   0.89081   0.94778   0.00000  Uiso   1.00
O1540  O     0.27659   0.82797   0.53980   0.00000  Uiso   1.00
C1541  C     0.28135   0.87571   0.54045   0.00000  Uiso   1.00
H1542  H     0.25410   0.89424   0.55598   0.00000  Uiso   1.00
H1543  H     0.28683   0.88880   0.50622   0.00000  Uiso   1.00
H1544  H     0.30807   0.88396   0.56085   0.00000  Uiso   1.00
C1545  C     0.05216   0.80633   0.54844   0.00000  Uiso   1.00
H1546  H     0.03843   0.78089   0.52618   0.00000  Uiso   1.00
H1547  H     0.06056   0.78787   0.57916   0.00000  Uiso   1.00
H1548  H     0.02842   0.83284   0.55674   0.00000  Uiso   1.00
C1549  C     0.27798   0.79441   0.95124   0.00000  Uiso   1.00
H1550  H     0.29040   0.76613   0.97179   0.00000  Uiso   1.00
H1551  H     0.27145   0.77901   0.91852   0.00000  Uiso   1.00
H1552  H     0.30220   0.82005   0.94765   0.00000  Uiso   1.00
C1553  C     0.04484   0.76591   0.80993   0.00000  Uiso   1.00
H1554  H     0.07488   0.77826   0.82091   0.00000  Uiso   1.00
H1555  H     0.02676   0.76088   0.84139   0.00000  Uiso   1.00
H1556  H     0.05007   0.73290   0.79218   0.00000  Uiso   1.00
C1557  C     0.29237   0.90936   0.71059   0.00000  Uiso   1.00
H1558  H     0.26744   0.89694   0.69009   0.00000  Uiso   1.00
H1559  H     0.27990   0.93753   0.73229   0.00000  Uiso   1.00
H1560  H     0.31501   0.92296   0.68598   0.00000  Uiso   1.00
C1561  C     0.29158   0.75252   0.78770   0.00000  Uiso   1.00
H1562  H     0.27898   0.73574   0.75801   0.00000  Uiso   1.00
H1563  H     0.31170   0.72604   0.80254   0.00000  Uiso   1.00
H1564  H     0.26661   0.76064   0.81272   0.00000  Uiso   1.00
C1565  C     0.03883   0.92365   0.74733   0.00000  Uiso   1.00
H1566  H     0.05791   0.92943   0.77682   0.00000  Uiso   1.00
H1567  H     0.05728   0.92737   0.71594   0.00000  Uiso   1.00
H1568  H     0.01534   0.95178   0.74931   0.00000  Uiso   1.00
O1569  O     0.43892   0.87154   0.74999   0.00000  Uiso   1.00
O1570  O     0.56108   0.79513   0.75000   0.00000  Uiso   1.00
O1571  O     0.56108   0.87154   0.75000   0.00000  Uiso   1.00
O1572  O     0.43892   0.79513   0.74999   0.00000  Uiso   1.00
C1573  C     0.41999   0.83434   0.75401   0.00000  Uiso   1.00
C1574  C     0.58030   0.83280   0.75090   0.00000  Uiso   1.00
O1575  O     0.49999   0.87156   0.68392   0.00000  Uiso   1.00
O1576  O     0.50001   0.79511   0.81607   0.00000  Uiso   1.00
O1577  O     0.50001   0.87156   0.81607   0.00000  Uiso   1.00
O1578  O     0.49999   0.79511   0.68392   0.00000  Uiso   1.00
C1579  C     0.50029   0.83301   0.66331   0.00000  Uiso   1.00
C1580  C     0.49872   0.83361   0.83646   0.00000  Uiso   1.00
Zn1581 Zn    0.50000   0.88437   0.75000   0.00000  Uiso   1.00
Zn1582 Zn    0.50000   0.78229   0.75000   0.00000  Uiso   1.00
C1583  C     0.53584   0.83495   0.90564   0.00000  Uiso   1.00
C1584  C     0.46191   0.84028   0.59406   0.00000  Uiso   1.00
C1585  C     0.49823   0.83452   0.88409   0.00000  Uiso   1.00
C1586  C     0.49937   0.83175   0.61535   0.00000  Uiso   1.00
C1587  C     0.46021   0.83509   0.90753   0.00000  Uiso   1.00
C1588  C     0.53534   0.81870   0.59091   0.00000  Uiso   1.00
C1589  C     0.45973   0.83288   0.95424   0.00000  Uiso   1.00
C1590  C     0.53558   0.82218   0.54464   0.00000  Uiso   1.00
C1591  C     0.49780   0.82803   0.97607   0.00000  Uiso   1.00
C1592  C     0.49785   0.82697   0.52283   0.00000  Uiso   1.00
C1593  C     0.53594   0.82537   0.95139   0.00000  Uiso   1.00
C1594  C     0.46032   0.83113   0.54790   0.00000  Uiso   1.00
C1595  C     0.42224   0.83341   0.97962   0.00000  Uiso   1.00
C1596  C     0.57299   0.81988   0.51984   0.00000  Uiso   1.00
C1597  C     0.42289   0.82662   0.52576   0.00000  Uiso   1.00
C1598  C     0.57283   0.81512   0.97378   0.00000  Uiso   1.00
C1599  C     0.35553   0.79964   0.78040   0.00000  Uiso   1.00
C1600  C     0.64563   0.87219   0.73880   0.00000  Uiso   1.00
C1601  C     0.64653   0.79577   0.77361   0.00000  Uiso   1.00
C1602  C     0.35334   0.87670   0.74931   0.00000  Uiso   1.00
C1603  C     0.62499   0.83245   0.75270   0.00000  Uiso   1.00
C1604  C     0.37580   0.83736   0.76239   0.00000  Uiso   1.00
C1605  C     0.52215   0.69016   0.78035   0.00000  Uiso   1.00
C1606  C     0.47785   0.97650   0.71966   0.00000  Uiso   1.00
C1607  C     0.47781   0.69122   0.71969   0.00000  Uiso   1.00
C1608  C     0.52219   0.97544   0.78032   0.00000  Uiso   1.00
H1609  H     0.53974   0.70800   0.80463   0.00000  Uiso   1.00
H1610  H     0.46025   0.95863   0.69539   0.00000  Uiso   1.00
H1611  H     0.46007   0.70993   0.69552   0.00000  Uiso   1.00
H1612  H     0.53993   0.95671   0.80447   0.00000  Uiso   1.00
N1613  N     0.50000   0.95240   0.75000   0.00000  Uiso   1.00
N1614  N     0.50000   0.71427   0.75000   0.00000  Uiso   1.00
C1615  C     0.57352   0.85269   0.88066   0.00000  Uiso   1.00
H1616  H     0.59652   0.86630   0.90341   0.00000  Uiso   1.00
H1617  H     0.58778   0.82588   0.85868   0.00000  Uiso   1.00
H1618  H     0.56475   0.88229   0.85985   0.00000  Uiso   1.00
C1619  C     0.42556   0.86175   0.62029   0.00000  Uiso   1.00
H1620  H     0.40214   0.87716   0.59844   0.00000  Uiso   1.00
H1621  H     0.41126   0.83626   0.64258   0.00000  Uiso   1.00
H1622  H     0.43588   0.89055   0.64079   0.00000  Uiso   1.00
O1623  O     0.42365   0.83530   0.88463   0.00000  Uiso   1.00
C1624  C     0.41426   0.87964   0.86907   0.00000  Uiso   1.00
H1625  H     0.42789   0.90744   0.88877   0.00000  Uiso   1.00
H1626  H     0.38025   0.88504   0.87007   0.00000  Uiso   1.00
H1627  H     0.42451   0.88279   0.83397   0.00000  Uiso   1.00
O1628  O     0.56745   0.79489   0.61067   0.00000  Uiso   1.00
C1629  C     0.59273   0.82452   0.63376   0.00000  Uiso   1.00
H1630  H     0.58540   0.86132   0.62870   0.00000  Uiso   1.00
H1631  H     0.62541   0.81767   0.62326   0.00000  Uiso   1.00
H1632  H     0.59025   0.81635   0.66924   0.00000  Uiso   1.00
O1633  O     0.38464   0.83912   0.95945   0.00000  Uiso   1.00
C1634  C     0.37014   0.88432   0.96748   0.00000  Uiso   1.00
H1635  H     0.39329   0.90969   0.95720   0.00000  Uiso   1.00
H1636  H     0.36179   0.89008   0.50313   0.00000  Uiso   1.00
H1637  H     0.34220   0.89081   0.94778   0.00000  Uiso   1.00
O1638  O     0.60993   0.82797   0.53980   0.00000  Uiso   1.00
C1639  C     0.61468   0.87571   0.54045   0.00000  Uiso   1.00
H1640  H     0.58743   0.89424   0.55598   0.00000  Uiso   1.00
H1641  H     0.62016   0.88880   0.50622   0.00000  Uiso   1.00
H1642  H     0.64141   0.88396   0.56085   0.00000  Uiso   1.00
C1643  C     0.38549   0.80633   0.54844   0.00000  Uiso   1.00
H1644  H     0.37176   0.78089   0.52618   0.00000  Uiso   1.00
H1645  H     0.39390   0.78787   0.57916   0.00000  Uiso   1.00
H1646  H     0.36175   0.83284   0.55674   0.00000  Uiso   1.00
C1647  C     0.61132   0.79441   0.95124   0.00000  Uiso   1.00
H1648  H     0.62373   0.76613   0.97179   0.00000  Uiso   1.00
H1649  H     0.60478   0.77901   0.91852   0.00000  Uiso   1.00
H1650  H     0.63553   0.82005   0.94765   0.00000  Uiso   1.00
C1651  C     0.37818   0.76591   0.80993   0.00000  Uiso   1.00
H1652  H     0.40821   0.77826   0.82091   0.00000  Uiso   1.00
H1653  H     0.36009   0.76088   0.84139   0.00000  Uiso   1.00
H1654  H     0.38340   0.73290   0.79218   0.00000  Uiso   1.00
C1655  C     0.62571   0.90936   0.71059   0.00000  Uiso   1.00
H1656  H     0.60077   0.89694   0.69009   0.00000  Uiso   1.00
H1657  H     0.61323   0.93753   0.73229   0.00000  Uiso   1.00
H1658  H     0.64835   0.92296   0.68598   0.00000  Uiso   1.00
C1659  C     0.62492   0.75252   0.78770   0.00000  Uiso   1.00
H1660  H     0.61231   0.73574   0.75801   0.00000  Uiso   1.00
H1661  H     0.64503   0.72604   0.80254   0.00000  Uiso   1.00
H1662  H     0.59994   0.76064   0.81272   0.00000  Uiso   1.00
C1663  C     0.37216   0.92365   0.74733   0.00000  Uiso   1.00
H1664  H     0.39124   0.92943   0.77682   0.00000  Uiso   1.00
H1665  H     0.39062   0.92737   0.71594   0.00000  Uiso   1.00
H1666  H     0.34867   0.95178   0.74931   0.00000  Uiso   1.00
O1667  O     0.77226   0.87154   0.74999   0.00000  Uiso   1.00
O1668  O     0.89441   0.79513   0.75000   0.00000  Uiso   1.00
O1669  O     0.89441   0.87154   0.75000   0.00000  Uiso   1.00
O1670  O     0.77226   0.79513   0.74999   0.00000  Uiso   1.00
C1671  C     0.75332   0.83434   0.75401   0.00000  Uiso   1.00
C1672  C     0.91364   0.83280   0.75090   0.00000  Uiso   1.00
O1673  O     0.83333   0.87156   0.68392   0.00000  Uiso   1.00
O1674  O     0.83334   0.79511   0.81607   0.00000  Uiso   1.00
O1675  O     0.83334   0.87156   0.81607   0.00000  Uiso   1.00
O1676  O     0.83333   0.79511   0.68392   0.00000  Uiso   1.00
C1677  C     0.83362   0.83301   0.66331   0.00000  Uiso   1.00
C1678  C     0.83205   0.83361   0.83646   0.00000  Uiso   1.00
Zn1679 Zn    0.83333   0.88437   0.75000   0.00000  Uiso   1.00
Zn1680 Zn    0.83333   0.78229   0.75000   0.00000  Uiso   1.00
C1681  C     0.86918   0.83495   0.90564   0.00000  Uiso   1.00
C1682  C     0.79524   0.84028   0.59406   0.00000  Uiso   1.00
C1683  C     0.83157   0.83452   0.88409   0.00000  Uiso   1.00
C1684  C     0.83271   0.83175   0.61535   0.00000  Uiso   1.00
C1685  C     0.79355   0.83509   0.90753   0.00000  Uiso   1.00
C1686  C     0.86868   0.81870   0.59091   0.00000  Uiso   1.00
C1687  C     0.79306   0.83288   0.95424   0.00000  Uiso   1.00
C1688  C     0.86891   0.82218   0.54464   0.00000  Uiso   1.00
C1689  C     0.83113   0.82803   0.97607   0.00000  Uiso   1.00
C1690  C     0.83119   0.82697   0.52283   0.00000  Uiso   1.00
C1691  C     0.86927   0.82537   0.95139   0.00000  Uiso   1.00
C1692  C     0.79365   0.83113   0.54790   0.00000  Uiso   1.00
C1693  C     0.75557   0.83341   0.97962   0.00000  Uiso   1.00
C1694  C     0.90632   0.81988   0.51984   0.00000  Uiso   1.00
C1695  C     0.75622   0.82662   0.52576   0.00000  Uiso   1.00
C1696  C     0.90616   0.81512   0.97378   0.00000  Uiso   1.00
C1697  C     0.68886   0.79964   0.78040   0.00000  Uiso   1.00
C1698  C     0.97896   0.87219   0.73880   0.00000  Uiso   1.00
C1699  C     0.97986   0.79577   0.77361   0.00000  Uiso   1.00
C1700  C     0.68667   0.87670   0.74931   0.00000  Uiso   1.00
C1701  C     0.95832   0.83245   0.75270   0.00000  Uiso   1.00
C1702  C     0.70914   0.83736   0.76239   0.00000  Uiso   1.00
C1703  C     0.85548   0.69016   0.78035   0.00000  Uiso   1.00
C1704  C     0.81118   0.97650   0.71966   0.00000  Uiso   1.00
C1705  C     0.81114   0.69122   0.71969   0.00000  Uiso   1.00
C1706  C     0.85552   0.97544   0.78032   0.00000  Uiso   1.00
H1707  H     0.87308   0.70800   0.80463   0.00000  Uiso   1.00
H1708  H     0.79358   0.95863   0.69539   0.00000  Uiso   1.00
H1709  H     0.79340   0.70993   0.69552   0.00000  Uiso   1.00
H1710  H     0.87327   0.95671   0.80447   0.00000  Uiso   1.00
N1711  N     0.83333   0.95240   0.75000   0.00000  Uiso   1.00
N1712  N     0.83333   0.71427   0.75000   0.00000  Uiso   1.00
C1713  C     0.90686   0.85269   0.88066   0.00000  Uiso   1.00
H1714  H     0.92985   0.86630   0.90341   0.00000  Uiso   1.00
H1715  H     0.92112   0.82588   0.85868   0.00000  Uiso   1.00
H1716  H     0.89809   0.88229   0.85985   0.00000  Uiso   1.00
C1717  C     0.75889   0.86175   0.62029   0.00000  Uiso   1.00
H1718  H     0.73547   0.87716   0.59844   0.00000  Uiso   1.00
H1719  H     0.74460   0.83626   0.64258   0.00000  Uiso   1.00
H1720  H     0.76922   0.89055   0.64079   0.00000  Uiso   1.00
O1721  O     0.75699   0.83530   0.88463   0.00000  Uiso   1.00
C1722  C     0.74759   0.87964   0.86907   0.00000  Uiso   1.00
H1723  H     0.76122   0.90744   0.88877   0.00000  Uiso   1.00
H1724  H     0.71359   0.88504   0.87007   0.00000  Uiso   1.00
H1725  H     0.75785   0.88279   0.83397   0.00000  Uiso   1.00
O1726  O     0.90078   0.79489   0.61067   0.00000  Uiso   1.00
C1727  C     0.92607   0.82452   0.63376   0.00000  Uiso   1.00
H1728  H     0.91873   0.86132   0.62870   0.00000  Uiso   1.00
H1729  H     0.95874   0.81767   0.62326   0.00000  Uiso   1.00
H1730  H     0.92358   0.81635   0.66924   0.00000  Uiso   1.00
O1731  O     0.71797   0.83912   0.95945   0.00000  Uiso   1.00
C1732  C     0.70348   0.88432   0.96748   0.00000  Uiso   1.00
H1733  H     0.72662   0.90969   0.95720   0.00000  Uiso   1.00
H1734  H     0.69512   0.89008   0.50313   0.00000  Uiso   1.00
H1735  H     0.67553   0.89081   0.94778   0.00000  Uiso   1.00
O1736  O     0.94326   0.82797   0.53980   0.00000  Uiso   1.00
C1737  C     0.94801   0.87571   0.54045   0.00000  Uiso   1.00
H1738  H     0.92077   0.89424   0.55598   0.00000  Uiso   1.00
H1739  H     0.95350   0.88880   0.50622   0.00000  Uiso   1.00
H1740  H     0.97474   0.88396   0.56085   0.00000  Uiso   1.00
C1741  C     0.71882   0.80633   0.54844   0.00000  Uiso   1.00
H1742  H     0.70510   0.78089   0.52618   0.00000  Uiso   1.00
H1743  H     0.72723   0.78787   0.57916   0.00000  Uiso   1.00
H1744  H     0.69508   0.83284   0.55674   0.00000  Uiso   1.00
C1745  C     0.94465   0.79441   0.95124   0.00000  Uiso   1.00
H1746  H     0.95706   0.76613   0.97179   0.00000  Uiso   1.00
H1747  H     0.93812   0.77901   0.91852   0.00000  Uiso   1.00
H1748  H     0.96886   0.82005   0.94765   0.00000  Uiso   1.00
C1749  C     0.71151   0.76591   0.80993   0.00000  Uiso   1.00
H1750  H     0.74154   0.77826   0.82091   0.00000  Uiso   1.00
H1751  H     0.69342   0.76088   0.84139   0.00000  Uiso   1.00
H1752  H     0.71673   0.73290   0.79218   0.00000  Uiso   1.00
C1753  C     0.95904   0.90936   0.71059   0.00000  Uiso   1.00
H1754  H     0.93410   0.89694   0.69009   0.00000  Uiso   1.00
H1755  H     0.94656   0.93753   0.73229   0.00000  Uiso   1.00
H1756  H     0.98168   0.92296   0.68598   0.00000  Uiso   1.00
C1757  C     0.95825   0.75252   0.78770   0.00000  Uiso   1.00
H1758  H     0.94564   0.73574   0.75801   0.00000  Uiso   1.00
H1759  H     0.97837   0.72604   0.80254   0.00000  Uiso   1.00
H1760  H     0.93328   0.76064   0.81272   0.00000  Uiso   1.00
C1761  C     0.70550   0.92365   0.74733   0.00000  Uiso   1.00
H1762  H     0.72458   0.92943   0.77682   0.00000  Uiso   1.00
H1763  H     0.72395   0.92737   0.71594   0.00000  Uiso   1.00
H1764  H     0.68201   0.95178   0.74931   0.00000  Uiso   1.00
loop_
_geom_bond_atom_site_label_1
_geom_bond_atom_site_label_2
_geom_bond_distance
_geom_bond_site_symmetry_2
_ccdc_geom_bond_type
O1     C5      1.274   .     A
O1     Zn13    2.027   .     S
O2     C6      1.287   .     A
O2     Zn14    2.027   .     S
O3     C6      1.283   .     A
O3     Zn13    2.006   .     S
O4     C5      1.294   .     A
O4     Zn14    2.006   .     S
C5     C36     1.448   .     S
C6     C35     1.451   .     S
O7     C11     1.288   .     A
O7     Zn13    2.018   .     S
O8     C12     1.283   .     A
O8     Zn14    2.018   .     S
O9     Zn13    2.022   .     S
O9     C12     1.277   .     A
O10    Zn14    2.022   .     S
O10    C11     1.278   .     A
C11    C18     1.442   .     S
C12    C17     1.431   .     S
Zn13   N45     2.000   .     S
Zn14   N46     2.000   .     S
C15    C47     1.522   .     S
C15    C25     1.404   .     A
C15    C17     1.397   .     A
C16    C51     1.519   .     S
C16    C26     1.413   .     A
C16    C18     1.406   .     A
C17    C19     1.402   .     A
C18    C20     1.403   .     A
C19    C21     1.404   .     A
C19    O55     1.387   .     S
C20    O60     1.387   .     S
C20    C22     1.394   .     A
C21    C27     1.416   .     A
C21    C23     1.418   .     A
C22    C28     1.405   .     A
C22    C24     1.408   .     A
C23    C25     1.424   .     A
C23    C906    1.405   .     S
C24    C26     1.415   .     A
C24    C905    1.405   1_554 S
C25    C30     1.415   .     A
C26    C29     1.410   .     A
C27    O65     1.383   .     S
C27    C911    1.402   .     S
C28    O70     1.381   .     S
C28    C912    1.390   1_554 S
C29    C75     1.514   .     S
C29    C909    1.402   1_554 S
C30    C79     1.514   .     S
C30    C910    1.390   .     S
C31    C83     1.521   .     S
C31    C36     1.408   .     A
C31    C229    1.401   1_455 S
C32    C35     1.422   .     A
C32    C87     1.527   .     S
C32    C132    1.386   .     S
C33    C91     1.526   .     S
C33    C35     1.426   .     A
C33    C129    1.401   .     S
C34    C36     1.413   .     A
C34    C95     1.526   .     S
C34    C228    1.386   1_455 S
C37    H41     1.081   .     S
C37    N46     1.365   .     A
C37    C628    1.413   1_545 S
C38    H42     1.081   .     S
C38    N45     1.365   .     A
C38    C333    1.413   .     S
C39    H43     1.082   .     S
C39    N46     1.365   .     A
C39    C626    1.413   1_545 S
C40    N45     1.365   .     A
C40    H44     1.082   .     S
C40    C331    1.413   .     S
C47    H50     1.109   .     S
C47    H49     1.108   .     S
C47    H48     1.107   .     S
C51    H52     1.107   .     S
C51    H53     1.110   .     S
C51    H54     1.109   .     S
O55    C56     1.415   .     S
C56    H57     1.115   .     S
C56    H59     1.102   .     S
C56    H58     1.109   .     S
O60    C61     1.407   .     S
C61    H63     1.109   .     S
C61    H64     1.095   .     S
C61    H62     1.113   .     S
O65    C66     1.414   .     S
C66    H69     1.109   .     S
C66    H67     1.112   .     S
C66    H950    1.108   .     S
H68    C948    1.108   1_554 S
O70    C71     1.416   .     S
C71    H74     1.107   .     S
C71    H73     1.111   .     S
C71    H72     1.114   .     S
C75    H76     1.111   .     S
C75    H77     1.110   .     S
C75    H78     1.102   .     S
C79    H81     1.108   .     S
C79    H82     1.108   .     S
C79    H80     1.111   .     S
C83    H84     1.107   .     S
C83    H85     1.111   .     S
C83    H86     1.111   .     S
C87    H88     1.099   .     S
C87    H89     1.111   .     S
C87    H90     1.111   .     S
C91    H93     1.105   .     S
C91    H92     1.110   .     S
C91    H94     1.109   .     S
C95    H96     1.110   .     S
C95    H98     1.108   .     S
C95    H97     1.110   .     S
O99    C103    1.274   .     A
O99    Zn111   2.027   .     S
O100   C104    1.287   .     A
O100   Zn112   2.027   .     S
O101   C104    1.283   .     A
O101   Zn111   2.006   .     S
O102   C103    1.294   .     A
O102   Zn112   2.006   .     S
C103   C134    1.448   .     S
C104   C133    1.451   .     S
O105   C109    1.288   .     A
O105   Zn111   2.018   .     S
O106   C110    1.283   .     A
O106   Zn112   2.018   .     S
O107   Zn111   2.022   .     S
O107   C110    1.277   .     A
O108   Zn112   2.022   .     S
O108   C109    1.278   .     A
C109   C116    1.442   .     S
C110   C115    1.431   .     S
Zn111  N143    2.000   .     S
Zn112  N144    2.000   .     S
C113   C145    1.522   .     S
C113   C123    1.404   .     A
C113   C115    1.397   .     A
C114   C149    1.519   .     S
C114   C124    1.413   .     A
C114   C116    1.406   .     A
C115   C117    1.402   .     A
C116   C118    1.403   .     A
C117   C119    1.404   .     A
C117   O153    1.387   .     S
C118   O158    1.387   .     S
C118   C120    1.394   .     A
C119   C125    1.416   .     A
C119   C121    1.418   .     A
C120   C126    1.405   .     A
C120   C122    1.408   .     A
C121   C123    1.424   .     A
C121   C1004   1.405   .     S
C122   C124    1.415   .     A
C122   C1003   1.405   1_554 S
C123   C128    1.415   .     A
C124   C127    1.410   .     A
C125   O163    1.383   .     S
C125   C1009   1.402   .     S
C126   O168    1.381   .     S
C126   C1010   1.390   1_554 S
C127   C173    1.514   .     S
C127   C1007   1.402   1_554 S
C128   C177    1.514   .     S
C128   C1008   1.390   .     S
C129   C181    1.521   .     S
C129   C134    1.408   .     A
C130   C133    1.422   .     A
C130   C185    1.527   .     S
C130   C230    1.386   .     S
C131   C189    1.526   .     S
C131   C133    1.426   .     A
C131   C227    1.401   .     S
C132   C134    1.413   .     A
C132   C193    1.526   .     S
C135   H139    1.081   .     S
C135   N144    1.365   .     A
C135   C726    1.413   1_545 S
C136   H140    1.081   .     S
C136   N143    1.365   .     A
C136   C431    1.413   .     S
C137   H141    1.082   .     S
C137   N144    1.365   .     A
C137   C724    1.413   1_545 S
C138   N143    1.365   .     A
C138   H142    1.082   .     S
C138   C429    1.413   .     S
C145   H148    1.109   .     S
C145   H147    1.108   .     S
C145   H146    1.107   .     S
C149   H150    1.107   .     S
C149   H151    1.110   .     S
C149   H152    1.109   .     S
O153   C154    1.415   .     S
C154   H155    1.115   .     S
C154   H157    1.102   .     S
C154   H156    1.109   .     S
O158   C159    1.407   .     S
C159   H161    1.109   .     S
C159   H162    1.095   .     S
C159   H160    1.113   .     S
O163   C164    1.414   .     S
C164   H167    1.109   .     S
C164   H165    1.112   .     S
C164   H1048   1.108   .     S
H166   C1046   1.108   1_554 S
O168   C169    1.416   .     S
C169   H172    1.107   .     S
C169   H171    1.111   .     S
C169   H170    1.114   .     S
C173   H174    1.111   .     S
C173   H175    1.110   .     S
C173   H176    1.102   .     S
C177   H179    1.108   .     S
C177   H180    1.108   .     S
C177   H178    1.111   .     S
C181   H182    1.107   .     S
C181   H183    1.111   .     S
C181   H184    1.111   .     S
C185   H186    1.099   .     S
C185   H187    1.111   .     S
C185   H188    1.111   .     S
C189   H191    1.105   .     S
C189   H190    1.110   .     S
C189   H192    1.109   .     S
C193   H194    1.110   .     S
C193   H196    1.108   .     S
C193   H195    1.110   .     S
O197   C201    1.274   .     A
O197   Zn209   2.027   .     S
O198   C202    1.287   .     A
O198   Zn210   2.027   .     S
O199   C202    1.283   .     A
O199   Zn209   2.006   .     S
O200   C201    1.294   .     A
O200   Zn210   2.006   .     S
C201   C232    1.448   .     S
C202   C231    1.451   .     S
O203   C207    1.288   .     A
O203   Zn209   2.018   .     S
O204   C208    1.283   .     A
O204   Zn210   2.018   .     S
O205   Zn209   2.022   .     S
O205   C208    1.277   .     A
O206   Zn210   2.022   .     S
O206   C207    1.278   .     A
C207   C214    1.442   .     S
C208   C213    1.431   .     S
Zn209  N241    2.000   .     S
Zn210  N242    2.000   .     S
C211   C243    1.522   .     S
C211   C221    1.404   .     A
C211   C213    1.397   .     A
C212   C247    1.519   .     S
C212   C222    1.413   .     A
C212   C214    1.406   .     A
C213   C215    1.402   .     A
C214   C216    1.403   .     A
C215   C217    1.404   .     A
C215   O251    1.387   .     S
C216   O256    1.387   .     S
C216   C218    1.394   .     A
C217   C223    1.416   .     A
C217   C219    1.418   .     A
C218   C224    1.405   .     A
C218   C220    1.408   .     A
C219   C221    1.424   .     A
C219   C1102   1.405   .     S
C220   C222    1.415   .     A
C220   C1101   1.405   1_554 S
C221   C226    1.415   .     A
C222   C225    1.410   .     A
C223   O261    1.383   .     S
C223   C1107   1.402   .     S
C224   O266    1.381   .     S
C224   C1108   1.390   1_554 S
C225   C271    1.514   .     S
C225   C1105   1.402   1_554 S
C226   C275    1.514   .     S
C226   C1106   1.390   .     S
C227   C279    1.521   .     S
C227   C232    1.408   .     A
C228   C231    1.422   .     A
C228   C283    1.527   .     S
C228   C34     1.386   1_655 S
C229   C287    1.526   .     S
C229   C231    1.426   .     A
C229   C31     1.401   1_655 S
C230   C232    1.413   .     A
C230   C291    1.526   .     S
C233   H237    1.081   .     S
C233   N242    1.365   .     A
C233   C824    1.413   1_545 S
C234   H238    1.081   .     S
C234   N241    1.365   .     A
C234   C529    1.413   .     S
C235   H239    1.082   .     S
C235   N242    1.365   .     A
C235   C822    1.413   1_545 S
C236   N241    1.365   .     A
C236   H240    1.082   .     S
C236   C527    1.413   .     S
C243   H246    1.109   .     S
C243   H245    1.108   .     S
C243   H244    1.107   .     S
C247   H248    1.107   .     S
C247   H249    1.110   .     S
C247   H250    1.109   .     S
O251   C252    1.415   .     S
C252   H253    1.115   .     S
C252   H255    1.102   .     S
C252   H254    1.109   .     S
O256   C257    1.407   .     S
C257   H259    1.109   .     S
C257   H260    1.095   .     S
C257   H258    1.113   .     S
O261   C262    1.414   .     S
C262   H265    1.109   .     S
C262   H263    1.112   .     S
C262   H1146   1.108   .     S
H264   C1144   1.108   1_554 S
O266   C267    1.416   .     S
C267   H270    1.107   .     S
C267   H269    1.111   .     S
C267   H268    1.114   .     S
C271   H272    1.111   .     S
C271   H273    1.110   .     S
C271   H274    1.102   .     S
C275   H277    1.108   .     S
C275   H278    1.108   .     S
C275   H276    1.111   .     S
C279   H280    1.107   .     S
C279   H281    1.111   .     S
C279   H282    1.111   .     S
C283   H284    1.099   .     S
C283   H285    1.111   .     S
C283   H286    1.111   .     S
C287   H289    1.105   .     S
C287   H288    1.110   .     S
C287   H290    1.109   .     S
C291   H292    1.110   .     S
C291   H294    1.108   .     S
C291   H293    1.110   .     S
O295   C299    1.274   .     A
O295   Zn307   2.027   .     S
O296   C300    1.287   .     A
O296   Zn308   2.027   .     S
O297   C300    1.283   .     A
O297   Zn307   2.006   .     S
O298   C299    1.294   .     A
O298   Zn308   2.006   .     S
C299   C330    1.448   .     S
C300   C329    1.451   .     S
O301   C305    1.288   .     A
O301   Zn307   2.018   .     S
O302   C306    1.283   .     A
O302   Zn308   2.018   .     S
O303   Zn307   2.022   .     S
O303   C306    1.277   .     A
O304   Zn308   2.022   .     S
O304   C305    1.278   .     A
C305   C312    1.442   .     S
C306   C311    1.431   .     S
Zn307  N339    2.000   .     S
Zn308  N340    2.000   .     S
C309   C341    1.522   .     S
C309   C319    1.404   .     A
C309   C311    1.397   .     A
C310   C345    1.519   .     S
C310   C320    1.413   .     A
C310   C312    1.406   .     A
C311   C313    1.402   .     A
C312   C314    1.403   .     A
C313   C315    1.404   .     A
C313   O349    1.387   .     S
C314   O354    1.387   .     S
C314   C316    1.394   .     A
C315   C321    1.416   .     A
C315   C317    1.418   .     A
C316   C322    1.405   .     A
C316   C318    1.408   .     A
C317   C319    1.424   .     A
C317   C1200   1.405   .     S
C318   C320    1.415   .     A
C318   C1199   1.405   1_554 S
C319   C324    1.415   .     A
C320   C323    1.410   .     A
C321   O359    1.383   .     S
C321   C1205   1.402   .     S
C322   O364    1.381   .     S
C322   C1206   1.390   1_554 S
C323   C369    1.514   .     S
C323   C1203   1.402   1_554 S
C324   C373    1.514   .     S
C324   C1204   1.390   .     S
C325   C377    1.521   .     S
C325   C330    1.408   .     A
C325   C523    1.401   1_455 S
C326   C329    1.422   .     A
C326   C381    1.527   .     S
C326   C426    1.386   .     S
C327   C385    1.526   .     S
C327   C329    1.426   .     A
C327   C423    1.401   .     S
C328   C330    1.413   .     A
C328   C389    1.526   .     S
C328   C522    1.386   1_455 S
C331   H335    1.081   .     S
C331   N340    1.365   .     A
C332   H336    1.081   .     S
C332   N339    1.365   .     A
C332   C627    1.413   .     S
C333   H337    1.082   .     S
C333   N340    1.365   .     A
C334   N339    1.365   .     A
C334   H338    1.082   .     S
C334   C625    1.413   .     S
C341   H344    1.109   .     S
C341   H343    1.108   .     S
C341   H342    1.107   .     S
C345   H346    1.107   .     S
C345   H347    1.110   .     S
C345   H348    1.109   .     S
O349   C350    1.415   .     S
C350   H351    1.115   .     S
C350   H353    1.102   .     S
C350   H352    1.109   .     S
O354   C355    1.407   .     S
C355   H357    1.109   .     S
C355   H358    1.095   .     S
C355   H356    1.113   .     S
O359   C360    1.414   .     S
C360   H363    1.109   .     S
C360   H361    1.112   .     S
C360   H1244   1.108   .     S
H362   C1242   1.108   1_554 S
O364   C365    1.416   .     S
C365   H368    1.107   .     S
C365   H367    1.111   .     S
C365   H366    1.114   .     S
C369   H370    1.111   .     S
C369   H371    1.110   .     S
C369   H372    1.102   .     S
C373   H375    1.108   .     S
C373   H376    1.108   .     S
C373   H374    1.111   .     S
C377   H378    1.107   .     S
C377   H379    1.111   .     S
C377   H380    1.111   .     S
C381   H382    1.099   .     S
C381   H383    1.111   .     S
C381   H384    1.111   .     S
C385   H387    1.105   .     S
C385   H386    1.110   .     S
C385   H388    1.109   .     S
C389   H390    1.110   .     S
C389   H392    1.108   .     S
C389   H391    1.110   .     S
O393   C397    1.274   .     A
O393   Zn405   2.027   .     S
O394   C398    1.287   .     A
O394   Zn406   2.027   .     S
O395   C398    1.283   .     A
O395   Zn405   2.006   .     S
O396   C397    1.294   .     A
O396   Zn406   2.006   .     S
C397   C428    1.448   .     S
C398   C427    1.451   .     S
O399   C403    1.288   .     A
O399   Zn405   2.018   .     S
O400   C404    1.283   .     A
O400   Zn406   2.018   .     S
O401   Zn405   2.022   .     S
O401   C404    1.277   .     A
O402   Zn406   2.022   .     S
O402   C403    1.278   .     A
C403   C410    1.442   .     S
C404   C409    1.431   .     S
Zn405  N437    2.000   .     S
Zn406  N438    2.000   .     S
C407   C439    1.522   .     S
C407   C417    1.404   .     A
C407   C409    1.397   .     A
C408   C443    1.519   .     S
C408   C418    1.413   .     A
C408   C410    1.406   .     A
C409   C411    1.402   .     A
C410   C412    1.403   .     A
C411   C413    1.404   .     A
C411   O447    1.387   .     S
C412   O452    1.387   .     S
C412   C414    1.394   .     A
C413   C419    1.416   .     A
C413   C415    1.418   .     A
C414   C420    1.405   .     A
C414   C416    1.408   .     A
C415   C417    1.424   .     A
C415   C1298   1.405   .     S
C416   C418    1.415   .     A
C416   C1297   1.405   1_554 S
C417   C422    1.415   .     A
C418   C421    1.410   .     A
C419   O457    1.383   .     S
C419   C1303   1.402   .     S
C420   O462    1.381   .     S
C420   C1304   1.390   1_554 S
C421   C467    1.514   .     S
C421   C1301   1.402   1_554 S
C422   C471    1.514   .     S
C422   C1302   1.390   .     S
C423   C475    1.521   .     S
C423   C428    1.408   .     A
C424   C427    1.422   .     A
C424   C479    1.527   .     S
C424   C524    1.386   .     S
C425   C483    1.526   .     S
C425   C427    1.426   .     A
C425   C521    1.401   .     S
C426   C428    1.413   .     A
C426   C487    1.526   .     S
C429   H433    1.081   .     S
C429   N438    1.365   .     A
C430   H434    1.081   .     S
C430   N437    1.365   .     A
C430   C725    1.413   .     S
C431   H435    1.082   .     S
C431   N438    1.365   .     A
C432   N437    1.365   .     A
C432   H436    1.082   .     S
C432   C723    1.413   .     S
C439   H442    1.109   .     S
C439   H441    1.108   .     S
C439   H440    1.107   .     S
C443   H444    1.107   .     S
C443   H445    1.110   .     S
C443   H446    1.109   .     S
O447   C448    1.415   .     S
C448   H449    1.115   .     S
C448   H451    1.102   .     S
C448   H450    1.109   .     S
O452   C453    1.407   .     S
C453   H455    1.109   .     S
C453   H456    1.095   .     S
C453   H454    1.113   .     S
O457   C458    1.414   .     S
C458   H461    1.109   .     S
C458   H459    1.112   .     S
C458   H1342   1.108   .     S
H460   C1340   1.108   1_554 S
O462   C463    1.416   .     S
C463   H466    1.107   .     S
C463   H465    1.111   .     S
C463   H464    1.114   .     S
C467   H468    1.111   .     S
C467   H469    1.110   .     S
C467   H470    1.102   .     S
C471   H473    1.108   .     S
C471   H474    1.108   .     S
C471   H472    1.111   .     S
C475   H476    1.107   .     S
C475   H477    1.111   .     S
C475   H478    1.111   .     S
C479   H480    1.099   .     S
C479   H481    1.111   .     S
C479   H482    1.111   .     S
C483   H485    1.105   .     S
C483   H484    1.110   .     S
C483   H486    1.109   .     S
C487   H488    1.110   .     S
C487   H490    1.108   .     S
C487   H489    1.110   .     S
O491   C495    1.274   .     A
O491   Zn503   2.027   .     S
O492   C496    1.287   .     A
O492   Zn504   2.027   .     S
O493   C496    1.283   .     A
O493   Zn503   2.006   .     S
O494   C495    1.294   .     A
O494   Zn504   2.006   .     S
C495   C526    1.448   .     S
C496   C525    1.451   .     S
O497   C501    1.288   .     A
O497   Zn503   2.018   .     S
O498   C502    1.283   .     A
O498   Zn504   2.018   .     S
O499   Zn503   2.022   .     S
O499   C502    1.277   .     A
O500   Zn504   2.022   .     S
O500   C501    1.278   .     A
C501   C508    1.442   .     S
C502   C507    1.431   .     S
Zn503  N535    2.000   .     S
Zn504  N536    2.000   .     S
C505   C537    1.522   .     S
C505   C515    1.404   .     A
C505   C507    1.397   .     A
C506   C541    1.519   .     S
C506   C516    1.413   .     A
C506   C508    1.406   .     A
C507   C509    1.402   .     A
C508   C510    1.403   .     A
C509   C511    1.404   .     A
C509   O545    1.387   .     S
C510   O550    1.387   .     S
C510   C512    1.394   .     A
C511   C517    1.416   .     A
C511   C513    1.418   .     A
C512   C518    1.405   .     A
C512   C514    1.408   .     A
C513   C515    1.424   .     A
C513   C1396   1.405   .     S
C514   C516    1.415   .     A
C514   C1395   1.405   1_554 S
C515   C520    1.415   .     A
C516   C519    1.410   .     A
C517   O555    1.383   .     S
C517   C1401   1.402   .     S
C518   O560    1.381   .     S
C518   C1402   1.390   1_554 S
C519   C565    1.514   .     S
C519   C1399   1.402   1_554 S
C520   C569    1.514   .     S
C520   C1400   1.390   .     S
C521   C573    1.521   .     S
C521   C526    1.408   .     A
C522   C525    1.422   .     A
C522   C577    1.527   .     S
C522   C328    1.386   1_655 S
C523   C581    1.526   .     S
C523   C525    1.426   .     A
C523   C325    1.401   1_655 S
C524   C526    1.413   .     A
C524   C585    1.526   .     S
C527   H531    1.081   .     S
C527   N536    1.365   .     A
C528   H532    1.081   .     S
C528   N535    1.365   .     A
C528   C823    1.413   .     S
C529   H533    1.082   .     S
C529   N536    1.365   .     A
C530   N535    1.365   .     A
C530   H534    1.082   .     S
C530   C821    1.413   .     S
C537   H540    1.109   .     S
C537   H539    1.108   .     S
C537   H538    1.107   .     S
C541   H542    1.107   .     S
C541   H543    1.110   .     S
C541   H544    1.109   .     S
O545   C546    1.415   .     S
C546   H547    1.115   .     S
C546   H549    1.102   .     S
C546   H548    1.109   .     S
O550   C551    1.407   .     S
C551   H553    1.109   .     S
C551   H554    1.095   .     S
C551   H552    1.113   .     S
O555   C556    1.414   .     S
C556   H559    1.109   .     S
C556   H557    1.112   .     S
C556   H1440   1.108   .     S
H558   C1438   1.108   1_554 S
O560   C561    1.416   .     S
C561   H564    1.107   .     S
C561   H563    1.111   .     S
C561   H562    1.114   .     S
C565   H566    1.111   .     S
C565   H567    1.110   .     S
C565   H568    1.102   .     S
C569   H571    1.108   .     S
C569   H572    1.108   .     S
C569   H570    1.111   .     S
C573   H574    1.107   .     S
C573   H575    1.111   .     S
C573   H576    1.111   .     S
C577   H578    1.099   .     S
C577   H579    1.111   .     S
C577   H580    1.111   .     S
C581   H583    1.105   .     S
C581   H582    1.110   .     S
C581   H584    1.109   .     S
C585   H586    1.110   .     S
C585   H588    1.108   .     S
C585   H587    1.110   .     S
O589   C593    1.274   .     A
O589   Zn601   2.027   .     S
O590   C594    1.287   .     A
O590   Zn602   2.027   .     S
O591   C594    1.283   .     A
O591   Zn601   2.006   .     S
O592   C593    1.294   .     A
O592   Zn602   2.006   .     S
C593   C624    1.448   .     S
C594   C623    1.451   .     S
O595   C599    1.288   .     A
O595   Zn601   2.018   .     S
O596   C600    1.283   .     A
O596   Zn602   2.018   .     S
O597   Zn601   2.022   .     S
O597   C600    1.277   .     A
O598   Zn602   2.022   .     S
O598   C599    1.278   .     A
C599   C606    1.442   .     S
C600   C605    1.431   .     S
Zn601  N633    2.000   .     S
Zn602  N634    2.000   .     S
C603   C635    1.522   .     S
C603   C613    1.404   .     A
C603   C605    1.397   .     A
C604   C639    1.519   .     S
C604   C614    1.413   .     A
C604   C606    1.406   .     A
C605   C607    1.402   .     A
C606   C608    1.403   .     A
C607   C609    1.404   .     A
C607   O643    1.387   .     S
C608   O648    1.387   .     S
C608   C610    1.394   .     A
C609   C615    1.416   .     A
C609   C611    1.418   .     A
C610   C616    1.405   .     A
C610   C612    1.408   .     A
C611   C613    1.424   .     A
C611   C1494   1.405   .     S
C612   C614    1.415   .     A
C612   C1493   1.405   1_554 S
C613   C618    1.415   .     A
C614   C617    1.410   .     A
C615   O653    1.383   .     S
C615   C1499   1.402   .     S
C616   O658    1.381   .     S
C616   C1500   1.390   1_554 S
C617   C663    1.514   .     S
C617   C1497   1.402   1_554 S
C618   C667    1.514   .     S
C618   C1498   1.390   .     S
C619   C671    1.521   .     S
C619   C624    1.408   .     A
C619   C817    1.401   1_455 S
C620   C623    1.422   .     A
C620   C675    1.527   .     S
C620   C720    1.386   .     S
C621   C679    1.526   .     S
C621   C623    1.426   .     A
C621   C717    1.401   .     S
C622   C624    1.413   .     A
C622   C683    1.526   .     S
C622   C816    1.386   1_455 S
C625   H629    1.081   .     S
C625   N634    1.365   .     A
C626   H630    1.081   .     S
C626   N633    1.365   .     A
C626   C39     1.413   1_565 S
C627   H631    1.082   .     S
C627   N634    1.365   .     A
C628   N633    1.365   .     A
C628   H632    1.082   .     S
C628   C37     1.413   1_565 S
C635   H638    1.109   .     S
C635   H637    1.108   .     S
C635   H636    1.107   .     S
C639   H640    1.107   .     S
C639   H641    1.110   .     S
C639   H642    1.109   .     S
O643   C644    1.415   .     S
C644   H645    1.115   .     S
C644   H647    1.102   .     S
C644   H646    1.109   .     S
O648   C649    1.407   .     S
C649   H651    1.109   .     S
C649   H652    1.095   .     S
C649   H650    1.113   .     S
O653   C654    1.414   .     S
C654   H657    1.109   .     S
C654   H655    1.112   .     S
C654   H1538   1.108   .     S
H656   C1536   1.108   1_554 S
O658   C659    1.416   .     S
C659   H662    1.107   .     S
C659   H661    1.111   .     S
C659   H660    1.114   .     S
C663   H664    1.111   .     S
C663   H665    1.110   .     S
C663   H666    1.102   .     S
C667   H669    1.108   .     S
C667   H670    1.108   .     S
C667   H668    1.111   .     S
C671   H672    1.107   .     S
C671   H673    1.111   .     S
C671   H674    1.111   .     S
C675   H676    1.099   .     S
C675   H677    1.111   .     S
C675   H678    1.111   .     S
C679   H681    1.105   .     S
C679   H680    1.110   .     S
C679   H682    1.109   .     S
C683   H684    1.110   .     S
C683   H686    1.108   .     S
C683   H685    1.110   .     S
O687   C691    1.274   .     A
O687   Zn699   2.027   .     S
O688   C692    1.287   .     A
O688   Zn700   2.027   .     S
O689   C692    1.283   .     A
O689   Zn699   2.006   .     S
O690   C691    1.294   .     A
O690   Zn700   2.006   .     S
C691   C722    1.448   .     S
C692   C721    1.451   .     S
O693   C697    1.288   .     A
O693   Zn699   2.018   .     S
O694   C698    1.283   .     A
O694   Zn700   2.018   .     S
O695   Zn699   2.022   .     S
O695   C698    1.277   .     A
O696   Zn700   2.022   .     S
O696   C697    1.278   .     A
C697   C704    1.442   .     S
C698   C703    1.431   .     S
Zn699  N731    2.000   .     S
Zn700  N732    2.000   .     S
C701   C733    1.522   .     S
C701   C711    1.404   .     A
C701   C703    1.397   .     A
C702   C737    1.519   .     S
C702   C712    1.413   .     A
C702   C704    1.406   .     A
C703   C705    1.402   .     A
C704   C706    1.403   .     A
C705   C707    1.404   .     A
C705   O741    1.387   .     S
C706   O746    1.387   .     S
C706   C708    1.394   .     A
C707   C713    1.416   .     A
C707   C709    1.418   .     A
C708   C714    1.405   .     A
C708   C710    1.408   .     A
C709   C711    1.424   .     A
C709   C1592   1.405   .     S
C710   C712    1.415   .     A
C710   C1591   1.405   1_554 S
C711   C716    1.415   .     A
C712   C715    1.410   .     A
C713   O751    1.383   .     S
C713   C1597   1.402   .     S
C714   O756    1.381   .     S
C714   C1598   1.390   1_554 S
C715   C761    1.514   .     S
C715   C1595   1.402   1_554 S
C716   C765    1.514   .     S
C716   C1596   1.390   .     S
C717   C769    1.521   .     S
C717   C722    1.408   .     A
C718   C721    1.422   .     A
C718   C773    1.527   .     S
C718   C818    1.386   .     S
C719   C777    1.526   .     S
C719   C721    1.426   .     A
C719   C815    1.401   .     S
C720   C722    1.413   .     A
C720   C781    1.526   .     S
C723   H727    1.081   .     S
C723   N732    1.365   .     A
C724   H728    1.081   .     S
C724   N731    1.365   .     A
C724   C137    1.413   1_565 S
C725   H729    1.082   .     S
C725   N732    1.365   .     A
C726   N731    1.365   .     A
C726   H730    1.082   .     S
C726   C135    1.413   1_565 S
C733   H736    1.109   .     S
C733   H735    1.108   .     S
C733   H734    1.107   .     S
C737   H738    1.107   .     S
C737   H739    1.110   .     S
C737   H740    1.109   .     S
O741   C742    1.415   .     S
C742   H743    1.115   .     S
C742   H745    1.102   .     S
C742   H744    1.109   .     S
O746   C747    1.407   .     S
C747   H749    1.109   .     S
C747   H750    1.095   .     S
C747   H748    1.113   .     S
O751   C752    1.414   .     S
C752   H755    1.109   .     S
C752   H753    1.112   .     S
C752   H1636   1.108   .     S
H754   C1634   1.108   1_554 S
O756   C757    1.416   .     S
C757   H760    1.107   .     S
C757   H759    1.111   .     S
C757   H758    1.114   .     S
C761   H762    1.111   .     S
C761   H763    1.110   .     S
C761   H764    1.102   .     S
C765   H767    1.108   .     S
C765   H768    1.108   .     S
C765   H766    1.111   .     S
C769   H770    1.107   .     S
C769   H771    1.111   .     S
C769   H772    1.111   .     S
C773   H774    1.099   .     S
C773   H775    1.111   .     S
C773   H776    1.111   .     S
C777   H779    1.105   .     S
C777   H778    1.110   .     S
C777   H780    1.109   .     S
C781   H782    1.110   .     S
C781   H784    1.108   .     S
C781   H783    1.110   .     S
O785   C789    1.274   .     A
O785   Zn797   2.027   .     S
O786   C790    1.287   .     A
O786   Zn798   2.027   .     S
O787   C790    1.283   .     A
O787   Zn797   2.006   .     S
O788   C789    1.294   .     A
O788   Zn798   2.006   .     S
C789   C820    1.448   .     S
C790   C819    1.451   .     S
O791   C795    1.288   .     A
O791   Zn797   2.018   .     S
O792   C796    1.283   .     A
O792   Zn798   2.018   .     S
O793   Zn797   2.022   .     S
O793   C796    1.277   .     A
O794   Zn798   2.022   .     S
O794   C795    1.278   .     A
C795   C802    1.442   .     S
C796   C801    1.431   .     S
Zn797  N829    2.000   .     S
Zn798  N830    2.000   .     S
C799   C831    1.522   .     S
C799   C809    1.404   .     A
C799   C801    1.397   .     A
C800   C835    1.519   .     S
C800   C810    1.413   .     A
C800   C802    1.406   .     A
C801   C803    1.402   .     A
C802   C804    1.403   .     A
C803   C805    1.404   .     A
C803   O839    1.387   .     S
C804   O844    1.387   .     S
C804   C806    1.394   .     A
C805   C811    1.416   .     A
C805   C807    1.418   .     A
C806   C812    1.405   .     A
C806   C808    1.408   .     A
C807   C809    1.424   .     A
C807   C1690   1.405   .     S
C808   C810    1.415   .     A
C808   C1689   1.405   1_554 S
C809   C814    1.415   .     A
C810   C813    1.410   .     A
C811   O849    1.383   .     S
C811   C1695   1.402   .     S
C812   O854    1.381   .     S
C812   C1696   1.390   1_554 S
C813   C859    1.514   .     S
C813   C1693   1.402   1_554 S
C814   C863    1.514   .     S
C814   C1694   1.390   .     S
C815   C867    1.521   .     S
C815   C820    1.408   .     A
C816   C819    1.422   .     A
C816   C871    1.527   .     S
C816   C622    1.386   1_655 S
C817   C875    1.526   .     S
C817   C819    1.426   .     A
C817   C619    1.401   1_655 S
C818   C820    1.413   .     A
C818   C879    1.526   .     S
C821   H825    1.081   .     S
C821   N830    1.365   .     A
C822   H826    1.081   .     S
C822   N829    1.365   .     A
C822   C235    1.413   1_565 S
C823   H827    1.082   .     S
C823   N830    1.365   .     A
C824   N829    1.365   .     A
C824   H828    1.082   .     S
C824   C233    1.413   1_565 S
C831   H834    1.109   .     S
C831   H833    1.108   .     S
C831   H832    1.107   .     S
C835   H836    1.107   .     S
C835   H837    1.110   .     S
C835   H838    1.109   .     S
O839   C840    1.415   .     S
C840   H841    1.115   .     S
C840   H843    1.102   .     S
C840   H842    1.109   .     S
O844   C845    1.407   .     S
C845   H847    1.109   .     S
C845   H848    1.095   .     S
C845   H846    1.113   .     S
O849   C850    1.414   .     S
C850   H853    1.109   .     S
C850   H851    1.112   .     S
C850   H1734   1.108   .     S
H852   C1732   1.108   1_554 S
O854   C855    1.416   .     S
C855   H858    1.107   .     S
C855   H857    1.111   .     S
C855   H856    1.114   .     S
C859   H860    1.111   .     S
C859   H861    1.110   .     S
C859   H862    1.102   .     S
C863   H865    1.108   .     S
C863   H866    1.108   .     S
C863   H864    1.111   .     S
C867   H868    1.107   .     S
C867   H869    1.111   .     S
C867   H870    1.111   .     S
C871   H872    1.099   .     S
C871   H873    1.111   .     S
C871   H874    1.111   .     S
C875   H877    1.105   .     S
C875   H876    1.110   .     S
C875   H878    1.109   .     S
C879   H880    1.110   .     S
C879   H882    1.108   .     S
C879   H881    1.110   .     S
O883   C887    1.274   .     A
O883   Zn895   2.027   .     S
O884   C888    1.287   .     A
O884   Zn896   2.027   .     S
O885   C888    1.283   .     A
O885   Zn895   2.006   .     S
O886   C887    1.294   .     A
O886   Zn896   2.006   .     S
C887   C918    1.448   .     S
C888   C917    1.451   .     S
O889   C893    1.288   .     A
O889   Zn895   2.018   .     S
O890   C894    1.283   .     A
O890   Zn896   2.018   .     S
O891   Zn895   2.022   .     S
O891   C894    1.277   .     A
O892   Zn896   2.022   .     S
O892   C893    1.278   .     A
C893   C900    1.442   .     S
C894   C899    1.431   .     S
Zn895  N927    2.000   .     S
Zn896  N928    2.000   .     S
C897   C929    1.522   .     S
C897   C907    1.404   .     A
C897   C899    1.397   .     A
C898   C933    1.519   .     S
C898   C908    1.413   .     A
C898   C900    1.406   .     A
C899   C901    1.402   .     A
C900   C902    1.403   .     A
C901   C903    1.404   .     A
C901   O937    1.387   .     S
C902   O942    1.387   .     S
C902   C904    1.394   .     A
C903   C909    1.416   .     A
C903   C905    1.418   .     A
C904   C910    1.405   .     A
C904   C906    1.408   .     A
C905   C907    1.424   .     A
C905   C24     1.405   1_556 S
C906   C908    1.415   .     A
C907   C912    1.415   .     A
C908   C911    1.410   .     A
C909   O947    1.383   .     S
C909   C29     1.402   1_556 S
C910   O952    1.381   .     S
C911   C957    1.514   .     S
C912   C961    1.514   .     S
C912   C28     1.390   1_556 S
C913   C965    1.521   .     S
C913   C918    1.408   .     A
C913   C1111   1.401   1_455 S
C914   C917    1.422   .     A
C914   C969    1.527   .     S
C914   C1014   1.386   .     S
C915   C973    1.526   .     S
C915   C917    1.426   .     A
C915   C1011   1.401   .     S
C916   C918    1.413   .     A
C916   C977    1.526   .     S
C916   C1110   1.386   1_455 S
C919   H923    1.081   .     S
C919   N928    1.365   .     A
C919   C1510   1.413   1_545 S
C920   H924    1.081   .     S
C920   N927    1.365   .     A
C920   C1215   1.413   .     S
C921   H925    1.082   .     S
C921   N928    1.365   .     A
C921   C1508   1.413   1_545 S
C922   N927    1.365   .     A
C922   H926    1.082   .     S
C922   C1213   1.413   .     S
C929   H932    1.109   .     S
C929   H931    1.108   .     S
C929   H930    1.107   .     S
C933   H934    1.107   .     S
C933   H935    1.110   .     S
C933   H936    1.109   .     S
O937   C938    1.415   .     S
C938   H939    1.115   .     S
C938   H941    1.102   .     S
C938   H940    1.109   .     S
O942   C943    1.407   .     S
C943   H945    1.109   .     S
C943   H946    1.095   .     S
C943   H944    1.113   .     S
O947   C948    1.414   .     S
C948   H951    1.109   .     S
C948   H949    1.112   .     S
C948   H68     1.108   1_556 S
O952   C953    1.416   .     S
C953   H956    1.107   .     S
C953   H955    1.111   .     S
C953   H954    1.114   .     S
C957   H958    1.111   .     S
C957   H959    1.110   .     S
C957   H960    1.102   .     S
C961   H963    1.108   .     S
C961   H964    1.108   .     S
C961   H962    1.111   .     S
C965   H966    1.107   .     S
C965   H967    1.111   .     S
C965   H968    1.111   .     S
C969   H970    1.099   .     S
C969   H971    1.111   .     S
C969   H972    1.111   .     S
C973   H975    1.105   .     S
C973   H974    1.110   .     S
C973   H976    1.109   .     S
C977   H978    1.110   .     S
C977   H980    1.108   .     S
C977   H979    1.110   .     S
O981   C985    1.274   .     A
O981   Zn993   2.027   .     S
O982   C986    1.287   .     A
O982   Zn994   2.027   .     S
O983   C986    1.283   .     A
O983   Zn993   2.006   .     S
O984   C985    1.294   .     A
O984   Zn994   2.006   .     S
C985   C1016   1.448   .     S
C986   C1015   1.451   .     S
O987   C991    1.288   .     A
O987   Zn993   2.018   .     S
O988   C992    1.283   .     A
O988   Zn994   2.018   .     S
O989   Zn993   2.022   .     S
O989   C992    1.277   .     A
O990   Zn994   2.022   .     S
O990   C991    1.278   .     A
C991   C998    1.442   .     S
C992   C997    1.431   .     S
Zn993  N1025   2.000   .     S
Zn994  N1026   2.000   .     S
C995   C1027   1.522   .     S
C995   C1005   1.404   .     A
C995   C997    1.397   .     A
C996   C1031   1.519   .     S
C996   C1006   1.413   .     A
C996   C998    1.406   .     A
C997   C999    1.402   .     A
C998   C1000   1.403   .     A
C999   C1001   1.404   .     A
C999   O1035   1.387   .     S
C1000  O1040   1.387   .     S
C1000  C1002   1.394   .     A
C1001  C1007   1.416   .     A
C1001  C1003   1.418   .     A
C1002  C1008   1.405   .     A
C1002  C1004   1.408   .     A
C1003  C1005   1.424   .     A
C1003  C122    1.405   1_556 S
C1004  C1006   1.415   .     A
C1005  C1010   1.415   .     A
C1006  C1009   1.410   .     A
C1007  O1045   1.383   .     S
C1007  C127    1.402   1_556 S
C1008  O1050   1.381   .     S
C1009  C1055   1.514   .     S
C1010  C1059   1.514   .     S
C1010  C126    1.390   1_556 S
C1011  C1063   1.521   .     S
C1011  C1016   1.408   .     A
C1012  C1015   1.422   .     A
C1012  C1067   1.527   .     S
C1012  C1112   1.386   .     S
C1013  C1071   1.526   .     S
C1013  C1015   1.426   .     A
C1013  C1109   1.401   .     S
C1014  C1016   1.413   .     A
C1014  C1075   1.526   .     S
C1017  H1021   1.081   .     S
C1017  N1026   1.365   .     A
C1017  C1608   1.413   1_545 S
C1018  H1022   1.081   .     S
C1018  N1025   1.365   .     A
C1018  C1313   1.413   .     S
C1019  H1023   1.082   .     S
C1019  N1026   1.365   .     A
C1019  C1606   1.413   1_545 S
C1020  N1025   1.365   .     A
C1020  H1024   1.082   .     S
C1020  C1311   1.413   .     S
C1027  H1030   1.109   .     S
C1027  H1029   1.108   .     S
C1027  H1028   1.107   .     S
C1031  H1032   1.107   .     S
C1031  H1033   1.110   .     S
C1031  H1034   1.109   .     S
O1035  C1036   1.415   .     S
C1036  H1037   1.115   .     S
C1036  H1039   1.102   .     S
C1036  H1038   1.109   .     S
O1040  C1041   1.407   .     S
C1041  H1043   1.109   .     S
C1041  H1044   1.095   .     S
C1041  H1042   1.113   .     S
O1045  C1046   1.414   .     S
C1046  H1049   1.109   .     S
C1046  H1047   1.112   .     S
C1046  H166    1.108   1_556 S
O1050  C1051   1.416   .     S
C1051  H1054   1.107   .     S
C1051  H1053   1.111   .     S
C1051  H1052   1.114   .     S
C1055  H1056   1.111   .     S
C1055  H1057   1.110   .     S
C1055  H1058   1.102   .     S
C1059  H1061   1.108   .     S
C1059  H1062   1.108   .     S
C1059  H1060   1.111   .     S
C1063  H1064   1.107   .     S
C1063  H1065   1.111   .     S
C1063  H1066   1.111   .     S
C1067  H1068   1.099   .     S
C1067  H1069   1.111   .     S
C1067  H1070   1.111   .     S
C1071  H1073   1.105   .     S
C1071  H1072   1.110   .     S
C1071  H1074   1.109   .     S
C1075  H1076   1.110   .     S
C1075  H1078   1.108   .     S
C1075  H1077   1.110   .     S
O1079  C1083   1.274   .     A
O1079  Zn1091  2.027   .     S
O1080  C1084   1.287   .     A
O1080  Zn1092  2.027   .     S
O1081  C1084   1.283   .     A
O1081  Zn1091  2.006   .     S
O1082  C1083   1.294   .     A
O1082  Zn1092  2.006   .     S
C1083  C1114   1.448   .     S
C1084  C1113   1.451   .     S
O1085  C1089   1.288   .     A
O1085  Zn1091  2.018   .     S
O1086  C1090   1.283   .     A
O1086  Zn1092  2.018   .     S
O1087  Zn1091  2.022   .     S
O1087  C1090   1.277   .     A
O1088  Zn1092  2.022   .     S
O1088  C1089   1.278   .     A
C1089  C1096   1.442   .     S
C1090  C1095   1.431   .     S
Zn1091 N1123   2.000   .     S
Zn1092 N1124   2.000   .     S
C1093  C1125   1.522   .     S
C1093  C1103   1.404   .     A
C1093  C1095   1.397   .     A
C1094  C1129   1.519   .     S
C1094  C1104   1.413   .     A
C1094  C1096   1.406   .     A
C1095  C1097   1.402   .     A
C1096  C1098   1.403   .     A
C1097  C1099   1.404   .     A
C1097  O1133   1.387   .     S
C1098  O1138   1.387   .     S
C1098  C1100   1.394   .     A
C1099  C1105   1.416   .     A
C1099  C1101   1.418   .     A
C1100  C1106   1.405   .     A
C1100  C1102   1.408   .     A
C1101  C1103   1.424   .     A
C1101  C220    1.405   1_556 S
C1102  C1104   1.415   .     A
C1103  C1108   1.415   .     A
C1104  C1107   1.410   .     A
C1105  O1143   1.383   .     S
C1105  C225    1.402   1_556 S
C1106  O1148   1.381   .     S
C1107  C1153   1.514   .     S
C1108  C1157   1.514   .     S
C1108  C224    1.390   1_556 S
C1109  C1161   1.521   .     S
C1109  C1114   1.408   .     A
C1110  C1113   1.422   .     A
C1110  C1165   1.527   .     S
C1110  C916    1.386   1_655 S
C1111  C1169   1.526   .     S
C1111  C1113   1.426   .     A
C1111  C913    1.401   1_655 S
C1112  C1114   1.413   .     A
C1112  C1173   1.526   .     S
C1115  H1119   1.081   .     S
C1115  N1124   1.365   .     A
C1115  C1706   1.413   1_545 S
C1116  H1120   1.081   .     S
C1116  N1123   1.365   .     A
C1116  C1411   1.413   .     S
C1117  H1121   1.082   .     S
C1117  N1124   1.365   .     A
C1117  C1704   1.413   1_545 S
C1118  N1123   1.365   .     A
C1118  H1122   1.082   .     S
C1118  C1409   1.413   .     S
C1125  H1128   1.109   .     S
C1125  H1127   1.108   .     S
C1125  H1126   1.107   .     S
C1129  H1130   1.107   .     S
C1129  H1131   1.110   .     S
C1129  H1132   1.109   .     S
O1133  C1134   1.415   .     S
C1134  H1135   1.115   .     S
C1134  H1137   1.102   .     S
C1134  H1136   1.109   .     S
O1138  C1139   1.407   .     S
C1139  H1141   1.109   .     S
C1139  H1142   1.095   .     S
C1139  H1140   1.113   .     S
O1143  C1144   1.414   .     S
C1144  H1147   1.109   .     S
C1144  H1145   1.112   .     S
C1144  H264    1.108   1_556 S
O1148  C1149   1.416   .     S
C1149  H1152   1.107   .     S
C1149  H1151   1.111   .     S
C1149  H1150   1.114   .     S
C1153  H1154   1.111   .     S
C1153  H1155   1.110   .     S
C1153  H1156   1.102   .     S
C1157  H1159   1.108   .     S
C1157  H1160   1.108   .     S
C1157  H1158   1.111   .     S
C1161  H1162   1.107   .     S
C1161  H1163   1.111   .     S
C1161  H1164   1.111   .     S
C1165  H1166   1.099   .     S
C1165  H1167   1.111   .     S
C1165  H1168   1.111   .     S
C1169  H1171   1.105   .     S
C1169  H1170   1.110   .     S
C1169  H1172   1.109   .     S
C1173  H1174   1.110   .     S
C1173  H1176   1.108   .     S
C1173  H1175   1.110   .     S
O1177  C1181   1.274   .     A
O1177  Zn1189  2.027   .     S
O1178  C1182   1.287   .     A
O1178  Zn1190  2.027   .     S
O1179  C1182   1.283   .     A
O1179  Zn1189  2.006   .     S
O1180  C1181   1.294   .     A
O1180  Zn1190  2.006   .     S
C1181  C1212   1.448   .     S
C1182  C1211   1.451   .     S
O1183  C1187   1.288   .     A
O1183  Zn1189  2.018   .     S
O1184  C1188   1.283   .     A
O1184  Zn1190  2.018   .     S
O1185  Zn1189  2.022   .     S
O1185  C1188   1.277   .     A
O1186  Zn1190  2.022   .     S
O1186  C1187   1.278   .     A
C1187  C1194   1.442   .     S
C1188  C1193   1.431   .     S
Zn1189 N1221   2.000   .     S
Zn1190 N1222   2.000   .     S
C1191  C1223   1.522   .     S
C1191  C1201   1.404   .     A
C1191  C1193   1.397   .     A
C1192  C1227   1.519   .     S
C1192  C1202   1.413   .     A
C1192  C1194   1.406   .     A
C1193  C1195   1.402   .     A
C1194  C1196   1.403   .     A
C1195  C1197   1.404   .     A
C1195  O1231   1.387   .     S
C1196  O1236   1.387   .     S
C1196  C1198   1.394   .     A
C1197  C1203   1.416   .     A
C1197  C1199   1.418   .     A
C1198  C1204   1.405   .     A
C1198  C1200   1.408   .     A
C1199  C1201   1.424   .     A
C1199  C318    1.405   1_556 S
C1200  C1202   1.415   .     A
C1201  C1206   1.415   .     A
C1202  C1205   1.410   .     A
C1203  O1241   1.383   .     S
C1203  C323    1.402   1_556 S
C1204  O1246   1.381   .     S
C1205  C1251   1.514   .     S
C1206  C1255   1.514   .     S
C1206  C322    1.390   1_556 S
C1207  C1259   1.521   .     S
C1207  C1212   1.408   .     A
C1207  C1405   1.401   1_455 S
C1208  C1211   1.422   .     A
C1208  C1263   1.527   .     S
C1208  C1308   1.386   .     S
C1209  C1267   1.526   .     S
C1209  C1211   1.426   .     A
C1209  C1305   1.401   .     S
C1210  C1212   1.413   .     A
C1210  C1271   1.526   .     S
C1210  C1404   1.386   1_455 S
C1213  H1217   1.081   .     S
C1213  N1222   1.365   .     A
C1214  H1218   1.081   .     S
C1214  N1221   1.365   .     A
C1214  C1509   1.413   .     S
C1215  H1219   1.082   .     S
C1215  N1222   1.365   .     A
C1216  N1221   1.365   .     A
C1216  H1220   1.082   .     S
C1216  C1507   1.413   .     S
C1223  H1226   1.109   .     S
C1223  H1225   1.108   .     S
C1223  H1224   1.107   .     S
C1227  H1228   1.107   .     S
C1227  H1229   1.110   .     S
C1227  H1230   1.109   .     S
O1231  C1232   1.415   .     S
C1232  H1233   1.115   .     S
C1232  H1235   1.102   .     S
C1232  H1234   1.109   .     S
O1236  C1237   1.407   .     S
C1237  H1239   1.109   .     S
C1237  H1240   1.095   .     S
C1237  H1238   1.113   .     S
O1241  C1242   1.414   .     S
C1242  H1245   1.109   .     S
C1242  H1243   1.112   .     S
C1242  H362    1.108   1_556 S
O1246  C1247   1.416   .     S
C1247  H1250   1.107   .     S
C1247  H1249   1.111   .     S
C1247  H1248   1.114   .     S
C1251  H1252   1.111   .     S
C1251  H1253   1.110   .     S
C1251  H1254   1.102   .     S
C1255  H1257   1.108   .     S
C1255  H1258   1.108   .     S
C1255  H1256   1.111   .     S
C1259  H1260   1.107   .     S
C1259  H1261   1.111   .     S
C1259  H1262   1.111   .     S
C1263  H1264   1.099   .     S
C1263  H1265   1.111   .     S
C1263  H1266   1.111   .     S
C1267  H1269   1.105   .     S
C1267  H1268   1.110   .     S
C1267  H1270   1.109   .     S
C1271  H1272   1.110   .     S
C1271  H1274   1.108   .     S
C1271  H1273   1.110   .     S
O1275  C1279   1.274   .     A
O1275  Zn1287  2.027   .     S
O1276  C1280   1.287   .     A
O1276  Zn1288  2.027   .     S
O1277  C1280   1.283   .     A
O1277  Zn1287  2.006   .     S
O1278  C1279   1.294   .     A
O1278  Zn1288  2.006   .     S
C1279  C1310   1.448   .     S
C1280  C1309   1.451   .     S
O1281  C1285   1.288   .     A
O1281  Zn1287  2.018   .     S
O1282  C1286   1.283   .     A
O1282  Zn1288  2.018   .     S
O1283  Zn1287  2.022   .     S
O1283  C1286   1.277   .     A
O1284  Zn1288  2.022   .     S
O1284  C1285   1.278   .     A
C1285  C1292   1.442   .     S
C1286  C1291   1.431   .     S
Zn1287 N1319   2.000   .     S
Zn1288 N1320   2.000   .     S
C1289  C1321   1.522   .     S
C1289  C1299   1.404   .     A
C1289  C1291   1.397   .     A
C1290  C1325   1.519   .     S
C1290  C1300   1.413   .     A
C1290  C1292   1.406   .     A
C1291  C1293   1.402   .     A
C1292  C1294   1.403   .     A
C1293  C1295   1.404   .     A
C1293  O1329   1.387   .     S
C1294  O1334   1.387   .     S
C1294  C1296   1.394   .     A
C1295  C1301   1.416   .     A
C1295  C1297   1.418   .     A
C1296  C1302   1.405   .     A
C1296  C1298   1.408   .     A
C1297  C1299   1.424   .     A
C1297  C416    1.405   1_556 S
C1298  C1300   1.415   .     A
C1299  C1304   1.415   .     A
C1300  C1303   1.410   .     A
C1301  O1339   1.383   .     S
C1301  C421    1.402   1_556 S
C1302  O1344   1.381   .     S
C1303  C1349   1.514   .     S
C1304  C1353   1.514   .     S
C1304  C420    1.390   1_556 S
C1305  C1357   1.521   .     S
C1305  C1310   1.408   .     A
C1306  C1309   1.422   .     A
C1306  C1361   1.527   .     S
C1306  C1406   1.386   .     S
C1307  C1365   1.526   .     S
C1307  C1309   1.426   .     A
C1307  C1403   1.401   .     S
C1308  C1310   1.413   .     A
C1308  C1369   1.526   .     S
C1311  H1315   1.081   .     S
C1311  N1320   1.365   .     A
C1312  H1316   1.081   .     S
C1312  N1319   1.365   .     A
C1312  C1607   1.413   .     S
C1313  H1317   1.082   .     S
C1313  N1320   1.365   .     A
C1314  N1319   1.365   .     A
C1314  H1318   1.082   .     S
C1314  C1605   1.413   .     S
C1321  H1324   1.109   .     S
C1321  H1323   1.108   .     S
C1321  H1322   1.107   .     S
C1325  H1326   1.107   .     S
C1325  H1327   1.110   .     S
C1325  H1328   1.109   .     S
O1329  C1330   1.415   .     S
C1330  H1331   1.115   .     S
C1330  H1333   1.102   .     S
C1330  H1332   1.109   .     S
O1334  C1335   1.407   .     S
C1335  H1337   1.109   .     S
C1335  H1338   1.095   .     S
C1335  H1336   1.113   .     S
O1339  C1340   1.414   .     S
C1340  H1343   1.109   .     S
C1340  H1341   1.112   .     S
C1340  H460    1.108   1_556 S
O1344  C1345   1.416   .     S
C1345  H1348   1.107   .     S
C1345  H1347   1.111   .     S
C1345  H1346   1.114   .     S
C1349  H1350   1.111   .     S
C1349  H1351   1.110   .     S
C1349  H1352   1.102   .     S
C1353  H1355   1.108   .     S
C1353  H1356   1.108   .     S
C1353  H1354   1.111   .     S
C1357  H1358   1.107   .     S
C1357  H1359   1.111   .     S
C1357  H1360   1.111   .     S
C1361  H1362   1.099   .     S
C1361  H1363   1.111   .     S
C1361  H1364   1.111   .     S
C1365  H1367   1.105   .     S
C1365  H1366   1.110   .     S
C1365  H1368   1.109   .     S
C1369  H1370   1.110   .     S
C1369  H1372   1.108   .     S
C1369  H1371   1.110   .     S
O1373  C1377   1.274   .     A
O1373  Zn1385  2.027   .     S
O1374  C1378   1.287   .     A
O1374  Zn1386  2.027   .     S
O1375  C1378   1.283   .     A
O1375  Zn1385  2.006   .     S
O1376  C1377   1.294   .     A
O1376  Zn1386  2.006   .     S
C1377  C1408   1.448   .     S
C1378  C1407   1.451   .     S
O1379  C1383   1.288   .     A
O1379  Zn1385  2.018   .     S
O1380  C1384   1.283   .     A
O1380  Zn1386  2.018   .     S
O1381  Zn1385  2.022   .     S
O1381  C1384   1.277   .     A
O1382  Zn1386  2.022   .     S
O1382  C1383   1.278   .     A
C1383  C1390   1.442   .     S
C1384  C1389   1.431   .     S
Zn1385 N1417   2.000   .     S
Zn1386 N1418   2.000   .     S
C1387  C1419   1.522   .     S
C1387  C1397   1.404   .     A
C1387  C1389   1.397   .     A
C1388  C1423   1.519   .     S
C1388  C1398   1.413   .     A
C1388  C1390   1.406   .     A
C1389  C1391   1.402   .     A
C1390  C1392   1.403   .     A
C1391  C1393   1.404   .     A
C1391  O1427   1.387   .     S
C1392  O1432   1.387   .     S
C1392  C1394   1.394   .     A
C1393  C1399   1.416   .     A
C1393  C1395   1.418   .     A
C1394  C1400   1.405   .     A
C1394  C1396   1.408   .     A
C1395  C1397   1.424   .     A
C1395  C514    1.405   1_556 S
C1396  C1398   1.415   .     A
C1397  C1402   1.415   .     A
C1398  C1401   1.410   .     A
C1399  O1437   1.383   .     S
C1399  C519    1.402   1_556 S
C1400  O1442   1.381   .     S
C1401  C1447   1.514   .     S
C1402  C1451   1.514   .     S
C1402  C518    1.390   1_556 S
C1403  C1455   1.521   .     S
C1403  C1408   1.408   .     A
C1404  C1407   1.422   .     A
C1404  C1459   1.527   .     S
C1404  C1210   1.386   1_655 S
C1405  C1463   1.526   .     S
C1405  C1407   1.426   .     A
C1405  C1207   1.401   1_655 S
C1406  C1408   1.413   .     A
C1406  C1467   1.526   .     S
C1409  H1413   1.081   .     S
C1409  N1418   1.365   .     A
C1410  H1414   1.081   .     S
C1410  N1417   1.365   .     A
C1410  C1705   1.413   .     S
C1411  H1415   1.082   .     S
C1411  N1418   1.365   .     A
C1412  N1417   1.365   .     A
C1412  H1416   1.082   .     S
C1412  C1703   1.413   .     S
C1419  H1422   1.109   .     S
C1419  H1421   1.108   .     S
C1419  H1420   1.107   .     S
C1423  H1424   1.107   .     S
C1423  H1425   1.110   .     S
C1423  H1426   1.109   .     S
O1427  C1428   1.415   .     S
C1428  H1429   1.115   .     S
C1428  H1431   1.102   .     S
C1428  H1430   1.109   .     S
O1432  C1433   1.407   .     S
C1433  H1435   1.109   .     S
C1433  H1436   1.095   .     S
C1433  H1434   1.113   .     S
O1437  C1438   1.414   .     S
C1438  H1441   1.109   .     S
C1438  H1439   1.112   .     S
C1438  H558    1.108   1_556 S
O1442  C1443   1.416   .     S
C1443  H1446   1.107   .     S
C1443  H1445   1.111   .     S
C1443  H1444   1.114   .     S
C1447  H1448   1.111   .     S
C1447  H1449   1.110   .     S
C1447  H1450   1.102   .     S
C1451  H1453   1.108   .     S
C1451  H1454   1.108   .     S
C1451  H1452   1.111   .     S
C1455  H1456   1.107   .     S
C1455  H1457   1.111   .     S
C1455  H1458   1.111   .     S
C1459  H1460   1.099   .     S
C1459  H1461   1.111   .     S
C1459  H1462   1.111   .     S
C1463  H1465   1.105   .     S
C1463  H1464   1.110   .     S
C1463  H1466   1.109   .     S
C1467  H1468   1.110   .     S
C1467  H1470   1.108   .     S
C1467  H1469   1.110   .     S
O1471  C1475   1.274   .     A
O1471  Zn1483  2.027   .     S
O1472  C1476   1.287   .     A
O1472  Zn1484  2.027   .     S
O1473  C1476   1.283   .     A
O1473  Zn1483  2.006   .     S
O1474  C1475   1.294   .     A
O1474  Zn1484  2.006   .     S
C1475  C1506   1.448   .     S
C1476  C1505   1.451   .     S
O1477  C1481   1.288   .     A
O1477  Zn1483  2.018   .     S
O1478  C1482   1.283   .     A
O1478  Zn1484  2.018   .     S
O1479  Zn1483  2.022   .     S
O1479  C1482   1.277   .     A
O1480  Zn1484  2.022   .     S
O1480  C1481   1.278   .     A
C1481  C1488   1.442   .     S
C1482  C1487   1.431   .     S
Zn1483 N1515   2.000   .     S
Zn1484 N1516   2.000   .     S
C1485  C1517   1.522   .     S
C1485  C1495   1.404   .     A
C1485  C1487   1.397   .     A
C1486  C1521   1.519   .     S
C1486  C1496   1.413   .     A
C1486  C1488   1.406   .     A
C1487  C1489   1.402   .     A
C1488  C1490   1.403   .     A
C1489  C1491   1.404   .     A
C1489  O1525   1.387   .     S
C1490  O1530   1.387   .     S
C1490  C1492   1.394   .     A
C1491  C1497   1.416   .     A
C1491  C1493   1.418   .     A
C1492  C1498   1.405   .     A
C1492  C1494   1.408   .     A
C1493  C1495   1.424   .     A
C1493  C612    1.405   1_556 S
C1494  C1496   1.415   .     A
C1495  C1500   1.415   .     A
C1496  C1499   1.410   .     A
C1497  O1535   1.383   .     S
C1497  C617    1.402   1_556 S
C1498  O1540   1.381   .     S
C1499  C1545   1.514   .     S
C1500  C1549   1.514   .     S
C1500  C616    1.390   1_556 S
C1501  C1553   1.521   .     S
C1501  C1506   1.408   .     A
C1501  C1699   1.401   1_455 S
C1502  C1505   1.422   .     A
C1502  C1557   1.527   .     S
C1502  C1602   1.386   .     S
C1503  C1561   1.526   .     S
C1503  C1505   1.426   .     A
C1503  C1599   1.401   .     S
C1504  C1506   1.413   .     A
C1504  C1565   1.526   .     S
C1504  C1698   1.386   1_455 S
C1507  H1511   1.081   .     S
C1507  N1516   1.365   .     A
C1508  H1512   1.081   .     S
C1508  N1515   1.365   .     A
C1508  C921    1.413   1_565 S
C1509  H1513   1.082   .     S
C1509  N1516   1.365   .     A
C1510  N1515   1.365   .     A
C1510  H1514   1.082   .     S
C1510  C919    1.413   1_565 S
C1517  H1520   1.109   .     S
C1517  H1519   1.108   .     S
C1517  H1518   1.107   .     S
C1521  H1522   1.107   .     S
C1521  H1523   1.110   .     S
C1521  H1524   1.109   .     S
O1525  C1526   1.415   .     S
C1526  H1527   1.115   .     S
C1526  H1529   1.102   .     S
C1526  H1528   1.109   .     S
O1530  C1531   1.407   .     S
C1531  H1533   1.109   .     S
C1531  H1534   1.095   .     S
C1531  H1532   1.113   .     S
O1535  C1536   1.414   .     S
C1536  H1539   1.109   .     S
C1536  H1537   1.112   .     S
C1536  H656    1.108   1_556 S
O1540  C1541   1.416   .     S
C1541  H1544   1.107   .     S
C1541  H1543   1.111   .     S
C1541  H1542   1.114   .     S
C1545  H1546   1.111   .     S
C1545  H1547   1.110   .     S
C1545  H1548   1.102   .     S
C1549  H1551   1.108   .     S
C1549  H1552   1.108   .     S
C1549  H1550   1.111   .     S
C1553  H1554   1.107   .     S
C1553  H1555   1.111   .     S
C1553  H1556   1.111   .     S
C1557  H1558   1.099   .     S
C1557  H1559   1.111   .     S
C1557  H1560   1.111   .     S
C1561  H1563   1.105   .     S
C1561  H1562   1.110   .     S
C1561  H1564   1.109   .     S
C1565  H1566   1.110   .     S
C1565  H1568   1.108   .     S
C1565  H1567   1.110   .     S
O1569  C1573   1.274   .     A
O1569  Zn1581  2.027   .     S
O1570  C1574   1.287   .     A
O1570  Zn1582  2.027   .     S
O1571  C1574   1.283   .     A
O1571  Zn1581  2.006   .     S
O1572  C1573   1.294   .     A
O1572  Zn1582  2.006   .     S
C1573  C1604   1.448   .     S
C1574  C1603   1.451   .     S
O1575  C1579   1.288   .     A
O1575  Zn1581  2.018   .     S
O1576  C1580   1.283   .     A
O1576  Zn1582  2.018   .     S
O1577  Zn1581  2.022   .     S
O1577  C1580   1.277   .     A
O1578  Zn1582  2.022   .     S
O1578  C1579   1.278   .     A
C1579  C1586   1.442   .     S
C1580  C1585   1.431   .     S
Zn1581 N1613   2.000   .     S
Zn1582 N1614   2.000   .     S
C1583  C1615   1.522   .     S
C1583  C1593   1.404   .     A
C1583  C1585   1.397   .     A
C1584  C1619   1.519   .     S
C1584  C1594   1.413   .     A
C1584  C1586   1.406   .     A
C1585  C1587   1.402   .     A
C1586  C1588   1.403   .     A
C1587  C1589   1.404   .     A
C1587  O1623   1.387   .     S
C1588  O1628   1.387   .     S
C1588  C1590   1.394   .     A
C1589  C1595   1.416   .     A
C1589  C1591   1.418   .     A
C1590  C1596   1.405   .     A
C1590  C1592   1.408   .     A
C1591  C1593   1.424   .     A
C1591  C710    1.405   1_556 S
C1592  C1594   1.415   .     A
C1593  C1598   1.415   .     A
C1594  C1597   1.410   .     A
C1595  O1633   1.383   .     S
C1595  C715    1.402   1_556 S
C1596  O1638   1.381   .     S
C1597  C1643   1.514   .     S
C1598  C1647   1.514   .     S
C1598  C714    1.390   1_556 S
C1599  C1651   1.521   .     S
C1599  C1604   1.408   .     A
C1600  C1603   1.422   .     A
C1600  C1655   1.527   .     S
C1600  C1700   1.386   .     S
C1601  C1659   1.526   .     S
C1601  C1603   1.426   .     A
C1601  C1697   1.401   .     S
C1602  C1604   1.413   .     A
C1602  C1663   1.526   .     S
C1605  H1609   1.081   .     S
C1605  N1614   1.365   .     A
C1606  H1610   1.081   .     S
C1606  N1613   1.365   .     A
C1606  C1019   1.413   1_565 S
C1607  H1611   1.082   .     S
C1607  N1614   1.365   .     A
C1608  N1613   1.365   .     A
C1608  H1612   1.082   .     S
C1608  C1017   1.413   1_565 S
C1615  H1618   1.109   .     S
C1615  H1617   1.108   .     S
C1615  H1616   1.107   .     S
C1619  H1620   1.107   .     S
C1619  H1621   1.110   .     S
C1619  H1622   1.109   .     S
O1623  C1624   1.415   .     S
C1624  H1625   1.115   .     S
C1624  H1627   1.102   .     S
C1624  H1626   1.109   .     S
O1628  C1629   1.407   .     S
C1629  H1631   1.109   .     S
C1629  H1632   1.095   .     S
C1629  H1630   1.113   .     S
O1633  C1634   1.414   .     S
C1634  H1637   1.109   .     S
C1634  H1635   1.112   .     S
C1634  H754    1.108   1_556 S
O1638  C1639   1.416   .     S
C1639  H1642   1.107   .     S
C1639  H1641   1.111   .     S
C1639  H1640   1.114   .     S
C1643  H1644   1.111   .     S
C1643  H1645   1.110   .     S
C1643  H1646   1.102   .     S
C1647  H1649   1.108   .     S
C1647  H1650   1.108   .     S
C1647  H1648   1.111   .     S
C1651  H1652   1.107   .     S
C1651  H1653   1.111   .     S
C1651  H1654   1.111   .     S
C1655  H1656   1.099   .     S
C1655  H1657   1.111   .     S
C1655  H1658   1.111   .     S
C1659  H1661   1.105   .     S
C1659  H1660   1.110   .     S
C1659  H1662   1.109   .     S
C1663  H1664   1.110   .     S
C1663  H1666   1.108   .     S
C1663  H1665   1.110   .     S
O1667  C1671   1.274   .     A
O1667  Zn1679  2.027   .     S
O1668  C1672   1.287   .     A
O1668  Zn1680  2.027   .     S
O1669  C1672   1.283   .     A
O1669  Zn1679  2.006   .     S
O1670  C1671   1.294   .     A
O1670  Zn1680  2.006   .     S
C1671  C1702   1.448   .     S
C1672  C1701   1.451   .     S
O1673  C1677   1.288   .     A
O1673  Zn1679  2.018   .     S
O1674  C1678   1.283   .     A
O1674  Zn1680  2.018   .     S
O1675  Zn1679  2.022   .     S
O1675  C1678   1.277   .     A
O1676  Zn1680  2.022   .     S
O1676  C1677   1.278   .     A
C1677  C1684   1.442   .     S
C1678  C1683   1.431   .     S
Zn1679 N1711   2.000   .     S
Zn1680 N1712   2.000   .     S
C1681  C1713   1.522   .     S
C1681  C1691   1.404   .     A
C1681  C1683   1.397   .     A
C1682  C1717   1.519   .     S
C1682  C1692   1.413   .     A
C1682  C1684   1.406   .     A
C1683  C1685   1.402   .     A
C1684  C1686   1.403   .     A
C1685  C1687   1.404   .     A
C1685  O1721   1.387   .     S
C1686  O1726   1.387   .     S
C1686  C1688   1.394   .     A
C1687  C1693   1.416   .     A
C1687  C1689   1.418   .     A
C1688  C1694   1.405   .     A
C1688  C1690   1.408   .     A
C1689  C1691   1.424   .     A
C1689  C808    1.405   1_556 S
C1690  C1692   1.415   .     A
C1691  C1696   1.415   .     A
C1692  C1695   1.410   .     A
C1693  O1731   1.383   .     S
C1693  C813    1.402   1_556 S
C1694  O1736   1.381   .     S
C1695  C1741   1.514   .     S
C1696  C1745   1.514   .     S
C1696  C812    1.390   1_556 S
C1697  C1749   1.521   .     S
C1697  C1702   1.408   .     A
C1698  C1701   1.422   .     A
C1698  C1753   1.527   .     S
C1698  C1504   1.386   1_655 S
C1699  C1757   1.526   .     S
C1699  C1701   1.426   .     A
C1699  C1501   1.401   1_655 S
C1700  C1702   1.413   .     A
C1700  C1761   1.526   .     S
C1703  H1707   1.081   .     S
C1703  N1712   1.365   .     A
C1704  H1708   1.081   .     S
C1704  N1711   1.365   .     A
C1704  C1117   1.413   1_565 S
C1705  H1709   1.082   .     S
C1705  N1712   1.365   .     A
C1706  N1711   1.365   .     A
C1706  H1710   1.082   .     S
C1706  C1115   1.413   1_565 S
C1713  H1716   1.109   .     S
C1713  H1715   1.108   .     S
C1713  H1714   1.107   .     S
C1717  H1718   1.107   .     S
C1717  H1719   1.110   .     S
C1717  H1720   1.109   .     S
O1721  C1722   1.415   .     S
C1722  H1723   1.115   .     S
C1722  H1725   1.102   .     S
C1722  H1724   1.109   .     S
O1726  C1727   1.407   .     S
C1727  H1729   1.109   .     S
C1727  H1730   1.095   .     S
C1727  H1728   1.113   .     S
O1731  C1732   1.414   .     S
C1732  H1735   1.109   .     S
C1732  H1733   1.112   .     S
C1732  H852    1.108   1_556 S
O1736  C1737   1.416   .     S
C1737  H1740   1.107   .     S
C1737  H1739   1.111   .     S
C1737  H1738   1.114   .     S
C1741  H1742   1.111   .     S
C1741  H1743   1.110   .     S
C1741  H1744   1.102   .     S
C1745  H1747   1.108   .     S
C1745  H1748   1.108   .     S
C1745  H1746   1.111   .     S
C1749  H1750   1.107   .     S
C1749  H1751   1.111   .     S
C1749  H1752   1.111   .     S
C1753  H1754   1.099   .     S
C1753  H1755   1.111   .     S
C1753  H1756   1.111   .     S
C1757  H1759   1.105   .     S
C1757  H1758   1.110   .     S
C1757  H1760   1.109   .     S
C1761  H1762   1.110   .     S
C1761  H1764   1.108   .     S
C1761  H1763   1.110   .     S
