data_str_m2_o1_o17_pcu_sym.203
_audit_creation_date              2020-01-03
_audit_creation_method            'Materials Studio'
_symmetry_space_group_name_H-M    'P1'
_symmetry_Int_Tables_number       1
_symmetry_cell_setting            triclinic
loop_
_symmetry_equiv_pos_as_xyz
  x,y,z
_cell_length_a                    32.6278
_cell_length_b                    28.9584
_cell_length_c                    30.1164
_cell_angle_alpha                 88.7993
_cell_angle_beta                  93.0550
_cell_angle_gamma                 88.5411
loop_
_atom_site_label
_atom_site_type_symbol
_atom_site_fract_x
_atom_site_fract_y
_atom_site_fract_z
_atom_site_U_iso_or_equiv
_atom_site_adp_type
_atom_site_occupancy
C1     C     0.08761   0.16734   0.25303   0.00000  Uiso   1.00
C2     C     0.24573   0.16599   0.24697   0.00000  Uiso   1.00
C3     C     0.13188   0.24212   0.01974   0.00000  Uiso   1.00
C4     C     0.20149   0.09123   0.48026   0.00000  Uiso   1.00
C5     C     0.02292   0.12766   0.26673   0.00000  Uiso   1.00
C6     C     0.31041   0.20568   0.23327   0.00000  Uiso   1.00
C7     C     0.31421   0.12425   0.25674   0.00000  Uiso   1.00
C8     C     0.01913   0.20909   0.24326   0.00000  Uiso   1.00
C9     C     0.29056   0.16455   0.24393   0.00000  Uiso   1.00
C10    C     0.04278   0.16878   0.25607   0.00000  Uiso   1.00
C11    C     0.14522   0.02568   0.21737   0.00000  Uiso   1.00
C12    C     0.18811   0.30765   0.28263   0.00000  Uiso   1.00
C13    C     0.18774   0.02311   0.28278   0.00000  Uiso   1.00
C14    C     0.14560   0.31022   0.21722   0.00000  Uiso   1.00
C15    C     0.16641   0.16698   0.16445   0.00000  Uiso   1.00
C16    C     0.16693   0.16635   0.33555   0.00000  Uiso   1.00
C17    C     0.18488   0.12933   0.40914   0.00000  Uiso   1.00
C18    C     0.14846   0.20401   0.09086   0.00000  Uiso   1.00
C19    C     0.16681   0.16623   0.38399   0.00000  Uiso   1.00
C20    C     0.16653   0.16710   0.11601   0.00000  Uiso   1.00
C21    C     0.14925   0.20395   0.40513   0.00000  Uiso   1.00
C22    C     0.18410   0.12939   0.09487   0.00000  Uiso   1.00
C23    C     0.14919   0.20497   0.45152   0.00000  Uiso   1.00
C24    C     0.18417   0.12838   0.04848   0.00000  Uiso   1.00
C25    C     0.16668   0.16681   0.47671   0.00000  Uiso   1.00
C26    C     0.16667   0.16653   0.02329   0.00000  Uiso   1.00
C27    C     0.18442   0.12896   0.45531   0.00000  Uiso   1.00
C28    C     0.14893   0.20438   0.04469   0.00000  Uiso   1.00
C29    C     0.13209   0.24290   0.47345   0.00000  Uiso   1.00
C30    C     0.20128   0.09045   0.02655   0.00000  Uiso   1.00
Cu31   Cu    0.16667   0.21355   0.25000   0.00000  Uiso   1.00
Cu32   Cu    0.16667   0.11978   0.25000   0.00000  Uiso   1.00
H33    H     0.20024   0.10142   0.39302   0.00000  Uiso   1.00
H34    H     0.13309   0.23192   0.10698   0.00000  Uiso   1.00
H35    H     0.13537   0.23209   0.38499   0.00000  Uiso   1.00
H36    H     0.19799   0.10125   0.11502   0.00000  Uiso   1.00
H37    H     0.11858   0.27135   0.03631   0.00000  Uiso   1.00
H38    H     0.21480   0.06201   0.46369   0.00000  Uiso   1.00
N39    N     0.16667   0.28402   0.25000   0.00000  Uiso   1.00
N40    N     0.16667   0.04931   0.25000   0.00000  Uiso   1.00
O41    O     0.10655   0.20625   0.24999   0.00000  Uiso   1.00
O42    O     0.22679   0.12709   0.25000   0.00000  Uiso   1.00
O43    O     0.22679   0.20625   0.25000   0.00000  Uiso   1.00
O44    O     0.10655   0.12709   0.24999   0.00000  Uiso   1.00
O45    O     0.16666   0.20627   0.18513   0.00000  Uiso   1.00
O46    O     0.16668   0.12707   0.31487   0.00000  Uiso   1.00
O47    O     0.16668   0.20627   0.31487   0.00000  Uiso   1.00
O48    O     0.16666   0.12707   0.18513   0.00000  Uiso   1.00
I49    I     0.10673   0.30333   0.43983   0.00000  Uiso   1.00
I50    I     0.22672   0.03007   0.06017   0.00000  Uiso   1.00
I51    I     0.05381   0.07384   0.30752   0.00000  Uiso   1.00
I52    I     0.27952   0.25949   0.19248   0.00000  Uiso   1.00
I53    I     0.29139   0.05552   0.25134   0.00000  Uiso   1.00
I54    I     0.04194   0.27781   0.24864   0.00000  Uiso   1.00
N55    N     0.12265   0.04887   0.18099   0.00000  Uiso   1.00
H56    H     0.10522   0.07675   0.19130   0.00000  Uiso   1.00
H57    H     0.14262   0.05794   0.15651   0.00000  Uiso   1.00
N58    N     0.21069   0.28446   0.31900   0.00000  Uiso   1.00
H59    H     0.22813   0.25660   0.30869   0.00000  Uiso   1.00
H60    H     0.19073   0.27540   0.34348   0.00000  Uiso   1.00
N61    N     0.20740   0.04369   0.32059   0.00000  Uiso   1.00
H62    H     0.22273   0.07316   0.31150   0.00000  Uiso   1.00
H63    H     0.18461   0.05094   0.34258   0.00000  Uiso   1.00
N64    N     0.12594   0.28964   0.17941   0.00000  Uiso   1.00
H65    H     0.11061   0.26018   0.18849   0.00000  Uiso   1.00
H66    H     0.14874   0.28239   0.15742   0.00000  Uiso   1.00
C67    C     0.42094   0.16734   0.25303   0.00000  Uiso   1.00
C68    C     0.57906   0.16599   0.24697   0.00000  Uiso   1.00
C69    C     0.46521   0.24212   0.01974   0.00000  Uiso   1.00
C70    C     0.53482   0.09123   0.48026   0.00000  Uiso   1.00
C71    C     0.35626   0.12766   0.26673   0.00000  Uiso   1.00
C72    C     0.64374   0.20568   0.23327   0.00000  Uiso   1.00
C73    C     0.64754   0.12425   0.25674   0.00000  Uiso   1.00
C74    C     0.35246   0.20909   0.24326   0.00000  Uiso   1.00
C75    C     0.62389   0.16455   0.24393   0.00000  Uiso   1.00
C76    C     0.37611   0.16878   0.25607   0.00000  Uiso   1.00
C77    C     0.47855   0.02568   0.21737   0.00000  Uiso   1.00
C78    C     0.52145   0.30765   0.28263   0.00000  Uiso   1.00
C79    C     0.52107   0.02311   0.28278   0.00000  Uiso   1.00
C80    C     0.47893   0.31022   0.21722   0.00000  Uiso   1.00
C81    C     0.49974   0.16698   0.16445   0.00000  Uiso   1.00
C82    C     0.50026   0.16635   0.33555   0.00000  Uiso   1.00
C83    C     0.51821   0.12933   0.40914   0.00000  Uiso   1.00
C84    C     0.48179   0.20401   0.09086   0.00000  Uiso   1.00
C85    C     0.50015   0.16623   0.38399   0.00000  Uiso   1.00
C86    C     0.49986   0.16710   0.11601   0.00000  Uiso   1.00
C87    C     0.48258   0.20395   0.40513   0.00000  Uiso   1.00
C88    C     0.51744   0.12939   0.09487   0.00000  Uiso   1.00
C89    C     0.48252   0.20497   0.45152   0.00000  Uiso   1.00
C90    C     0.51750   0.12838   0.04848   0.00000  Uiso   1.00
C91    C     0.50001   0.16681   0.47671   0.00000  Uiso   1.00
C92    C     0.50000   0.16653   0.02329   0.00000  Uiso   1.00
C93    C     0.51775   0.12896   0.45531   0.00000  Uiso   1.00
C94    C     0.48226   0.20438   0.04469   0.00000  Uiso   1.00
C95    C     0.46543   0.24290   0.47345   0.00000  Uiso   1.00
C96    C     0.53461   0.09045   0.02655   0.00000  Uiso   1.00
Cu97   Cu    0.50000   0.21355   0.25000   0.00000  Uiso   1.00
Cu98   Cu    0.50000   0.11978   0.25000   0.00000  Uiso   1.00
H99    H     0.53358   0.10142   0.39302   0.00000  Uiso   1.00
H100   H     0.46643   0.23192   0.10698   0.00000  Uiso   1.00
H101   H     0.46870   0.23209   0.38499   0.00000  Uiso   1.00
H102   H     0.53132   0.10125   0.11502   0.00000  Uiso   1.00
H103   H     0.45191   0.27135   0.03631   0.00000  Uiso   1.00
H104   H     0.54813   0.06201   0.46369   0.00000  Uiso   1.00
N105   N     0.50000   0.28402   0.25000   0.00000  Uiso   1.00
N106   N     0.50000   0.04931   0.25000   0.00000  Uiso   1.00
O107   O     0.43988   0.20625   0.24999   0.00000  Uiso   1.00
O108   O     0.56012   0.12709   0.25000   0.00000  Uiso   1.00
O109   O     0.56012   0.20625   0.25000   0.00000  Uiso   1.00
O110   O     0.43988   0.12709   0.24999   0.00000  Uiso   1.00
O111   O     0.49999   0.20627   0.18513   0.00000  Uiso   1.00
O112   O     0.50001   0.12707   0.31487   0.00000  Uiso   1.00
O113   O     0.50001   0.20627   0.31487   0.00000  Uiso   1.00
O114   O     0.49999   0.12707   0.18513   0.00000  Uiso   1.00
I115   I     0.44006   0.30333   0.43983   0.00000  Uiso   1.00
I116   I     0.56005   0.03007   0.06017   0.00000  Uiso   1.00
I117   I     0.38714   0.07384   0.30752   0.00000  Uiso   1.00
I118   I     0.61286   0.25949   0.19248   0.00000  Uiso   1.00
I119   I     0.62473   0.05552   0.25134   0.00000  Uiso   1.00
I120   I     0.37527   0.27781   0.24864   0.00000  Uiso   1.00
N121   N     0.45598   0.04887   0.18099   0.00000  Uiso   1.00
H122   H     0.43855   0.07675   0.19130   0.00000  Uiso   1.00
H123   H     0.47596   0.05794   0.15651   0.00000  Uiso   1.00
N124   N     0.54403   0.28446   0.31900   0.00000  Uiso   1.00
H125   H     0.56147   0.25660   0.30869   0.00000  Uiso   1.00
H126   H     0.52406   0.27540   0.34348   0.00000  Uiso   1.00
N127   N     0.54073   0.04369   0.32059   0.00000  Uiso   1.00
H128   H     0.55606   0.07316   0.31150   0.00000  Uiso   1.00
H129   H     0.51794   0.05094   0.34258   0.00000  Uiso   1.00
N130   N     0.45928   0.28964   0.17941   0.00000  Uiso   1.00
H131   H     0.44394   0.26018   0.18849   0.00000  Uiso   1.00
H132   H     0.48207   0.28239   0.15742   0.00000  Uiso   1.00
C133   C     0.75427   0.16734   0.25303   0.00000  Uiso   1.00
C134   C     0.91239   0.16599   0.24697   0.00000  Uiso   1.00
C135   C     0.79854   0.24212   0.01974   0.00000  Uiso   1.00
C136   C     0.86815   0.09123   0.48026   0.00000  Uiso   1.00
C137   C     0.68959   0.12766   0.26673   0.00000  Uiso   1.00
C138   C     0.97708   0.20568   0.23327   0.00000  Uiso   1.00
C139   C     0.98087   0.12425   0.25674   0.00000  Uiso   1.00
C140   C     0.68579   0.20909   0.24326   0.00000  Uiso   1.00
C141   C     0.95722   0.16455   0.24393   0.00000  Uiso   1.00
C142   C     0.70944   0.16878   0.25607   0.00000  Uiso   1.00
C143   C     0.81189   0.02568   0.21737   0.00000  Uiso   1.00
C144   C     0.85478   0.30765   0.28263   0.00000  Uiso   1.00
C145   C     0.85440   0.02311   0.28278   0.00000  Uiso   1.00
C146   C     0.81227   0.31022   0.21722   0.00000  Uiso   1.00
C147   C     0.83307   0.16698   0.16445   0.00000  Uiso   1.00
C148   C     0.83359   0.16635   0.33555   0.00000  Uiso   1.00
C149   C     0.85155   0.12933   0.40914   0.00000  Uiso   1.00
C150   C     0.81513   0.20401   0.09086   0.00000  Uiso   1.00
C151   C     0.83348   0.16623   0.38399   0.00000  Uiso   1.00
C152   C     0.83319   0.16710   0.11601   0.00000  Uiso   1.00
C153   C     0.81592   0.20395   0.40513   0.00000  Uiso   1.00
C154   C     0.85077   0.12939   0.09487   0.00000  Uiso   1.00
C155   C     0.81585   0.20497   0.45152   0.00000  Uiso   1.00
C156   C     0.85084   0.12838   0.04848   0.00000  Uiso   1.00
C157   C     0.83334   0.16681   0.47671   0.00000  Uiso   1.00
C158   C     0.83334   0.16653   0.02329   0.00000  Uiso   1.00
C159   C     0.85109   0.12896   0.45531   0.00000  Uiso   1.00
C160   C     0.81559   0.20438   0.04469   0.00000  Uiso   1.00
C161   C     0.79876   0.24290   0.47345   0.00000  Uiso   1.00
C162   C     0.86795   0.09045   0.02655   0.00000  Uiso   1.00
Cu163  Cu    0.83333   0.21355   0.25000   0.00000  Uiso   1.00
Cu164  Cu    0.83333   0.11978   0.25000   0.00000  Uiso   1.00
H165   H     0.86691   0.10142   0.39302   0.00000  Uiso   1.00
H166   H     0.79976   0.23192   0.10698   0.00000  Uiso   1.00
H167   H     0.80203   0.23209   0.38499   0.00000  Uiso   1.00
H168   H     0.86465   0.10125   0.11502   0.00000  Uiso   1.00
H169   H     0.78524   0.27135   0.03631   0.00000  Uiso   1.00
H170   H     0.88146   0.06201   0.46369   0.00000  Uiso   1.00
N171   N     0.83333   0.28402   0.25000   0.00000  Uiso   1.00
N172   N     0.83333   0.04931   0.25000   0.00000  Uiso   1.00
O173   O     0.77321   0.20625   0.24999   0.00000  Uiso   1.00
O174   O     0.89345   0.12709   0.25000   0.00000  Uiso   1.00
O175   O     0.89345   0.20625   0.25000   0.00000  Uiso   1.00
O176   O     0.77321   0.12709   0.24999   0.00000  Uiso   1.00
O177   O     0.83332   0.20627   0.18513   0.00000  Uiso   1.00
O178   O     0.83334   0.12707   0.31487   0.00000  Uiso   1.00
O179   O     0.83334   0.20627   0.31487   0.00000  Uiso   1.00
O180   O     0.83332   0.12707   0.18513   0.00000  Uiso   1.00
I181   I     0.77340   0.30333   0.43983   0.00000  Uiso   1.00
I182   I     0.89339   0.03007   0.06017   0.00000  Uiso   1.00
I183   I     0.72048   0.07384   0.30752   0.00000  Uiso   1.00
I184   I     0.94619   0.25949   0.19248   0.00000  Uiso   1.00
I185   I     0.95806   0.05552   0.25134   0.00000  Uiso   1.00
I186   I     0.70861   0.27781   0.24864   0.00000  Uiso   1.00
N187   N     0.78931   0.04887   0.18099   0.00000  Uiso   1.00
H188   H     0.77189   0.07675   0.19130   0.00000  Uiso   1.00
H189   H     0.80929   0.05794   0.15651   0.00000  Uiso   1.00
N190   N     0.87736   0.28446   0.31900   0.00000  Uiso   1.00
H191   H     0.89480   0.25660   0.30869   0.00000  Uiso   1.00
H192   H     0.85740   0.27540   0.34348   0.00000  Uiso   1.00
N193   N     0.87406   0.04369   0.32059   0.00000  Uiso   1.00
H194   H     0.88939   0.07316   0.31150   0.00000  Uiso   1.00
H195   H     0.85128   0.05094   0.34258   0.00000  Uiso   1.00
N196   N     0.79261   0.28964   0.17941   0.00000  Uiso   1.00
H197   H     0.77727   0.26018   0.18849   0.00000  Uiso   1.00
H198   H     0.81541   0.28239   0.15742   0.00000  Uiso   1.00
C199   C     0.08761   0.50068   0.25303   0.00000  Uiso   1.00
C200   C     0.24573   0.49932   0.24697   0.00000  Uiso   1.00
C201   C     0.13188   0.57545   0.01974   0.00000  Uiso   1.00
C202   C     0.20149   0.42456   0.48026   0.00000  Uiso   1.00
C203   C     0.02292   0.46099   0.26673   0.00000  Uiso   1.00
C204   C     0.31041   0.53901   0.23327   0.00000  Uiso   1.00
C205   C     0.31421   0.45758   0.25674   0.00000  Uiso   1.00
C206   C     0.01913   0.54242   0.24326   0.00000  Uiso   1.00
C207   C     0.29056   0.49789   0.24393   0.00000  Uiso   1.00
C208   C     0.04278   0.50211   0.25607   0.00000  Uiso   1.00
C209   C     0.14522   0.35901   0.21737   0.00000  Uiso   1.00
C210   C     0.18811   0.64099   0.28263   0.00000  Uiso   1.00
C211   C     0.18774   0.35644   0.28278   0.00000  Uiso   1.00
C212   C     0.14560   0.64356   0.21722   0.00000  Uiso   1.00
C213   C     0.16641   0.50031   0.16445   0.00000  Uiso   1.00
C214   C     0.16693   0.49969   0.33555   0.00000  Uiso   1.00
C215   C     0.18488   0.46266   0.40914   0.00000  Uiso   1.00
C216   C     0.14846   0.53734   0.09086   0.00000  Uiso   1.00
C217   C     0.16681   0.49957   0.38399   0.00000  Uiso   1.00
C218   C     0.16653   0.50043   0.11601   0.00000  Uiso   1.00
C219   C     0.14925   0.53728   0.40513   0.00000  Uiso   1.00
C220   C     0.18410   0.46273   0.09487   0.00000  Uiso   1.00
C221   C     0.14919   0.53830   0.45152   0.00000  Uiso   1.00
C222   C     0.18417   0.46171   0.04848   0.00000  Uiso   1.00
C223   C     0.16668   0.50014   0.47671   0.00000  Uiso   1.00
C224   C     0.16667   0.49987   0.02329   0.00000  Uiso   1.00
C225   C     0.18442   0.46230   0.45531   0.00000  Uiso   1.00
C226   C     0.14893   0.53771   0.04469   0.00000  Uiso   1.00
C227   C     0.13209   0.57623   0.47345   0.00000  Uiso   1.00
C228   C     0.20128   0.42379   0.02655   0.00000  Uiso   1.00
Cu229  Cu    0.16667   0.54689   0.25000   0.00000  Uiso   1.00
Cu230  Cu    0.16667   0.45311   0.25000   0.00000  Uiso   1.00
H231   H     0.20024   0.43475   0.39302   0.00000  Uiso   1.00
H232   H     0.13309   0.56525   0.10698   0.00000  Uiso   1.00
H233   H     0.13537   0.56542   0.38499   0.00000  Uiso   1.00
H234   H     0.19799   0.43459   0.11502   0.00000  Uiso   1.00
H235   H     0.11858   0.60468   0.03631   0.00000  Uiso   1.00
H236   H     0.21480   0.39534   0.46369   0.00000  Uiso   1.00
N237   N     0.16667   0.61736   0.25000   0.00000  Uiso   1.00
N238   N     0.16667   0.38264   0.25000   0.00000  Uiso   1.00
O239   O     0.10655   0.53958   0.24999   0.00000  Uiso   1.00
O240   O     0.22679   0.46042   0.25000   0.00000  Uiso   1.00
O241   O     0.22679   0.53958   0.25000   0.00000  Uiso   1.00
O242   O     0.10655   0.46042   0.24999   0.00000  Uiso   1.00
O243   O     0.16666   0.53960   0.18513   0.00000  Uiso   1.00
O244   O     0.16668   0.46040   0.31487   0.00000  Uiso   1.00
O245   O     0.16668   0.53960   0.31487   0.00000  Uiso   1.00
O246   O     0.16666   0.46040   0.18513   0.00000  Uiso   1.00
I247   I     0.10673   0.63666   0.43983   0.00000  Uiso   1.00
I248   I     0.22672   0.36340   0.06017   0.00000  Uiso   1.00
I249   I     0.05381   0.40718   0.30752   0.00000  Uiso   1.00
I250   I     0.27952   0.59282   0.19248   0.00000  Uiso   1.00
I251   I     0.29139   0.38885   0.25134   0.00000  Uiso   1.00
I252   I     0.04194   0.61115   0.24864   0.00000  Uiso   1.00
N253   N     0.12265   0.38220   0.18099   0.00000  Uiso   1.00
H254   H     0.10522   0.41008   0.19130   0.00000  Uiso   1.00
H255   H     0.14262   0.39127   0.15651   0.00000  Uiso   1.00
N256   N     0.21069   0.61780   0.31900   0.00000  Uiso   1.00
H257   H     0.22813   0.58993   0.30869   0.00000  Uiso   1.00
H258   H     0.19073   0.60873   0.34348   0.00000  Uiso   1.00
N259   N     0.20740   0.37702   0.32059   0.00000  Uiso   1.00
H260   H     0.22273   0.40649   0.31150   0.00000  Uiso   1.00
H261   H     0.18461   0.38428   0.34258   0.00000  Uiso   1.00
N262   N     0.12594   0.62298   0.17941   0.00000  Uiso   1.00
H263   H     0.11061   0.59351   0.18849   0.00000  Uiso   1.00
H264   H     0.14874   0.61572   0.15742   0.00000  Uiso   1.00
C265   C     0.42094   0.50068   0.25303   0.00000  Uiso   1.00
C266   C     0.57906   0.49932   0.24697   0.00000  Uiso   1.00
C267   C     0.46521   0.57545   0.01974   0.00000  Uiso   1.00
C268   C     0.53482   0.42456   0.48026   0.00000  Uiso   1.00
C269   C     0.35626   0.46099   0.26673   0.00000  Uiso   1.00
C270   C     0.64374   0.53901   0.23327   0.00000  Uiso   1.00
C271   C     0.64754   0.45758   0.25674   0.00000  Uiso   1.00
C272   C     0.35246   0.54242   0.24326   0.00000  Uiso   1.00
C273   C     0.62389   0.49789   0.24393   0.00000  Uiso   1.00
C274   C     0.37611   0.50211   0.25607   0.00000  Uiso   1.00
C275   C     0.47855   0.35901   0.21737   0.00000  Uiso   1.00
C276   C     0.52145   0.64099   0.28263   0.00000  Uiso   1.00
C277   C     0.52107   0.35644   0.28278   0.00000  Uiso   1.00
C278   C     0.47893   0.64356   0.21722   0.00000  Uiso   1.00
C279   C     0.49974   0.50031   0.16445   0.00000  Uiso   1.00
C280   C     0.50026   0.49969   0.33555   0.00000  Uiso   1.00
C281   C     0.51821   0.46266   0.40914   0.00000  Uiso   1.00
C282   C     0.48179   0.53734   0.09086   0.00000  Uiso   1.00
C283   C     0.50015   0.49957   0.38399   0.00000  Uiso   1.00
C284   C     0.49986   0.50043   0.11601   0.00000  Uiso   1.00
C285   C     0.48258   0.53728   0.40513   0.00000  Uiso   1.00
C286   C     0.51744   0.46273   0.09487   0.00000  Uiso   1.00
C287   C     0.48252   0.53830   0.45152   0.00000  Uiso   1.00
C288   C     0.51750   0.46171   0.04848   0.00000  Uiso   1.00
C289   C     0.50001   0.50014   0.47671   0.00000  Uiso   1.00
C290   C     0.50000   0.49987   0.02329   0.00000  Uiso   1.00
C291   C     0.51775   0.46230   0.45531   0.00000  Uiso   1.00
C292   C     0.48226   0.53771   0.04469   0.00000  Uiso   1.00
C293   C     0.46543   0.57623   0.47345   0.00000  Uiso   1.00
C294   C     0.53461   0.42379   0.02655   0.00000  Uiso   1.00
Cu295  Cu    0.50000   0.54689   0.25000   0.00000  Uiso   1.00
Cu296  Cu    0.50000   0.45311   0.25000   0.00000  Uiso   1.00
H297   H     0.53358   0.43475   0.39302   0.00000  Uiso   1.00
H298   H     0.46643   0.56525   0.10698   0.00000  Uiso   1.00
H299   H     0.46870   0.56542   0.38499   0.00000  Uiso   1.00
H300   H     0.53132   0.43459   0.11502   0.00000  Uiso   1.00
H301   H     0.45191   0.60468   0.03631   0.00000  Uiso   1.00
H302   H     0.54813   0.39534   0.46369   0.00000  Uiso   1.00
N303   N     0.50000   0.61736   0.25000   0.00000  Uiso   1.00
N304   N     0.50000   0.38264   0.25000   0.00000  Uiso   1.00
O305   O     0.43988   0.53958   0.24999   0.00000  Uiso   1.00
O306   O     0.56012   0.46042   0.25000   0.00000  Uiso   1.00
O307   O     0.56012   0.53958   0.25000   0.00000  Uiso   1.00
O308   O     0.43988   0.46042   0.24999   0.00000  Uiso   1.00
O309   O     0.49999   0.53960   0.18513   0.00000  Uiso   1.00
O310   O     0.50001   0.46040   0.31487   0.00000  Uiso   1.00
O311   O     0.50001   0.53960   0.31487   0.00000  Uiso   1.00
O312   O     0.49999   0.46040   0.18513   0.00000  Uiso   1.00
I313   I     0.44006   0.63666   0.43983   0.00000  Uiso   1.00
I314   I     0.56005   0.36340   0.06017   0.00000  Uiso   1.00
I315   I     0.38714   0.40718   0.30752   0.00000  Uiso   1.00
I316   I     0.61286   0.59282   0.19248   0.00000  Uiso   1.00
I317   I     0.62473   0.38885   0.25134   0.00000  Uiso   1.00
I318   I     0.37527   0.61115   0.24864   0.00000  Uiso   1.00
N319   N     0.45598   0.38220   0.18099   0.00000  Uiso   1.00
H320   H     0.43855   0.41008   0.19130   0.00000  Uiso   1.00
H321   H     0.47596   0.39127   0.15651   0.00000  Uiso   1.00
N322   N     0.54403   0.61780   0.31900   0.00000  Uiso   1.00
H323   H     0.56147   0.58993   0.30869   0.00000  Uiso   1.00
H324   H     0.52406   0.60873   0.34348   0.00000  Uiso   1.00
N325   N     0.54073   0.37702   0.32059   0.00000  Uiso   1.00
H326   H     0.55606   0.40649   0.31150   0.00000  Uiso   1.00
H327   H     0.51794   0.38428   0.34258   0.00000  Uiso   1.00
N328   N     0.45928   0.62298   0.17941   0.00000  Uiso   1.00
H329   H     0.44394   0.59351   0.18849   0.00000  Uiso   1.00
H330   H     0.48207   0.61572   0.15742   0.00000  Uiso   1.00
C331   C     0.75427   0.50068   0.25303   0.00000  Uiso   1.00
C332   C     0.91239   0.49932   0.24697   0.00000  Uiso   1.00
C333   C     0.79854   0.57545   0.01974   0.00000  Uiso   1.00
C334   C     0.86815   0.42456   0.48026   0.00000  Uiso   1.00
C335   C     0.68959   0.46099   0.26673   0.00000  Uiso   1.00
C336   C     0.97708   0.53901   0.23327   0.00000  Uiso   1.00
C337   C     0.98087   0.45758   0.25674   0.00000  Uiso   1.00
C338   C     0.68579   0.54242   0.24326   0.00000  Uiso   1.00
C339   C     0.95722   0.49789   0.24393   0.00000  Uiso   1.00
C340   C     0.70944   0.50211   0.25607   0.00000  Uiso   1.00
C341   C     0.81189   0.35901   0.21737   0.00000  Uiso   1.00
C342   C     0.85478   0.64099   0.28263   0.00000  Uiso   1.00
C343   C     0.85440   0.35644   0.28278   0.00000  Uiso   1.00
C344   C     0.81227   0.64356   0.21722   0.00000  Uiso   1.00
C345   C     0.83307   0.50031   0.16445   0.00000  Uiso   1.00
C346   C     0.83359   0.49969   0.33555   0.00000  Uiso   1.00
C347   C     0.85155   0.46266   0.40914   0.00000  Uiso   1.00
C348   C     0.81513   0.53734   0.09086   0.00000  Uiso   1.00
C349   C     0.83348   0.49957   0.38399   0.00000  Uiso   1.00
C350   C     0.83319   0.50043   0.11601   0.00000  Uiso   1.00
C351   C     0.81592   0.53728   0.40513   0.00000  Uiso   1.00
C352   C     0.85077   0.46273   0.09487   0.00000  Uiso   1.00
C353   C     0.81585   0.53830   0.45152   0.00000  Uiso   1.00
C354   C     0.85084   0.46171   0.04848   0.00000  Uiso   1.00
C355   C     0.83334   0.50014   0.47671   0.00000  Uiso   1.00
C356   C     0.83334   0.49987   0.02329   0.00000  Uiso   1.00
C357   C     0.85109   0.46230   0.45531   0.00000  Uiso   1.00
C358   C     0.81559   0.53771   0.04469   0.00000  Uiso   1.00
C359   C     0.79876   0.57623   0.47345   0.00000  Uiso   1.00
C360   C     0.86795   0.42379   0.02655   0.00000  Uiso   1.00
Cu361  Cu    0.83333   0.54689   0.25000   0.00000  Uiso   1.00
Cu362  Cu    0.83333   0.45311   0.25000   0.00000  Uiso   1.00
H363   H     0.86691   0.43475   0.39302   0.00000  Uiso   1.00
H364   H     0.79976   0.56525   0.10698   0.00000  Uiso   1.00
H365   H     0.80203   0.56542   0.38499   0.00000  Uiso   1.00
H366   H     0.86465   0.43459   0.11502   0.00000  Uiso   1.00
H367   H     0.78524   0.60468   0.03631   0.00000  Uiso   1.00
H368   H     0.88146   0.39534   0.46369   0.00000  Uiso   1.00
N369   N     0.83333   0.61736   0.25000   0.00000  Uiso   1.00
N370   N     0.83333   0.38264   0.25000   0.00000  Uiso   1.00
O371   O     0.77321   0.53958   0.24999   0.00000  Uiso   1.00
O372   O     0.89345   0.46042   0.25000   0.00000  Uiso   1.00
O373   O     0.89345   0.53958   0.25000   0.00000  Uiso   1.00
O374   O     0.77321   0.46042   0.24999   0.00000  Uiso   1.00
O375   O     0.83332   0.53960   0.18513   0.00000  Uiso   1.00
O376   O     0.83334   0.46040   0.31487   0.00000  Uiso   1.00
O377   O     0.83334   0.53960   0.31487   0.00000  Uiso   1.00
O378   O     0.83332   0.46040   0.18513   0.00000  Uiso   1.00
I379   I     0.77340   0.63666   0.43983   0.00000  Uiso   1.00
I380   I     0.89339   0.36340   0.06017   0.00000  Uiso   1.00
I381   I     0.72048   0.40718   0.30752   0.00000  Uiso   1.00
I382   I     0.94619   0.59282   0.19248   0.00000  Uiso   1.00
I383   I     0.95806   0.38885   0.25134   0.00000  Uiso   1.00
I384   I     0.70861   0.61115   0.24864   0.00000  Uiso   1.00
N385   N     0.78931   0.38220   0.18099   0.00000  Uiso   1.00
H386   H     0.77189   0.41008   0.19130   0.00000  Uiso   1.00
H387   H     0.80929   0.39127   0.15651   0.00000  Uiso   1.00
N388   N     0.87736   0.61780   0.31900   0.00000  Uiso   1.00
H389   H     0.89480   0.58993   0.30869   0.00000  Uiso   1.00
H390   H     0.85740   0.60873   0.34348   0.00000  Uiso   1.00
N391   N     0.87406   0.37702   0.32059   0.00000  Uiso   1.00
H392   H     0.88939   0.40649   0.31150   0.00000  Uiso   1.00
H393   H     0.85128   0.38428   0.34258   0.00000  Uiso   1.00
N394   N     0.79261   0.62298   0.17941   0.00000  Uiso   1.00
H395   H     0.77727   0.59351   0.18849   0.00000  Uiso   1.00
H396   H     0.81541   0.61572   0.15742   0.00000  Uiso   1.00
C397   C     0.08761   0.83401   0.25303   0.00000  Uiso   1.00
C398   C     0.24573   0.83266   0.24697   0.00000  Uiso   1.00
C399   C     0.13188   0.90879   0.01974   0.00000  Uiso   1.00
C400   C     0.20149   0.75790   0.48026   0.00000  Uiso   1.00
C401   C     0.02292   0.79432   0.26673   0.00000  Uiso   1.00
C402   C     0.31041   0.87234   0.23327   0.00000  Uiso   1.00
C403   C     0.31421   0.79091   0.25674   0.00000  Uiso   1.00
C404   C     0.01913   0.87575   0.24326   0.00000  Uiso   1.00
C405   C     0.29056   0.83122   0.24393   0.00000  Uiso   1.00
C406   C     0.04278   0.83545   0.25607   0.00000  Uiso   1.00
C407   C     0.14522   0.69235   0.21737   0.00000  Uiso   1.00
C408   C     0.18811   0.97432   0.28263   0.00000  Uiso   1.00
C409   C     0.18774   0.68978   0.28278   0.00000  Uiso   1.00
C410   C     0.14560   0.97689   0.21722   0.00000  Uiso   1.00
C411   C     0.16641   0.83365   0.16445   0.00000  Uiso   1.00
C412   C     0.16693   0.83302   0.33555   0.00000  Uiso   1.00
C413   C     0.18488   0.79600   0.40914   0.00000  Uiso   1.00
C414   C     0.14846   0.87067   0.09086   0.00000  Uiso   1.00
C415   C     0.16681   0.83290   0.38399   0.00000  Uiso   1.00
C416   C     0.16653   0.83377   0.11601   0.00000  Uiso   1.00
C417   C     0.14925   0.87062   0.40513   0.00000  Uiso   1.00
C418   C     0.18410   0.79606   0.09487   0.00000  Uiso   1.00
C419   C     0.14919   0.87163   0.45152   0.00000  Uiso   1.00
C420   C     0.18417   0.79505   0.04848   0.00000  Uiso   1.00
C421   C     0.16668   0.83348   0.47671   0.00000  Uiso   1.00
C422   C     0.16667   0.83320   0.02329   0.00000  Uiso   1.00
C423   C     0.18442   0.79563   0.45531   0.00000  Uiso   1.00
C424   C     0.14893   0.87104   0.04469   0.00000  Uiso   1.00
C425   C     0.13209   0.90957   0.47345   0.00000  Uiso   1.00
C426   C     0.20128   0.75712   0.02655   0.00000  Uiso   1.00
Cu427  Cu    0.16667   0.88022   0.25000   0.00000  Uiso   1.00
Cu428  Cu    0.16667   0.78645   0.25000   0.00000  Uiso   1.00
H429   H     0.20024   0.76808   0.39302   0.00000  Uiso   1.00
H430   H     0.13309   0.89859   0.10698   0.00000  Uiso   1.00
H431   H     0.13537   0.89876   0.38499   0.00000  Uiso   1.00
H432   H     0.19799   0.76792   0.11502   0.00000  Uiso   1.00
H433   H     0.11858   0.93802   0.03631   0.00000  Uiso   1.00
H434   H     0.21480   0.72867   0.46369   0.00000  Uiso   1.00
N435   N     0.16667   0.95069   0.25000   0.00000  Uiso   1.00
N436   N     0.16667   0.71598   0.25000   0.00000  Uiso   1.00
O437   O     0.10655   0.87291   0.24999   0.00000  Uiso   1.00
O438   O     0.22679   0.79375   0.25000   0.00000  Uiso   1.00
O439   O     0.22679   0.87291   0.25000   0.00000  Uiso   1.00
O440   O     0.10655   0.79375   0.24999   0.00000  Uiso   1.00
O441   O     0.16666   0.87293   0.18513   0.00000  Uiso   1.00
O442   O     0.16668   0.79373   0.31487   0.00000  Uiso   1.00
O443   O     0.16668   0.87293   0.31487   0.00000  Uiso   1.00
O444   O     0.16666   0.79373   0.18513   0.00000  Uiso   1.00
I445   I     0.10673   0.96999   0.43983   0.00000  Uiso   1.00
I446   I     0.22672   0.69673   0.06017   0.00000  Uiso   1.00
I447   I     0.05381   0.74051   0.30752   0.00000  Uiso   1.00
I448   I     0.27952   0.92616   0.19248   0.00000  Uiso   1.00
I449   I     0.29139   0.72219   0.25134   0.00000  Uiso   1.00
I450   I     0.04194   0.94448   0.24864   0.00000  Uiso   1.00
N451   N     0.12265   0.71554   0.18099   0.00000  Uiso   1.00
H452   H     0.10522   0.74342   0.19130   0.00000  Uiso   1.00
H453   H     0.14262   0.72460   0.15651   0.00000  Uiso   1.00
N454   N     0.21069   0.95113   0.31900   0.00000  Uiso   1.00
H455   H     0.22813   0.92326   0.30869   0.00000  Uiso   1.00
H456   H     0.19073   0.94207   0.34348   0.00000  Uiso   1.00
N457   N     0.20740   0.71036   0.32059   0.00000  Uiso   1.00
H458   H     0.22273   0.73983   0.31150   0.00000  Uiso   1.00
H459   H     0.18461   0.71761   0.34258   0.00000  Uiso   1.00
N460   N     0.12594   0.95631   0.17941   0.00000  Uiso   1.00
H461   H     0.11061   0.92685   0.18849   0.00000  Uiso   1.00
H462   H     0.14874   0.94906   0.15742   0.00000  Uiso   1.00
C463   C     0.42094   0.83401   0.25303   0.00000  Uiso   1.00
C464   C     0.57906   0.83266   0.24697   0.00000  Uiso   1.00
C465   C     0.46521   0.90879   0.01974   0.00000  Uiso   1.00
C466   C     0.53482   0.75790   0.48026   0.00000  Uiso   1.00
C467   C     0.35626   0.79432   0.26673   0.00000  Uiso   1.00
C468   C     0.64374   0.87234   0.23327   0.00000  Uiso   1.00
C469   C     0.64754   0.79091   0.25674   0.00000  Uiso   1.00
C470   C     0.35246   0.87575   0.24326   0.00000  Uiso   1.00
C471   C     0.62389   0.83122   0.24393   0.00000  Uiso   1.00
C472   C     0.37611   0.83545   0.25607   0.00000  Uiso   1.00
C473   C     0.47855   0.69235   0.21737   0.00000  Uiso   1.00
C474   C     0.52145   0.97432   0.28263   0.00000  Uiso   1.00
C475   C     0.52107   0.68978   0.28278   0.00000  Uiso   1.00
C476   C     0.47893   0.97689   0.21722   0.00000  Uiso   1.00
C477   C     0.49974   0.83365   0.16445   0.00000  Uiso   1.00
C478   C     0.50026   0.83302   0.33555   0.00000  Uiso   1.00
C479   C     0.51821   0.79600   0.40914   0.00000  Uiso   1.00
C480   C     0.48179   0.87067   0.09086   0.00000  Uiso   1.00
C481   C     0.50015   0.83290   0.38399   0.00000  Uiso   1.00
C482   C     0.49986   0.83377   0.11601   0.00000  Uiso   1.00
C483   C     0.48258   0.87062   0.40513   0.00000  Uiso   1.00
C484   C     0.51744   0.79606   0.09487   0.00000  Uiso   1.00
C485   C     0.48252   0.87163   0.45152   0.00000  Uiso   1.00
C486   C     0.51750   0.79505   0.04848   0.00000  Uiso   1.00
C487   C     0.50001   0.83348   0.47671   0.00000  Uiso   1.00
C488   C     0.50000   0.83320   0.02329   0.00000  Uiso   1.00
C489   C     0.51775   0.79563   0.45531   0.00000  Uiso   1.00
C490   C     0.48226   0.87104   0.04469   0.00000  Uiso   1.00
C491   C     0.46543   0.90957   0.47345   0.00000  Uiso   1.00
C492   C     0.53461   0.75712   0.02655   0.00000  Uiso   1.00
Cu493  Cu    0.50000   0.88022   0.25000   0.00000  Uiso   1.00
Cu494  Cu    0.50000   0.78645   0.25000   0.00000  Uiso   1.00
H495   H     0.53358   0.76808   0.39302   0.00000  Uiso   1.00
H496   H     0.46643   0.89859   0.10698   0.00000  Uiso   1.00
H497   H     0.46870   0.89876   0.38499   0.00000  Uiso   1.00
H498   H     0.53132   0.76792   0.11502   0.00000  Uiso   1.00
H499   H     0.45191   0.93802   0.03631   0.00000  Uiso   1.00
H500   H     0.54813   0.72867   0.46369   0.00000  Uiso   1.00
N501   N     0.50000   0.95069   0.25000   0.00000  Uiso   1.00
N502   N     0.50000   0.71598   0.25000   0.00000  Uiso   1.00
O503   O     0.43988   0.87291   0.24999   0.00000  Uiso   1.00
O504   O     0.56012   0.79375   0.25000   0.00000  Uiso   1.00
O505   O     0.56012   0.87291   0.25000   0.00000  Uiso   1.00
O506   O     0.43988   0.79375   0.24999   0.00000  Uiso   1.00
O507   O     0.49999   0.87293   0.18513   0.00000  Uiso   1.00
O508   O     0.50001   0.79373   0.31487   0.00000  Uiso   1.00
O509   O     0.50001   0.87293   0.31487   0.00000  Uiso   1.00
O510   O     0.49999   0.79373   0.18513   0.00000  Uiso   1.00
I511   I     0.44006   0.96999   0.43983   0.00000  Uiso   1.00
I512   I     0.56005   0.69673   0.06017   0.00000  Uiso   1.00
I513   I     0.38714   0.74051   0.30752   0.00000  Uiso   1.00
I514   I     0.61286   0.92616   0.19248   0.00000  Uiso   1.00
I515   I     0.62473   0.72219   0.25134   0.00000  Uiso   1.00
I516   I     0.37527   0.94448   0.24864   0.00000  Uiso   1.00
N517   N     0.45598   0.71554   0.18099   0.00000  Uiso   1.00
H518   H     0.43855   0.74342   0.19130   0.00000  Uiso   1.00
H519   H     0.47596   0.72460   0.15651   0.00000  Uiso   1.00
N520   N     0.54403   0.95113   0.31900   0.00000  Uiso   1.00
H521   H     0.56147   0.92326   0.30869   0.00000  Uiso   1.00
H522   H     0.52406   0.94207   0.34348   0.00000  Uiso   1.00
N523   N     0.54073   0.71036   0.32059   0.00000  Uiso   1.00
H524   H     0.55606   0.73983   0.31150   0.00000  Uiso   1.00
H525   H     0.51794   0.71761   0.34258   0.00000  Uiso   1.00
N526   N     0.45928   0.95631   0.17941   0.00000  Uiso   1.00
H527   H     0.44394   0.92685   0.18849   0.00000  Uiso   1.00
H528   H     0.48207   0.94906   0.15742   0.00000  Uiso   1.00
C529   C     0.75427   0.83401   0.25303   0.00000  Uiso   1.00
C530   C     0.91239   0.83266   0.24697   0.00000  Uiso   1.00
C531   C     0.79854   0.90879   0.01974   0.00000  Uiso   1.00
C532   C     0.86815   0.75790   0.48026   0.00000  Uiso   1.00
C533   C     0.68959   0.79432   0.26673   0.00000  Uiso   1.00
C534   C     0.97708   0.87234   0.23327   0.00000  Uiso   1.00
C535   C     0.98087   0.79091   0.25674   0.00000  Uiso   1.00
C536   C     0.68579   0.87575   0.24326   0.00000  Uiso   1.00
C537   C     0.95722   0.83122   0.24393   0.00000  Uiso   1.00
C538   C     0.70944   0.83545   0.25607   0.00000  Uiso   1.00
C539   C     0.81189   0.69235   0.21737   0.00000  Uiso   1.00
C540   C     0.85478   0.97432   0.28263   0.00000  Uiso   1.00
C541   C     0.85440   0.68978   0.28278   0.00000  Uiso   1.00
C542   C     0.81227   0.97689   0.21722   0.00000  Uiso   1.00
C543   C     0.83307   0.83365   0.16445   0.00000  Uiso   1.00
C544   C     0.83359   0.83302   0.33555   0.00000  Uiso   1.00
C545   C     0.85155   0.79600   0.40914   0.00000  Uiso   1.00
C546   C     0.81513   0.87067   0.09086   0.00000  Uiso   1.00
C547   C     0.83348   0.83290   0.38399   0.00000  Uiso   1.00
C548   C     0.83319   0.83377   0.11601   0.00000  Uiso   1.00
C549   C     0.81592   0.87062   0.40513   0.00000  Uiso   1.00
C550   C     0.85077   0.79606   0.09487   0.00000  Uiso   1.00
C551   C     0.81585   0.87163   0.45152   0.00000  Uiso   1.00
C552   C     0.85084   0.79505   0.04848   0.00000  Uiso   1.00
C553   C     0.83334   0.83348   0.47671   0.00000  Uiso   1.00
C554   C     0.83334   0.83320   0.02329   0.00000  Uiso   1.00
C555   C     0.85109   0.79563   0.45531   0.00000  Uiso   1.00
C556   C     0.81559   0.87104   0.04469   0.00000  Uiso   1.00
C557   C     0.79876   0.90957   0.47345   0.00000  Uiso   1.00
C558   C     0.86795   0.75712   0.02655   0.00000  Uiso   1.00
Cu559  Cu    0.83333   0.88022   0.25000   0.00000  Uiso   1.00
Cu560  Cu    0.83333   0.78645   0.25000   0.00000  Uiso   1.00
H561   H     0.86691   0.76808   0.39302   0.00000  Uiso   1.00
H562   H     0.79976   0.89859   0.10698   0.00000  Uiso   1.00
H563   H     0.80203   0.89876   0.38499   0.00000  Uiso   1.00
H564   H     0.86465   0.76792   0.11502   0.00000  Uiso   1.00
H565   H     0.78524   0.93802   0.03631   0.00000  Uiso   1.00
H566   H     0.88146   0.72867   0.46369   0.00000  Uiso   1.00
N567   N     0.83333   0.95069   0.25000   0.00000  Uiso   1.00
N568   N     0.83333   0.71598   0.25000   0.00000  Uiso   1.00
O569   O     0.77321   0.87291   0.24999   0.00000  Uiso   1.00
O570   O     0.89345   0.79375   0.25000   0.00000  Uiso   1.00
O571   O     0.89345   0.87291   0.25000   0.00000  Uiso   1.00
O572   O     0.77321   0.79375   0.24999   0.00000  Uiso   1.00
O573   O     0.83332   0.87293   0.18513   0.00000  Uiso   1.00
O574   O     0.83334   0.79373   0.31487   0.00000  Uiso   1.00
O575   O     0.83334   0.87293   0.31487   0.00000  Uiso   1.00
O576   O     0.83332   0.79373   0.18513   0.00000  Uiso   1.00
I577   I     0.77340   0.96999   0.43983   0.00000  Uiso   1.00
I578   I     0.89339   0.69673   0.06017   0.00000  Uiso   1.00
I579   I     0.72048   0.74051   0.30752   0.00000  Uiso   1.00
I580   I     0.94619   0.92616   0.19248   0.00000  Uiso   1.00
I581   I     0.95806   0.72219   0.25134   0.00000  Uiso   1.00
I582   I     0.70861   0.94448   0.24864   0.00000  Uiso   1.00
N583   N     0.78931   0.71554   0.18099   0.00000  Uiso   1.00
H584   H     0.77189   0.74342   0.19130   0.00000  Uiso   1.00
H585   H     0.80929   0.72460   0.15651   0.00000  Uiso   1.00
N586   N     0.87736   0.95113   0.31900   0.00000  Uiso   1.00
H587   H     0.89480   0.92326   0.30869   0.00000  Uiso   1.00
H588   H     0.85740   0.94207   0.34348   0.00000  Uiso   1.00
N589   N     0.87406   0.71036   0.32059   0.00000  Uiso   1.00
H590   H     0.88939   0.73983   0.31150   0.00000  Uiso   1.00
H591   H     0.85128   0.71761   0.34258   0.00000  Uiso   1.00
N592   N     0.79261   0.95631   0.17941   0.00000  Uiso   1.00
H593   H     0.77727   0.92685   0.18849   0.00000  Uiso   1.00
H594   H     0.81541   0.94906   0.15742   0.00000  Uiso   1.00
C595   C     0.08761   0.16734   0.75303   0.00000  Uiso   1.00
C596   C     0.24573   0.16599   0.74697   0.00000  Uiso   1.00
C597   C     0.13188   0.24212   0.51974   0.00000  Uiso   1.00
C598   C     0.20149   0.09123   0.98026   0.00000  Uiso   1.00
C599   C     0.02292   0.12766   0.76673   0.00000  Uiso   1.00
C600   C     0.31041   0.20568   0.73327   0.00000  Uiso   1.00
C601   C     0.31421   0.12425   0.75674   0.00000  Uiso   1.00
C602   C     0.01913   0.20909   0.74326   0.00000  Uiso   1.00
C603   C     0.29056   0.16455   0.74393   0.00000  Uiso   1.00
C604   C     0.04278   0.16878   0.75607   0.00000  Uiso   1.00
C605   C     0.14522   0.02568   0.71737   0.00000  Uiso   1.00
C606   C     0.18811   0.30765   0.78263   0.00000  Uiso   1.00
C607   C     0.18774   0.02311   0.78278   0.00000  Uiso   1.00
C608   C     0.14560   0.31022   0.71722   0.00000  Uiso   1.00
C609   C     0.16641   0.16698   0.66445   0.00000  Uiso   1.00
C610   C     0.16693   0.16635   0.83555   0.00000  Uiso   1.00
C611   C     0.18488   0.12933   0.90914   0.00000  Uiso   1.00
C612   C     0.14846   0.20401   0.59086   0.00000  Uiso   1.00
C613   C     0.16681   0.16623   0.88399   0.00000  Uiso   1.00
C614   C     0.16653   0.16710   0.61601   0.00000  Uiso   1.00
C615   C     0.14925   0.20395   0.90513   0.00000  Uiso   1.00
C616   C     0.18410   0.12939   0.59487   0.00000  Uiso   1.00
C617   C     0.14919   0.20497   0.95152   0.00000  Uiso   1.00
C618   C     0.18417   0.12838   0.54848   0.00000  Uiso   1.00
C619   C     0.16668   0.16681   0.97671   0.00000  Uiso   1.00
C620   C     0.16667   0.16653   0.52329   0.00000  Uiso   1.00
C621   C     0.18442   0.12896   0.95531   0.00000  Uiso   1.00
C622   C     0.14893   0.20438   0.54469   0.00000  Uiso   1.00
C623   C     0.13209   0.24290   0.97345   0.00000  Uiso   1.00
C624   C     0.20128   0.09045   0.52655   0.00000  Uiso   1.00
Cu625  Cu    0.16667   0.21355   0.75000   0.00000  Uiso   1.00
Cu626  Cu    0.16667   0.11978   0.75000   0.00000  Uiso   1.00
H627   H     0.20024   0.10142   0.89302   0.00000  Uiso   1.00
H628   H     0.13309   0.23192   0.60698   0.00000  Uiso   1.00
H629   H     0.13537   0.23209   0.88499   0.00000  Uiso   1.00
H630   H     0.19799   0.10125   0.61502   0.00000  Uiso   1.00
H631   H     0.11858   0.27135   0.53631   0.00000  Uiso   1.00
H632   H     0.21480   0.06201   0.96369   0.00000  Uiso   1.00
N633   N     0.16667   0.28402   0.75000   0.00000  Uiso   1.00
N634   N     0.16667   0.04931   0.75000   0.00000  Uiso   1.00
O635   O     0.10655   0.20625   0.74999   0.00000  Uiso   1.00
O636   O     0.22679   0.12709   0.75000   0.00000  Uiso   1.00
O637   O     0.22679   0.20625   0.75000   0.00000  Uiso   1.00
O638   O     0.10655   0.12709   0.74999   0.00000  Uiso   1.00
O639   O     0.16666   0.20627   0.68513   0.00000  Uiso   1.00
O640   O     0.16668   0.12707   0.81487   0.00000  Uiso   1.00
O641   O     0.16668   0.20627   0.81487   0.00000  Uiso   1.00
O642   O     0.16666   0.12707   0.68513   0.00000  Uiso   1.00
I643   I     0.10673   0.30333   0.93983   0.00000  Uiso   1.00
I644   I     0.22672   0.03007   0.56017   0.00000  Uiso   1.00
I645   I     0.05381   0.07384   0.80752   0.00000  Uiso   1.00
I646   I     0.27952   0.25949   0.69248   0.00000  Uiso   1.00
I647   I     0.29139   0.05552   0.75134   0.00000  Uiso   1.00
I648   I     0.04194   0.27781   0.74864   0.00000  Uiso   1.00
N649   N     0.12265   0.04887   0.68099   0.00000  Uiso   1.00
H650   H     0.10522   0.07675   0.69130   0.00000  Uiso   1.00
H651   H     0.14262   0.05794   0.65651   0.00000  Uiso   1.00
N652   N     0.21069   0.28446   0.81900   0.00000  Uiso   1.00
H653   H     0.22813   0.25660   0.80869   0.00000  Uiso   1.00
H654   H     0.19073   0.27540   0.84348   0.00000  Uiso   1.00
N655   N     0.20740   0.04369   0.82059   0.00000  Uiso   1.00
H656   H     0.22273   0.07316   0.81150   0.00000  Uiso   1.00
H657   H     0.18461   0.05094   0.84258   0.00000  Uiso   1.00
N658   N     0.12594   0.28964   0.67941   0.00000  Uiso   1.00
H659   H     0.11061   0.26018   0.68849   0.00000  Uiso   1.00
H660   H     0.14874   0.28239   0.65742   0.00000  Uiso   1.00
C661   C     0.42094   0.16734   0.75303   0.00000  Uiso   1.00
C662   C     0.57906   0.16599   0.74697   0.00000  Uiso   1.00
C663   C     0.46521   0.24212   0.51974   0.00000  Uiso   1.00
C664   C     0.53482   0.09123   0.98026   0.00000  Uiso   1.00
C665   C     0.35626   0.12766   0.76673   0.00000  Uiso   1.00
C666   C     0.64374   0.20568   0.73327   0.00000  Uiso   1.00
C667   C     0.64754   0.12425   0.75674   0.00000  Uiso   1.00
C668   C     0.35246   0.20909   0.74326   0.00000  Uiso   1.00
C669   C     0.62389   0.16455   0.74393   0.00000  Uiso   1.00
C670   C     0.37611   0.16878   0.75607   0.00000  Uiso   1.00
C671   C     0.47855   0.02568   0.71737   0.00000  Uiso   1.00
C672   C     0.52145   0.30765   0.78263   0.00000  Uiso   1.00
C673   C     0.52107   0.02311   0.78278   0.00000  Uiso   1.00
C674   C     0.47893   0.31022   0.71722   0.00000  Uiso   1.00
C675   C     0.49974   0.16698   0.66445   0.00000  Uiso   1.00
C676   C     0.50026   0.16635   0.83555   0.00000  Uiso   1.00
C677   C     0.51821   0.12933   0.90914   0.00000  Uiso   1.00
C678   C     0.48179   0.20401   0.59086   0.00000  Uiso   1.00
C679   C     0.50015   0.16623   0.88399   0.00000  Uiso   1.00
C680   C     0.49986   0.16710   0.61601   0.00000  Uiso   1.00
C681   C     0.48258   0.20395   0.90513   0.00000  Uiso   1.00
C682   C     0.51744   0.12939   0.59487   0.00000  Uiso   1.00
C683   C     0.48252   0.20497   0.95152   0.00000  Uiso   1.00
C684   C     0.51750   0.12838   0.54848   0.00000  Uiso   1.00
C685   C     0.50001   0.16681   0.97671   0.00000  Uiso   1.00
C686   C     0.50000   0.16653   0.52329   0.00000  Uiso   1.00
C687   C     0.51775   0.12896   0.95531   0.00000  Uiso   1.00
C688   C     0.48226   0.20438   0.54469   0.00000  Uiso   1.00
C689   C     0.46543   0.24290   0.97345   0.00000  Uiso   1.00
C690   C     0.53461   0.09045   0.52655   0.00000  Uiso   1.00
Cu691  Cu    0.50000   0.21355   0.75000   0.00000  Uiso   1.00
Cu692  Cu    0.50000   0.11978   0.75000   0.00000  Uiso   1.00
H693   H     0.53358   0.10142   0.89302   0.00000  Uiso   1.00
H694   H     0.46643   0.23192   0.60698   0.00000  Uiso   1.00
H695   H     0.46870   0.23209   0.88499   0.00000  Uiso   1.00
H696   H     0.53132   0.10125   0.61502   0.00000  Uiso   1.00
H697   H     0.45191   0.27135   0.53631   0.00000  Uiso   1.00
H698   H     0.54813   0.06201   0.96369   0.00000  Uiso   1.00
N699   N     0.50000   0.28402   0.75000   0.00000  Uiso   1.00
N700   N     0.50000   0.04931   0.75000   0.00000  Uiso   1.00
O701   O     0.43988   0.20625   0.74999   0.00000  Uiso   1.00
O702   O     0.56012   0.12709   0.75000   0.00000  Uiso   1.00
O703   O     0.56012   0.20625   0.75000   0.00000  Uiso   1.00
O704   O     0.43988   0.12709   0.74999   0.00000  Uiso   1.00
O705   O     0.49999   0.20627   0.68513   0.00000  Uiso   1.00
O706   O     0.50001   0.12707   0.81487   0.00000  Uiso   1.00
O707   O     0.50001   0.20627   0.81487   0.00000  Uiso   1.00
O708   O     0.49999   0.12707   0.68513   0.00000  Uiso   1.00
I709   I     0.44006   0.30333   0.93983   0.00000  Uiso   1.00
I710   I     0.56005   0.03007   0.56017   0.00000  Uiso   1.00
I711   I     0.38714   0.07384   0.80752   0.00000  Uiso   1.00
I712   I     0.61286   0.25949   0.69248   0.00000  Uiso   1.00
I713   I     0.62473   0.05552   0.75134   0.00000  Uiso   1.00
I714   I     0.37527   0.27781   0.74864   0.00000  Uiso   1.00
N715   N     0.45598   0.04887   0.68099   0.00000  Uiso   1.00
H716   H     0.43855   0.07675   0.69130   0.00000  Uiso   1.00
H717   H     0.47596   0.05794   0.65651   0.00000  Uiso   1.00
N718   N     0.54403   0.28446   0.81900   0.00000  Uiso   1.00
H719   H     0.56147   0.25660   0.80869   0.00000  Uiso   1.00
H720   H     0.52406   0.27540   0.84348   0.00000  Uiso   1.00
N721   N     0.54073   0.04369   0.82059   0.00000  Uiso   1.00
H722   H     0.55606   0.07316   0.81150   0.00000  Uiso   1.00
H723   H     0.51794   0.05094   0.84258   0.00000  Uiso   1.00
N724   N     0.45928   0.28964   0.67941   0.00000  Uiso   1.00
H725   H     0.44394   0.26018   0.68849   0.00000  Uiso   1.00
H726   H     0.48207   0.28239   0.65742   0.00000  Uiso   1.00
C727   C     0.75427   0.16734   0.75303   0.00000  Uiso   1.00
C728   C     0.91239   0.16599   0.74697   0.00000  Uiso   1.00
C729   C     0.79854   0.24212   0.51974   0.00000  Uiso   1.00
C730   C     0.86815   0.09123   0.98026   0.00000  Uiso   1.00
C731   C     0.68959   0.12766   0.76673   0.00000  Uiso   1.00
C732   C     0.97708   0.20568   0.73327   0.00000  Uiso   1.00
C733   C     0.98087   0.12425   0.75674   0.00000  Uiso   1.00
C734   C     0.68579   0.20909   0.74326   0.00000  Uiso   1.00
C735   C     0.95722   0.16455   0.74393   0.00000  Uiso   1.00
C736   C     0.70944   0.16878   0.75607   0.00000  Uiso   1.00
C737   C     0.81189   0.02568   0.71737   0.00000  Uiso   1.00
C738   C     0.85478   0.30765   0.78263   0.00000  Uiso   1.00
C739   C     0.85440   0.02311   0.78278   0.00000  Uiso   1.00
C740   C     0.81227   0.31022   0.71722   0.00000  Uiso   1.00
C741   C     0.83307   0.16698   0.66445   0.00000  Uiso   1.00
C742   C     0.83359   0.16635   0.83555   0.00000  Uiso   1.00
C743   C     0.85155   0.12933   0.90914   0.00000  Uiso   1.00
C744   C     0.81513   0.20401   0.59086   0.00000  Uiso   1.00
C745   C     0.83348   0.16623   0.88399   0.00000  Uiso   1.00
C746   C     0.83319   0.16710   0.61601   0.00000  Uiso   1.00
C747   C     0.81592   0.20395   0.90513   0.00000  Uiso   1.00
C748   C     0.85077   0.12939   0.59487   0.00000  Uiso   1.00
C749   C     0.81585   0.20497   0.95152   0.00000  Uiso   1.00
C750   C     0.85084   0.12838   0.54848   0.00000  Uiso   1.00
C751   C     0.83334   0.16681   0.97671   0.00000  Uiso   1.00
C752   C     0.83334   0.16653   0.52329   0.00000  Uiso   1.00
C753   C     0.85109   0.12896   0.95531   0.00000  Uiso   1.00
C754   C     0.81559   0.20438   0.54469   0.00000  Uiso   1.00
C755   C     0.79876   0.24290   0.97345   0.00000  Uiso   1.00
C756   C     0.86795   0.09045   0.52655   0.00000  Uiso   1.00
Cu757  Cu    0.83333   0.21355   0.75000   0.00000  Uiso   1.00
Cu758  Cu    0.83333   0.11978   0.75000   0.00000  Uiso   1.00
H759   H     0.86691   0.10142   0.89302   0.00000  Uiso   1.00
H760   H     0.79976   0.23192   0.60698   0.00000  Uiso   1.00
H761   H     0.80203   0.23209   0.88499   0.00000  Uiso   1.00
H762   H     0.86465   0.10125   0.61502   0.00000  Uiso   1.00
H763   H     0.78524   0.27135   0.53631   0.00000  Uiso   1.00
H764   H     0.88146   0.06201   0.96369   0.00000  Uiso   1.00
N765   N     0.83333   0.28402   0.75000   0.00000  Uiso   1.00
N766   N     0.83333   0.04931   0.75000   0.00000  Uiso   1.00
O767   O     0.77321   0.20625   0.74999   0.00000  Uiso   1.00
O768   O     0.89345   0.12709   0.75000   0.00000  Uiso   1.00
O769   O     0.89345   0.20625   0.75000   0.00000  Uiso   1.00
O770   O     0.77321   0.12709   0.74999   0.00000  Uiso   1.00
O771   O     0.83332   0.20627   0.68513   0.00000  Uiso   1.00
O772   O     0.83334   0.12707   0.81487   0.00000  Uiso   1.00
O773   O     0.83334   0.20627   0.81487   0.00000  Uiso   1.00
O774   O     0.83332   0.12707   0.68513   0.00000  Uiso   1.00
I775   I     0.77340   0.30333   0.93983   0.00000  Uiso   1.00
I776   I     0.89339   0.03007   0.56017   0.00000  Uiso   1.00
I777   I     0.72048   0.07384   0.80752   0.00000  Uiso   1.00
I778   I     0.94619   0.25949   0.69248   0.00000  Uiso   1.00
I779   I     0.95806   0.05552   0.75134   0.00000  Uiso   1.00
I780   I     0.70861   0.27781   0.74864   0.00000  Uiso   1.00
N781   N     0.78931   0.04887   0.68099   0.00000  Uiso   1.00
H782   H     0.77189   0.07675   0.69130   0.00000  Uiso   1.00
H783   H     0.80929   0.05794   0.65651   0.00000  Uiso   1.00
N784   N     0.87736   0.28446   0.81900   0.00000  Uiso   1.00
H785   H     0.89480   0.25660   0.80869   0.00000  Uiso   1.00
H786   H     0.85740   0.27540   0.84348   0.00000  Uiso   1.00
N787   N     0.87406   0.04369   0.82059   0.00000  Uiso   1.00
H788   H     0.88939   0.07316   0.81150   0.00000  Uiso   1.00
H789   H     0.85128   0.05094   0.84258   0.00000  Uiso   1.00
N790   N     0.79261   0.28964   0.67941   0.00000  Uiso   1.00
H791   H     0.77727   0.26018   0.68849   0.00000  Uiso   1.00
H792   H     0.81541   0.28239   0.65742   0.00000  Uiso   1.00
C793   C     0.08761   0.50068   0.75303   0.00000  Uiso   1.00
C794   C     0.24573   0.49932   0.74697   0.00000  Uiso   1.00
C795   C     0.13188   0.57545   0.51974   0.00000  Uiso   1.00
C796   C     0.20149   0.42456   0.98026   0.00000  Uiso   1.00
C797   C     0.02292   0.46099   0.76673   0.00000  Uiso   1.00
C798   C     0.31041   0.53901   0.73327   0.00000  Uiso   1.00
C799   C     0.31421   0.45758   0.75674   0.00000  Uiso   1.00
C800   C     0.01913   0.54242   0.74326   0.00000  Uiso   1.00
C801   C     0.29056   0.49789   0.74393   0.00000  Uiso   1.00
C802   C     0.04278   0.50211   0.75607   0.00000  Uiso   1.00
C803   C     0.14522   0.35901   0.71737   0.00000  Uiso   1.00
C804   C     0.18811   0.64099   0.78263   0.00000  Uiso   1.00
C805   C     0.18774   0.35644   0.78278   0.00000  Uiso   1.00
C806   C     0.14560   0.64356   0.71722   0.00000  Uiso   1.00
C807   C     0.16641   0.50031   0.66445   0.00000  Uiso   1.00
C808   C     0.16693   0.49969   0.83555   0.00000  Uiso   1.00
C809   C     0.18488   0.46266   0.90914   0.00000  Uiso   1.00
C810   C     0.14846   0.53734   0.59086   0.00000  Uiso   1.00
C811   C     0.16681   0.49957   0.88399   0.00000  Uiso   1.00
C812   C     0.16653   0.50043   0.61601   0.00000  Uiso   1.00
C813   C     0.14925   0.53728   0.90513   0.00000  Uiso   1.00
C814   C     0.18410   0.46273   0.59487   0.00000  Uiso   1.00
C815   C     0.14919   0.53830   0.95152   0.00000  Uiso   1.00
C816   C     0.18417   0.46171   0.54848   0.00000  Uiso   1.00
C817   C     0.16668   0.50014   0.97671   0.00000  Uiso   1.00
C818   C     0.16667   0.49987   0.52329   0.00000  Uiso   1.00
C819   C     0.18442   0.46230   0.95531   0.00000  Uiso   1.00
C820   C     0.14893   0.53771   0.54469   0.00000  Uiso   1.00
C821   C     0.13209   0.57623   0.97345   0.00000  Uiso   1.00
C822   C     0.20128   0.42379   0.52655   0.00000  Uiso   1.00
Cu823  Cu    0.16667   0.54689   0.75000   0.00000  Uiso   1.00
Cu824  Cu    0.16667   0.45311   0.75000   0.00000  Uiso   1.00
H825   H     0.20024   0.43475   0.89302   0.00000  Uiso   1.00
H826   H     0.13309   0.56525   0.60698   0.00000  Uiso   1.00
H827   H     0.13537   0.56542   0.88499   0.00000  Uiso   1.00
H828   H     0.19799   0.43459   0.61502   0.00000  Uiso   1.00
H829   H     0.11858   0.60468   0.53631   0.00000  Uiso   1.00
H830   H     0.21480   0.39534   0.96369   0.00000  Uiso   1.00
N831   N     0.16667   0.61736   0.75000   0.00000  Uiso   1.00
N832   N     0.16667   0.38264   0.75000   0.00000  Uiso   1.00
O833   O     0.10655   0.53958   0.74999   0.00000  Uiso   1.00
O834   O     0.22679   0.46042   0.75000   0.00000  Uiso   1.00
O835   O     0.22679   0.53958   0.75000   0.00000  Uiso   1.00
O836   O     0.10655   0.46042   0.74999   0.00000  Uiso   1.00
O837   O     0.16666   0.53960   0.68513   0.00000  Uiso   1.00
O838   O     0.16668   0.46040   0.81487   0.00000  Uiso   1.00
O839   O     0.16668   0.53960   0.81487   0.00000  Uiso   1.00
O840   O     0.16666   0.46040   0.68513   0.00000  Uiso   1.00
I841   I     0.10673   0.63666   0.93983   0.00000  Uiso   1.00
I842   I     0.22672   0.36340   0.56017   0.00000  Uiso   1.00
I843   I     0.05381   0.40718   0.80752   0.00000  Uiso   1.00
I844   I     0.27952   0.59282   0.69248   0.00000  Uiso   1.00
I845   I     0.29139   0.38885   0.75134   0.00000  Uiso   1.00
I846   I     0.04194   0.61115   0.74864   0.00000  Uiso   1.00
N847   N     0.12265   0.38220   0.68099   0.00000  Uiso   1.00
H848   H     0.10522   0.41008   0.69130   0.00000  Uiso   1.00
H849   H     0.14262   0.39127   0.65651   0.00000  Uiso   1.00
N850   N     0.21069   0.61780   0.81900   0.00000  Uiso   1.00
H851   H     0.22813   0.58993   0.80869   0.00000  Uiso   1.00
H852   H     0.19073   0.60873   0.84348   0.00000  Uiso   1.00
N853   N     0.20740   0.37702   0.82059   0.00000  Uiso   1.00
H854   H     0.22273   0.40649   0.81150   0.00000  Uiso   1.00
H855   H     0.18461   0.38428   0.84258   0.00000  Uiso   1.00
N856   N     0.12594   0.62298   0.67941   0.00000  Uiso   1.00
H857   H     0.11061   0.59351   0.68849   0.00000  Uiso   1.00
H858   H     0.14874   0.61572   0.65742   0.00000  Uiso   1.00
C859   C     0.42094   0.50068   0.75303   0.00000  Uiso   1.00
C860   C     0.57906   0.49932   0.74697   0.00000  Uiso   1.00
C861   C     0.46521   0.57545   0.51974   0.00000  Uiso   1.00
C862   C     0.53482   0.42456   0.98026   0.00000  Uiso   1.00
C863   C     0.35626   0.46099   0.76673   0.00000  Uiso   1.00
C864   C     0.64374   0.53901   0.73327   0.00000  Uiso   1.00
C865   C     0.64754   0.45758   0.75674   0.00000  Uiso   1.00
C866   C     0.35246   0.54242   0.74326   0.00000  Uiso   1.00
C867   C     0.62389   0.49789   0.74393   0.00000  Uiso   1.00
C868   C     0.37611   0.50211   0.75607   0.00000  Uiso   1.00
C869   C     0.47855   0.35901   0.71737   0.00000  Uiso   1.00
C870   C     0.52145   0.64099   0.78263   0.00000  Uiso   1.00
C871   C     0.52107   0.35644   0.78278   0.00000  Uiso   1.00
C872   C     0.47893   0.64356   0.71722   0.00000  Uiso   1.00
C873   C     0.49974   0.50031   0.66445   0.00000  Uiso   1.00
C874   C     0.50026   0.49969   0.83555   0.00000  Uiso   1.00
C875   C     0.51821   0.46266   0.90914   0.00000  Uiso   1.00
C876   C     0.48179   0.53734   0.59086   0.00000  Uiso   1.00
C877   C     0.50015   0.49957   0.88399   0.00000  Uiso   1.00
C878   C     0.49986   0.50043   0.61601   0.00000  Uiso   1.00
C879   C     0.48258   0.53728   0.90513   0.00000  Uiso   1.00
C880   C     0.51744   0.46273   0.59487   0.00000  Uiso   1.00
C881   C     0.48252   0.53830   0.95152   0.00000  Uiso   1.00
C882   C     0.51750   0.46171   0.54848   0.00000  Uiso   1.00
C883   C     0.50001   0.50014   0.97671   0.00000  Uiso   1.00
C884   C     0.50000   0.49987   0.52329   0.00000  Uiso   1.00
C885   C     0.51775   0.46230   0.95531   0.00000  Uiso   1.00
C886   C     0.48226   0.53771   0.54469   0.00000  Uiso   1.00
C887   C     0.46543   0.57623   0.97345   0.00000  Uiso   1.00
C888   C     0.53461   0.42379   0.52655   0.00000  Uiso   1.00
Cu889  Cu    0.50000   0.54689   0.75000   0.00000  Uiso   1.00
Cu890  Cu    0.50000   0.45311   0.75000   0.00000  Uiso   1.00
H891   H     0.53358   0.43475   0.89302   0.00000  Uiso   1.00
H892   H     0.46643   0.56525   0.60698   0.00000  Uiso   1.00
H893   H     0.46870   0.56542   0.88499   0.00000  Uiso   1.00
H894   H     0.53132   0.43459   0.61502   0.00000  Uiso   1.00
H895   H     0.45191   0.60468   0.53631   0.00000  Uiso   1.00
H896   H     0.54813   0.39534   0.96369   0.00000  Uiso   1.00
N897   N     0.50000   0.61736   0.75000   0.00000  Uiso   1.00
N898   N     0.50000   0.38264   0.75000   0.00000  Uiso   1.00
O899   O     0.43988   0.53958   0.74999   0.00000  Uiso   1.00
O900   O     0.56012   0.46042   0.75000   0.00000  Uiso   1.00
O901   O     0.56012   0.53958   0.75000   0.00000  Uiso   1.00
O902   O     0.43988   0.46042   0.74999   0.00000  Uiso   1.00
O903   O     0.49999   0.53960   0.68513   0.00000  Uiso   1.00
O904   O     0.50001   0.46040   0.81487   0.00000  Uiso   1.00
O905   O     0.50001   0.53960   0.81487   0.00000  Uiso   1.00
O906   O     0.49999   0.46040   0.68513   0.00000  Uiso   1.00
I907   I     0.44006   0.63666   0.93983   0.00000  Uiso   1.00
I908   I     0.56005   0.36340   0.56017   0.00000  Uiso   1.00
I909   I     0.38714   0.40718   0.80752   0.00000  Uiso   1.00
I910   I     0.61286   0.59282   0.69248   0.00000  Uiso   1.00
I911   I     0.62473   0.38885   0.75134   0.00000  Uiso   1.00
I912   I     0.37527   0.61115   0.74864   0.00000  Uiso   1.00
N913   N     0.45598   0.38220   0.68099   0.00000  Uiso   1.00
H914   H     0.43855   0.41008   0.69130   0.00000  Uiso   1.00
H915   H     0.47596   0.39127   0.65651   0.00000  Uiso   1.00
N916   N     0.54403   0.61780   0.81900   0.00000  Uiso   1.00
H917   H     0.56147   0.58993   0.80869   0.00000  Uiso   1.00
H918   H     0.52406   0.60873   0.84348   0.00000  Uiso   1.00
N919   N     0.54073   0.37702   0.82059   0.00000  Uiso   1.00
H920   H     0.55606   0.40649   0.81150   0.00000  Uiso   1.00
H921   H     0.51794   0.38428   0.84258   0.00000  Uiso   1.00
N922   N     0.45928   0.62298   0.67941   0.00000  Uiso   1.00
H923   H     0.44394   0.59351   0.68849   0.00000  Uiso   1.00
H924   H     0.48207   0.61572   0.65742   0.00000  Uiso   1.00
C925   C     0.75427   0.50068   0.75303   0.00000  Uiso   1.00
C926   C     0.91239   0.49932   0.74697   0.00000  Uiso   1.00
C927   C     0.79854   0.57545   0.51974   0.00000  Uiso   1.00
C928   C     0.86815   0.42456   0.98026   0.00000  Uiso   1.00
C929   C     0.68959   0.46099   0.76673   0.00000  Uiso   1.00
C930   C     0.97708   0.53901   0.73327   0.00000  Uiso   1.00
C931   C     0.98087   0.45758   0.75674   0.00000  Uiso   1.00
C932   C     0.68579   0.54242   0.74326   0.00000  Uiso   1.00
C933   C     0.95722   0.49789   0.74393   0.00000  Uiso   1.00
C934   C     0.70944   0.50211   0.75607   0.00000  Uiso   1.00
C935   C     0.81189   0.35901   0.71737   0.00000  Uiso   1.00
C936   C     0.85478   0.64099   0.78263   0.00000  Uiso   1.00
C937   C     0.85440   0.35644   0.78278   0.00000  Uiso   1.00
C938   C     0.81227   0.64356   0.71722   0.00000  Uiso   1.00
C939   C     0.83307   0.50031   0.66445   0.00000  Uiso   1.00
C940   C     0.83359   0.49969   0.83555   0.00000  Uiso   1.00
C941   C     0.85155   0.46266   0.90914   0.00000  Uiso   1.00
C942   C     0.81513   0.53734   0.59086   0.00000  Uiso   1.00
C943   C     0.83348   0.49957   0.88399   0.00000  Uiso   1.00
C944   C     0.83319   0.50043   0.61601   0.00000  Uiso   1.00
C945   C     0.81592   0.53728   0.90513   0.00000  Uiso   1.00
C946   C     0.85077   0.46273   0.59487   0.00000  Uiso   1.00
C947   C     0.81585   0.53830   0.95152   0.00000  Uiso   1.00
C948   C     0.85084   0.46171   0.54848   0.00000  Uiso   1.00
C949   C     0.83334   0.50014   0.97671   0.00000  Uiso   1.00
C950   C     0.83334   0.49987   0.52329   0.00000  Uiso   1.00
C951   C     0.85109   0.46230   0.95531   0.00000  Uiso   1.00
C952   C     0.81559   0.53771   0.54469   0.00000  Uiso   1.00
C953   C     0.79876   0.57623   0.97345   0.00000  Uiso   1.00
C954   C     0.86795   0.42379   0.52655   0.00000  Uiso   1.00
Cu955  Cu    0.83333   0.54689   0.75000   0.00000  Uiso   1.00
Cu956  Cu    0.83333   0.45311   0.75000   0.00000  Uiso   1.00
H957   H     0.86691   0.43475   0.89302   0.00000  Uiso   1.00
H958   H     0.79976   0.56525   0.60698   0.00000  Uiso   1.00
H959   H     0.80203   0.56542   0.88499   0.00000  Uiso   1.00
H960   H     0.86465   0.43459   0.61502   0.00000  Uiso   1.00
H961   H     0.78524   0.60468   0.53631   0.00000  Uiso   1.00
H962   H     0.88146   0.39534   0.96369   0.00000  Uiso   1.00
N963   N     0.83333   0.61736   0.75000   0.00000  Uiso   1.00
N964   N     0.83333   0.38264   0.75000   0.00000  Uiso   1.00
O965   O     0.77321   0.53958   0.74999   0.00000  Uiso   1.00
O966   O     0.89345   0.46042   0.75000   0.00000  Uiso   1.00
O967   O     0.89345   0.53958   0.75000   0.00000  Uiso   1.00
O968   O     0.77321   0.46042   0.74999   0.00000  Uiso   1.00
O969   O     0.83332   0.53960   0.68513   0.00000  Uiso   1.00
O970   O     0.83334   0.46040   0.81487   0.00000  Uiso   1.00
O971   O     0.83334   0.53960   0.81487   0.00000  Uiso   1.00
O972   O     0.83332   0.46040   0.68513   0.00000  Uiso   1.00
I973   I     0.77340   0.63666   0.93983   0.00000  Uiso   1.00
I974   I     0.89339   0.36340   0.56017   0.00000  Uiso   1.00
I975   I     0.72048   0.40718   0.80752   0.00000  Uiso   1.00
I976   I     0.94619   0.59282   0.69248   0.00000  Uiso   1.00
I977   I     0.95806   0.38885   0.75134   0.00000  Uiso   1.00
I978   I     0.70861   0.61115   0.74864   0.00000  Uiso   1.00
N979   N     0.78931   0.38220   0.68099   0.00000  Uiso   1.00
H980   H     0.77189   0.41008   0.69130   0.00000  Uiso   1.00
H981   H     0.80929   0.39127   0.65651   0.00000  Uiso   1.00
N982   N     0.87736   0.61780   0.81900   0.00000  Uiso   1.00
H983   H     0.89480   0.58993   0.80869   0.00000  Uiso   1.00
H984   H     0.85740   0.60873   0.84348   0.00000  Uiso   1.00
N985   N     0.87406   0.37702   0.82059   0.00000  Uiso   1.00
H986   H     0.88939   0.40649   0.81150   0.00000  Uiso   1.00
H987   H     0.85128   0.38428   0.84258   0.00000  Uiso   1.00
N988   N     0.79261   0.62298   0.67941   0.00000  Uiso   1.00
H989   H     0.77727   0.59351   0.68849   0.00000  Uiso   1.00
H990   H     0.81541   0.61572   0.65742   0.00000  Uiso   1.00
C991   C     0.08761   0.83401   0.75303   0.00000  Uiso   1.00
C992   C     0.24573   0.83266   0.74697   0.00000  Uiso   1.00
C993   C     0.13188   0.90879   0.51974   0.00000  Uiso   1.00
C994   C     0.20149   0.75790   0.98026   0.00000  Uiso   1.00
C995   C     0.02292   0.79432   0.76673   0.00000  Uiso   1.00
C996   C     0.31041   0.87234   0.73327   0.00000  Uiso   1.00
C997   C     0.31421   0.79091   0.75674   0.00000  Uiso   1.00
C998   C     0.01913   0.87575   0.74326   0.00000  Uiso   1.00
C999   C     0.29056   0.83122   0.74393   0.00000  Uiso   1.00
C1000  C     0.04278   0.83545   0.75607   0.00000  Uiso   1.00
C1001  C     0.14522   0.69235   0.71737   0.00000  Uiso   1.00
C1002  C     0.18811   0.97432   0.78263   0.00000  Uiso   1.00
C1003  C     0.18774   0.68978   0.78278   0.00000  Uiso   1.00
C1004  C     0.14560   0.97689   0.71722   0.00000  Uiso   1.00
C1005  C     0.16641   0.83365   0.66445   0.00000  Uiso   1.00
C1006  C     0.16693   0.83302   0.83555   0.00000  Uiso   1.00
C1007  C     0.18488   0.79600   0.90914   0.00000  Uiso   1.00
C1008  C     0.14846   0.87067   0.59086   0.00000  Uiso   1.00
C1009  C     0.16681   0.83290   0.88399   0.00000  Uiso   1.00
C1010  C     0.16653   0.83377   0.61601   0.00000  Uiso   1.00
C1011  C     0.14925   0.87062   0.90513   0.00000  Uiso   1.00
C1012  C     0.18410   0.79606   0.59487   0.00000  Uiso   1.00
C1013  C     0.14919   0.87163   0.95152   0.00000  Uiso   1.00
C1014  C     0.18417   0.79505   0.54848   0.00000  Uiso   1.00
C1015  C     0.16668   0.83348   0.97671   0.00000  Uiso   1.00
C1016  C     0.16667   0.83320   0.52329   0.00000  Uiso   1.00
C1017  C     0.18442   0.79563   0.95531   0.00000  Uiso   1.00
C1018  C     0.14893   0.87104   0.54469   0.00000  Uiso   1.00
C1019  C     0.13209   0.90957   0.97345   0.00000  Uiso   1.00
C1020  C     0.20128   0.75712   0.52655   0.00000  Uiso   1.00
Cu1021 Cu    0.16667   0.88022   0.75000   0.00000  Uiso   1.00
Cu1022 Cu    0.16667   0.78645   0.75000   0.00000  Uiso   1.00
H1023  H     0.20024   0.76808   0.89302   0.00000  Uiso   1.00
H1024  H     0.13309   0.89859   0.60698   0.00000  Uiso   1.00
H1025  H     0.13537   0.89876   0.88499   0.00000  Uiso   1.00
H1026  H     0.19799   0.76792   0.61502   0.00000  Uiso   1.00
H1027  H     0.11858   0.93802   0.53631   0.00000  Uiso   1.00
H1028  H     0.21480   0.72867   0.96369   0.00000  Uiso   1.00
N1029  N     0.16667   0.95069   0.75000   0.00000  Uiso   1.00
N1030  N     0.16667   0.71598   0.75000   0.00000  Uiso   1.00
O1031  O     0.10655   0.87291   0.74999   0.00000  Uiso   1.00
O1032  O     0.22679   0.79375   0.75000   0.00000  Uiso   1.00
O1033  O     0.22679   0.87291   0.75000   0.00000  Uiso   1.00
O1034  O     0.10655   0.79375   0.74999   0.00000  Uiso   1.00
O1035  O     0.16666   0.87293   0.68513   0.00000  Uiso   1.00
O1036  O     0.16668   0.79373   0.81487   0.00000  Uiso   1.00
O1037  O     0.16668   0.87293   0.81487   0.00000  Uiso   1.00
O1038  O     0.16666   0.79373   0.68513   0.00000  Uiso   1.00
I1039  I     0.10673   0.96999   0.93983   0.00000  Uiso   1.00
I1040  I     0.22672   0.69673   0.56017   0.00000  Uiso   1.00
I1041  I     0.05381   0.74051   0.80752   0.00000  Uiso   1.00
I1042  I     0.27952   0.92616   0.69248   0.00000  Uiso   1.00
I1043  I     0.29139   0.72219   0.75134   0.00000  Uiso   1.00
I1044  I     0.04194   0.94448   0.74864   0.00000  Uiso   1.00
N1045  N     0.12265   0.71554   0.68099   0.00000  Uiso   1.00
H1046  H     0.10522   0.74342   0.69130   0.00000  Uiso   1.00
H1047  H     0.14262   0.72460   0.65651   0.00000  Uiso   1.00
N1048  N     0.21069   0.95113   0.81900   0.00000  Uiso   1.00
H1049  H     0.22813   0.92326   0.80869   0.00000  Uiso   1.00
H1050  H     0.19073   0.94207   0.84348   0.00000  Uiso   1.00
N1051  N     0.20740   0.71036   0.82059   0.00000  Uiso   1.00
H1052  H     0.22273   0.73983   0.81150   0.00000  Uiso   1.00
H1053  H     0.18461   0.71761   0.84258   0.00000  Uiso   1.00
N1054  N     0.12594   0.95631   0.67941   0.00000  Uiso   1.00
H1055  H     0.11061   0.92685   0.68849   0.00000  Uiso   1.00
H1056  H     0.14874   0.94906   0.65742   0.00000  Uiso   1.00
C1057  C     0.42094   0.83401   0.75303   0.00000  Uiso   1.00
C1058  C     0.57906   0.83266   0.74697   0.00000  Uiso   1.00
C1059  C     0.46521   0.90879   0.51974   0.00000  Uiso   1.00
C1060  C     0.53482   0.75790   0.98026   0.00000  Uiso   1.00
C1061  C     0.35626   0.79432   0.76673   0.00000  Uiso   1.00
C1062  C     0.64374   0.87234   0.73327   0.00000  Uiso   1.00
C1063  C     0.64754   0.79091   0.75674   0.00000  Uiso   1.00
C1064  C     0.35246   0.87575   0.74326   0.00000  Uiso   1.00
C1065  C     0.62389   0.83122   0.74393   0.00000  Uiso   1.00
C1066  C     0.37611   0.83545   0.75607   0.00000  Uiso   1.00
C1067  C     0.47855   0.69235   0.71737   0.00000  Uiso   1.00
C1068  C     0.52145   0.97432   0.78263   0.00000  Uiso   1.00
C1069  C     0.52107   0.68978   0.78278   0.00000  Uiso   1.00
C1070  C     0.47893   0.97689   0.71722   0.00000  Uiso   1.00
C1071  C     0.49974   0.83365   0.66445   0.00000  Uiso   1.00
C1072  C     0.50026   0.83302   0.83555   0.00000  Uiso   1.00
C1073  C     0.51821   0.79600   0.90914   0.00000  Uiso   1.00
C1074  C     0.48179   0.87067   0.59086   0.00000  Uiso   1.00
C1075  C     0.50015   0.83290   0.88399   0.00000  Uiso   1.00
C1076  C     0.49986   0.83377   0.61601   0.00000  Uiso   1.00
C1077  C     0.48258   0.87062   0.90513   0.00000  Uiso   1.00
C1078  C     0.51744   0.79606   0.59487   0.00000  Uiso   1.00
C1079  C     0.48252   0.87163   0.95152   0.00000  Uiso   1.00
C1080  C     0.51750   0.79505   0.54848   0.00000  Uiso   1.00
C1081  C     0.50001   0.83348   0.97671   0.00000  Uiso   1.00
C1082  C     0.50000   0.83320   0.52329   0.00000  Uiso   1.00
C1083  C     0.51775   0.79563   0.95531   0.00000  Uiso   1.00
C1084  C     0.48226   0.87104   0.54469   0.00000  Uiso   1.00
C1085  C     0.46543   0.90957   0.97345   0.00000  Uiso   1.00
C1086  C     0.53461   0.75712   0.52655   0.00000  Uiso   1.00
Cu1087 Cu    0.50000   0.88022   0.75000   0.00000  Uiso   1.00
Cu1088 Cu    0.50000   0.78645   0.75000   0.00000  Uiso   1.00
H1089  H     0.53358   0.76808   0.89302   0.00000  Uiso   1.00
H1090  H     0.46643   0.89859   0.60698   0.00000  Uiso   1.00
H1091  H     0.46870   0.89876   0.88499   0.00000  Uiso   1.00
H1092  H     0.53132   0.76792   0.61502   0.00000  Uiso   1.00
H1093  H     0.45191   0.93802   0.53631   0.00000  Uiso   1.00
H1094  H     0.54813   0.72867   0.96369   0.00000  Uiso   1.00
N1095  N     0.50000   0.95069   0.75000   0.00000  Uiso   1.00
N1096  N     0.50000   0.71598   0.75000   0.00000  Uiso   1.00
O1097  O     0.43988   0.87291   0.74999   0.00000  Uiso   1.00
O1098  O     0.56012   0.79375   0.75000   0.00000  Uiso   1.00
O1099  O     0.56012   0.87291   0.75000   0.00000  Uiso   1.00
O1100  O     0.43988   0.79375   0.74999   0.00000  Uiso   1.00
O1101  O     0.49999   0.87293   0.68513   0.00000  Uiso   1.00
O1102  O     0.50001   0.79373   0.81487   0.00000  Uiso   1.00
O1103  O     0.50001   0.87293   0.81487   0.00000  Uiso   1.00
O1104  O     0.49999   0.79373   0.68513   0.00000  Uiso   1.00
I1105  I     0.44006   0.96999   0.93983   0.00000  Uiso   1.00
I1106  I     0.56005   0.69673   0.56017   0.00000  Uiso   1.00
I1107  I     0.38714   0.74051   0.80752   0.00000  Uiso   1.00
I1108  I     0.61286   0.92616   0.69248   0.00000  Uiso   1.00
I1109  I     0.62473   0.72219   0.75134   0.00000  Uiso   1.00
I1110  I     0.37527   0.94448   0.74864   0.00000  Uiso   1.00
N1111  N     0.45598   0.71554   0.68099   0.00000  Uiso   1.00
H1112  H     0.43855   0.74342   0.69130   0.00000  Uiso   1.00
H1113  H     0.47596   0.72460   0.65651   0.00000  Uiso   1.00
N1114  N     0.54403   0.95113   0.81900   0.00000  Uiso   1.00
H1115  H     0.56147   0.92326   0.80869   0.00000  Uiso   1.00
H1116  H     0.52406   0.94207   0.84348   0.00000  Uiso   1.00
N1117  N     0.54073   0.71036   0.82059   0.00000  Uiso   1.00
H1118  H     0.55606   0.73983   0.81150   0.00000  Uiso   1.00
H1119  H     0.51794   0.71761   0.84258   0.00000  Uiso   1.00
N1120  N     0.45928   0.95631   0.67941   0.00000  Uiso   1.00
H1121  H     0.44394   0.92685   0.68849   0.00000  Uiso   1.00
H1122  H     0.48207   0.94906   0.65742   0.00000  Uiso   1.00
C1123  C     0.75427   0.83401   0.75303   0.00000  Uiso   1.00
C1124  C     0.91239   0.83266   0.74697   0.00000  Uiso   1.00
C1125  C     0.79854   0.90879   0.51974   0.00000  Uiso   1.00
C1126  C     0.86815   0.75790   0.98026   0.00000  Uiso   1.00
C1127  C     0.68959   0.79432   0.76673   0.00000  Uiso   1.00
C1128  C     0.97708   0.87234   0.73327   0.00000  Uiso   1.00
C1129  C     0.98087   0.79091   0.75674   0.00000  Uiso   1.00
C1130  C     0.68579   0.87575   0.74326   0.00000  Uiso   1.00
C1131  C     0.95722   0.83122   0.74393   0.00000  Uiso   1.00
C1132  C     0.70944   0.83545   0.75607   0.00000  Uiso   1.00
C1133  C     0.81189   0.69235   0.71737   0.00000  Uiso   1.00
C1134  C     0.85478   0.97432   0.78263   0.00000  Uiso   1.00
C1135  C     0.85440   0.68978   0.78278   0.00000  Uiso   1.00
C1136  C     0.81227   0.97689   0.71722   0.00000  Uiso   1.00
C1137  C     0.83307   0.83365   0.66445   0.00000  Uiso   1.00
C1138  C     0.83359   0.83302   0.83555   0.00000  Uiso   1.00
C1139  C     0.85155   0.79600   0.90914   0.00000  Uiso   1.00
C1140  C     0.81513   0.87067   0.59086   0.00000  Uiso   1.00
C1141  C     0.83348   0.83290   0.88399   0.00000  Uiso   1.00
C1142  C     0.83319   0.83377   0.61601   0.00000  Uiso   1.00
C1143  C     0.81592   0.87062   0.90513   0.00000  Uiso   1.00
C1144  C     0.85077   0.79606   0.59487   0.00000  Uiso   1.00
C1145  C     0.81585   0.87163   0.95152   0.00000  Uiso   1.00
C1146  C     0.85084   0.79505   0.54848   0.00000  Uiso   1.00
C1147  C     0.83334   0.83348   0.97671   0.00000  Uiso   1.00
C1148  C     0.83334   0.83320   0.52329   0.00000  Uiso   1.00
C1149  C     0.85109   0.79563   0.95531   0.00000  Uiso   1.00
C1150  C     0.81559   0.87104   0.54469   0.00000  Uiso   1.00
C1151  C     0.79876   0.90957   0.97345   0.00000  Uiso   1.00
C1152  C     0.86795   0.75712   0.52655   0.00000  Uiso   1.00
Cu1153 Cu    0.83333   0.88022   0.75000   0.00000  Uiso   1.00
Cu1154 Cu    0.83333   0.78645   0.75000   0.00000  Uiso   1.00
H1155  H     0.86691   0.76808   0.89302   0.00000  Uiso   1.00
H1156  H     0.79976   0.89859   0.60698   0.00000  Uiso   1.00
H1157  H     0.80203   0.89876   0.88499   0.00000  Uiso   1.00
H1158  H     0.86465   0.76792   0.61502   0.00000  Uiso   1.00
H1159  H     0.78524   0.93802   0.53631   0.00000  Uiso   1.00
H1160  H     0.88146   0.72867   0.96369   0.00000  Uiso   1.00
N1161  N     0.83333   0.95069   0.75000   0.00000  Uiso   1.00
N1162  N     0.83333   0.71598   0.75000   0.00000  Uiso   1.00
O1163  O     0.77321   0.87291   0.74999   0.00000  Uiso   1.00
O1164  O     0.89345   0.79375   0.75000   0.00000  Uiso   1.00
O1165  O     0.89345   0.87291   0.75000   0.00000  Uiso   1.00
O1166  O     0.77321   0.79375   0.74999   0.00000  Uiso   1.00
O1167  O     0.83332   0.87293   0.68513   0.00000  Uiso   1.00
O1168  O     0.83334   0.79373   0.81487   0.00000  Uiso   1.00
O1169  O     0.83334   0.87293   0.81487   0.00000  Uiso   1.00
O1170  O     0.83332   0.79373   0.68513   0.00000  Uiso   1.00
I1171  I     0.77340   0.96999   0.93983   0.00000  Uiso   1.00
I1172  I     0.89339   0.69673   0.56017   0.00000  Uiso   1.00
I1173  I     0.72048   0.74051   0.80752   0.00000  Uiso   1.00
I1174  I     0.94619   0.92616   0.69248   0.00000  Uiso   1.00
I1175  I     0.95806   0.72219   0.75134   0.00000  Uiso   1.00
I1176  I     0.70861   0.94448   0.74864   0.00000  Uiso   1.00
N1177  N     0.78931   0.71554   0.68099   0.00000  Uiso   1.00
H1178  H     0.77189   0.74342   0.69130   0.00000  Uiso   1.00
H1179  H     0.80929   0.72460   0.65651   0.00000  Uiso   1.00
N1180  N     0.87736   0.95113   0.81900   0.00000  Uiso   1.00
H1181  H     0.89480   0.92326   0.80869   0.00000  Uiso   1.00
H1182  H     0.85740   0.94207   0.84348   0.00000  Uiso   1.00
N1183  N     0.87406   0.71036   0.82059   0.00000  Uiso   1.00
H1184  H     0.88939   0.73983   0.81150   0.00000  Uiso   1.00
H1185  H     0.85128   0.71761   0.84258   0.00000  Uiso   1.00
N1186  N     0.79261   0.95631   0.67941   0.00000  Uiso   1.00
H1187  H     0.77727   0.92685   0.68849   0.00000  Uiso   1.00
H1188  H     0.81541   0.94906   0.65742   0.00000  Uiso   1.00
loop_
_geom_bond_atom_site_label_1
_geom_bond_atom_site_label_2
_geom_bond_distance
_geom_bond_site_symmetry_2
_ccdc_geom_bond_type
C1     O44     1.313   .     A
C1     O41     1.303   .     A
C1     C10     1.470   .     S
C2     O43     1.313   .     A
C2     O42     1.303   .     A
C2     C9      1.470   .     S
C3     C28     1.400   .     A
C3     H37     1.084   .     S
C3     C623    1.394   1_554 S
C4     C27     1.400   .     A
C4     H38     1.084   .     S
C4     C624    1.394   .     S
C5     C10     1.409   .     A
C5     I51     2.159   .     S
C5     C139    1.395   1_455 S
C6     C9      1.409   .     A
C6     I52     2.159   .     S
C6     C74     1.395   .     S
C7     I53     2.149   .     S
C7     C9      1.418   .     A
C7     C71     1.395   .     S
C8     I54     2.149   .     S
C8     C10     1.418   .     A
C8     C138    1.395   1_455 S
C11    N55     1.432   .     S
C11    N40     1.379   .     A
C11    C410    1.413   1_545 S
C12    N58     1.432   .     S
C12    N39     1.380   .     A
C12    C211    1.413   .     S
C13    N61     1.426   .     S
C13    N40     1.376   .     A
C13    C408    1.413   1_545 S
C14    N64     1.426   .     S
C14    N39     1.376   .     A
C14    C209    1.413   .     S
C15    O48     1.301   .     A
C15    C20     1.459   .     S
C15    O45     1.308   .     A
C16    C19     1.459   .     S
C16    O47     1.301   .     A
C16    O46     1.308   .     A
C17    H33     1.078   .     S
C17    C27     1.391   .     A
C17    C19     1.396   .     A
C18    H34     1.078   .     S
C18    C20     1.396   .     A
C18    C28     1.391   .     A
C19    C21     1.401   .     A
C20    C22     1.401   .     A
C21    H35     1.081   .     S
C21    C23     1.398   .     A
C22    C24     1.398   .     A
C22    H36     1.081   .     S
C23    C29     1.412   .     A
C23    C25     1.417   .     A
C24    C30     1.412   .     A
C24    C26     1.417   .     A
C25    C27     1.410   .     A
C25    C620    1.403   .     S
C26    C28     1.410   .     A
C26    C619    1.403   1_554 S
C29    I49     2.130   .     S
C29    C597    1.394   .     S
C30    I50     2.129   .     S
C30    C598    1.394   1_554 S
Cu31   Cu32    2.716   .     S
Cu31   N39     2.041   .     S
Cu31   O47     1.961   .     S
Cu31   O43     1.968   .     S
Cu31   O45     1.969   .     S
Cu31   O41     1.978   .     S
Cu32   O48     1.961   .     S
Cu32   O44     1.968   .     S
Cu32   N40     2.041   .     S
Cu32   O42     1.978   .     S
Cu32   O46     1.969   .     S
N55    H56     1.038   .     S
N55    H57     1.044   .     S
N58    H59     1.038   .     S
N58    H60     1.043   .     S
N61    H62     1.039   .     S
N61    H63     1.042   .     S
N64    H65     1.039   .     S
N64    H66     1.042   .     S
C67    O110    1.313   .     A
C67    O107    1.303   .     A
C67    C76     1.470   .     S
C68    O109    1.313   .     A
C68    O108    1.303   .     A
C68    C75     1.470   .     S
C69    C94     1.400   .     A
C69    H103    1.084   .     S
C69    C689    1.394   1_554 S
C70    C93     1.400   .     A
C70    H104    1.084   .     S
C70    C690    1.394   .     S
C71    C76     1.409   .     A
C71    I117    2.159   .     S
C72    C75     1.409   .     A
C72    I118    2.159   .     S
C72    C140    1.395   .     S
C73    I119    2.149   .     S
C73    C75     1.418   .     A
C73    C137    1.395   .     S
C74    I120    2.149   .     S
C74    C76     1.418   .     A
C77    N121    1.432   .     S
C77    N106    1.379   .     A
C77    C476    1.413   1_545 S
C78    N124    1.432   .     S
C78    N105    1.380   .     A
C78    C277    1.413   .     S
C79    N127    1.426   .     S
C79    N106    1.376   .     A
C79    C474    1.413   1_545 S
C80    N130    1.426   .     S
C80    N105    1.376   .     A
C80    C275    1.413   .     S
C81    O114    1.301   .     A
C81    C86     1.459   .     S
C81    O111    1.308   .     A
C82    C85     1.459   .     S
C82    O113    1.301   .     A
C82    O112    1.308   .     A
C83    H99     1.078   .     S
C83    C93     1.391   .     A
C83    C85     1.396   .     A
C84    H100    1.078   .     S
C84    C86     1.396   .     A
C84    C94     1.391   .     A
C85    C87     1.401   .     A
C86    C88     1.401   .     A
C87    H101    1.081   .     S
C87    C89     1.398   .     A
C88    C90     1.398   .     A
C88    H102    1.081   .     S
C89    C95     1.412   .     A
C89    C91     1.417   .     A
C90    C96     1.412   .     A
C90    C92     1.417   .     A
C91    C93     1.410   .     A
C91    C686    1.403   .     S
C92    C94     1.410   .     A
C92    C685    1.403   1_554 S
C95    I115    2.130   .     S
C95    C663    1.394   .     S
C96    I116    2.129   .     S
C96    C664    1.394   1_554 S
Cu97   Cu98    2.716   .     S
Cu97   N105    2.041   .     S
Cu97   O113    1.961   .     S
Cu97   O109    1.968   .     S
Cu97   O111    1.969   .     S
Cu97   O107    1.978   .     S
Cu98   O114    1.961   .     S
Cu98   O110    1.968   .     S
Cu98   N106    2.041   .     S
Cu98   O108    1.978   .     S
Cu98   O112    1.969   .     S
N121   H122    1.038   .     S
N121   H123    1.044   .     S
N124   H125    1.038   .     S
N124   H126    1.043   .     S
N127   H128    1.039   .     S
N127   H129    1.042   .     S
N130   H131    1.039   .     S
N130   H132    1.042   .     S
C133   O176    1.313   .     A
C133   O173    1.303   .     A
C133   C142    1.470   .     S
C134   O175    1.313   .     A
C134   O174    1.303   .     A
C134   C141    1.470   .     S
C135   C160    1.400   .     A
C135   H169    1.084   .     S
C135   C755    1.394   1_554 S
C136   C159    1.400   .     A
C136   H170    1.084   .     S
C136   C756    1.394   .     S
C137   C142    1.409   .     A
C137   I183    2.159   .     S
C138   C141    1.409   .     A
C138   I184    2.159   .     S
C138   C8      1.395   1_655 S
C139   I185    2.149   .     S
C139   C141    1.418   .     A
C139   C5      1.395   1_655 S
C140   I186    2.149   .     S
C140   C142    1.418   .     A
C143   N187    1.432   .     S
C143   N172    1.379   .     A
C143   C542    1.413   1_545 S
C144   N190    1.432   .     S
C144   N171    1.380   .     A
C144   C343    1.413   .     S
C145   N193    1.426   .     S
C145   N172    1.376   .     A
C145   C540    1.413   1_545 S
C146   N196    1.426   .     S
C146   N171    1.376   .     A
C146   C341    1.413   .     S
C147   O180    1.301   .     A
C147   C152    1.459   .     S
C147   O177    1.308   .     A
C148   C151    1.459   .     S
C148   O179    1.301   .     A
C148   O178    1.308   .     A
C149   H165    1.078   .     S
C149   C159    1.391   .     A
C149   C151    1.396   .     A
C150   H166    1.078   .     S
C150   C152    1.396   .     A
C150   C160    1.391   .     A
C151   C153    1.401   .     A
C152   C154    1.401   .     A
C153   H167    1.081   .     S
C153   C155    1.398   .     A
C154   C156    1.398   .     A
C154   H168    1.081   .     S
C155   C161    1.412   .     A
C155   C157    1.417   .     A
C156   C162    1.412   .     A
C156   C158    1.417   .     A
C157   C159    1.410   .     A
C157   C752    1.403   .     S
C158   C160    1.410   .     A
C158   C751    1.403   1_554 S
C161   I181    2.130   .     S
C161   C729    1.394   .     S
C162   I182    2.129   .     S
C162   C730    1.394   1_554 S
Cu163  Cu164   2.716   .     S
Cu163  N171    2.041   .     S
Cu163  O179    1.961   .     S
Cu163  O175    1.968   .     S
Cu163  O177    1.969   .     S
Cu163  O173    1.978   .     S
Cu164  O180    1.961   .     S
Cu164  O176    1.968   .     S
Cu164  N172    2.041   .     S
Cu164  O174    1.978   .     S
Cu164  O178    1.969   .     S
N187   H188    1.038   .     S
N187   H189    1.044   .     S
N190   H191    1.038   .     S
N190   H192    1.043   .     S
N193   H194    1.039   .     S
N193   H195    1.042   .     S
N196   H197    1.039   .     S
N196   H198    1.042   .     S
C199   O242    1.313   .     A
C199   O239    1.303   .     A
C199   C208    1.470   .     S
C200   O241    1.313   .     A
C200   O240    1.303   .     A
C200   C207    1.470   .     S
C201   C226    1.400   .     A
C201   H235    1.084   .     S
C201   C821    1.394   1_554 S
C202   C225    1.400   .     A
C202   H236    1.084   .     S
C202   C822    1.394   .     S
C203   C208    1.409   .     A
C203   I249    2.159   .     S
C203   C337    1.395   1_455 S
C204   C207    1.409   .     A
C204   I250    2.159   .     S
C204   C272    1.395   .     S
C205   I251    2.149   .     S
C205   C207    1.418   .     A
C205   C269    1.395   .     S
C206   I252    2.149   .     S
C206   C208    1.418   .     A
C206   C336    1.395   1_455 S
C209   N253    1.432   .     S
C209   N238    1.379   .     A
C210   N256    1.432   .     S
C210   N237    1.380   .     A
C210   C409    1.413   .     S
C211   N259    1.426   .     S
C211   N238    1.376   .     A
C212   N262    1.426   .     S
C212   N237    1.376   .     A
C212   C407    1.413   .     S
C213   O246    1.301   .     A
C213   C218    1.459   .     S
C213   O243    1.308   .     A
C214   C217    1.459   .     S
C214   O245    1.301   .     A
C214   O244    1.308   .     A
C215   H231    1.078   .     S
C215   C225    1.391   .     A
C215   C217    1.396   .     A
C216   H232    1.078   .     S
C216   C218    1.396   .     A
C216   C226    1.391   .     A
C217   C219    1.401   .     A
C218   C220    1.401   .     A
C219   H233    1.081   .     S
C219   C221    1.398   .     A
C220   C222    1.398   .     A
C220   H234    1.081   .     S
C221   C227    1.412   .     A
C221   C223    1.417   .     A
C222   C228    1.412   .     A
C222   C224    1.417   .     A
C223   C225    1.410   .     A
C223   C818    1.403   .     S
C224   C226    1.410   .     A
C224   C817    1.403   1_554 S
C227   I247    2.130   .     S
C227   C795    1.394   .     S
C228   I248    2.129   .     S
C228   C796    1.394   1_554 S
Cu229  Cu230   2.716   .     S
Cu229  N237    2.041   .     S
Cu229  O245    1.961   .     S
Cu229  O241    1.968   .     S
Cu229  O243    1.969   .     S
Cu229  O239    1.978   .     S
Cu230  O246    1.961   .     S
Cu230  O242    1.968   .     S
Cu230  N238    2.041   .     S
Cu230  O240    1.978   .     S
Cu230  O244    1.969   .     S
N253   H254    1.038   .     S
N253   H255    1.044   .     S
N256   H257    1.038   .     S
N256   H258    1.043   .     S
N259   H260    1.039   .     S
N259   H261    1.042   .     S
N262   H263    1.039   .     S
N262   H264    1.042   .     S
C265   O308    1.313   .     A
C265   O305    1.303   .     A
C265   C274    1.470   .     S
C266   O307    1.313   .     A
C266   O306    1.303   .     A
C266   C273    1.470   .     S
C267   C292    1.400   .     A
C267   H301    1.084   .     S
C267   C887    1.394   1_554 S
C268   C291    1.400   .     A
C268   H302    1.084   .     S
C268   C888    1.394   .     S
C269   C274    1.409   .     A
C269   I315    2.159   .     S
C270   C273    1.409   .     A
C270   I316    2.159   .     S
C270   C338    1.395   .     S
C271   I317    2.149   .     S
C271   C273    1.418   .     A
C271   C335    1.395   .     S
C272   I318    2.149   .     S
C272   C274    1.418   .     A
C275   N319    1.432   .     S
C275   N304    1.379   .     A
C276   N322    1.432   .     S
C276   N303    1.380   .     A
C276   C475    1.413   .     S
C277   N325    1.426   .     S
C277   N304    1.376   .     A
C278   N328    1.426   .     S
C278   N303    1.376   .     A
C278   C473    1.413   .     S
C279   O312    1.301   .     A
C279   C284    1.459   .     S
C279   O309    1.308   .     A
C280   C283    1.459   .     S
C280   O311    1.301   .     A
C280   O310    1.308   .     A
C281   H297    1.078   .     S
C281   C291    1.391   .     A
C281   C283    1.396   .     A
C282   H298    1.078   .     S
C282   C284    1.396   .     A
C282   C292    1.391   .     A
C283   C285    1.401   .     A
C284   C286    1.401   .     A
C285   H299    1.081   .     S
C285   C287    1.398   .     A
C286   C288    1.398   .     A
C286   H300    1.081   .     S
C287   C293    1.412   .     A
C287   C289    1.417   .     A
C288   C294    1.412   .     A
C288   C290    1.417   .     A
C289   C291    1.410   .     A
C289   C884    1.403   .     S
C290   C292    1.410   .     A
C290   C883    1.403   1_554 S
C293   I313    2.130   .     S
C293   C861    1.394   .     S
C294   I314    2.129   .     S
C294   C862    1.394   1_554 S
Cu295  Cu296   2.716   .     S
Cu295  N303    2.041   .     S
Cu295  O311    1.961   .     S
Cu295  O307    1.968   .     S
Cu295  O309    1.969   .     S
Cu295  O305    1.978   .     S
Cu296  O312    1.961   .     S
Cu296  O308    1.968   .     S
Cu296  N304    2.041   .     S
Cu296  O306    1.978   .     S
Cu296  O310    1.969   .     S
N319   H320    1.038   .     S
N319   H321    1.044   .     S
N322   H323    1.038   .     S
N322   H324    1.043   .     S
N325   H326    1.039   .     S
N325   H327    1.042   .     S
N328   H329    1.039   .     S
N328   H330    1.042   .     S
C331   O374    1.313   .     A
C331   O371    1.303   .     A
C331   C340    1.470   .     S
C332   O373    1.313   .     A
C332   O372    1.303   .     A
C332   C339    1.470   .     S
C333   C358    1.400   .     A
C333   H367    1.084   .     S
C333   C953    1.394   1_554 S
C334   C357    1.400   .     A
C334   H368    1.084   .     S
C334   C954    1.394   .     S
C335   C340    1.409   .     A
C335   I381    2.159   .     S
C336   C339    1.409   .     A
C336   I382    2.159   .     S
C336   C206    1.395   1_655 S
C337   I383    2.149   .     S
C337   C339    1.418   .     A
C337   C203    1.395   1_655 S
C338   I384    2.149   .     S
C338   C340    1.418   .     A
C341   N385    1.432   .     S
C341   N370    1.379   .     A
C342   N388    1.432   .     S
C342   N369    1.380   .     A
C342   C541    1.413   .     S
C343   N391    1.426   .     S
C343   N370    1.376   .     A
C344   N394    1.426   .     S
C344   N369    1.376   .     A
C344   C539    1.413   .     S
C345   O378    1.301   .     A
C345   C350    1.459   .     S
C345   O375    1.308   .     A
C346   C349    1.459   .     S
C346   O377    1.301   .     A
C346   O376    1.308   .     A
C347   H363    1.078   .     S
C347   C357    1.391   .     A
C347   C349    1.396   .     A
C348   H364    1.078   .     S
C348   C350    1.396   .     A
C348   C358    1.391   .     A
C349   C351    1.401   .     A
C350   C352    1.401   .     A
C351   H365    1.081   .     S
C351   C353    1.398   .     A
C352   C354    1.398   .     A
C352   H366    1.081   .     S
C353   C359    1.412   .     A
C353   C355    1.417   .     A
C354   C360    1.412   .     A
C354   C356    1.417   .     A
C355   C357    1.410   .     A
C355   C950    1.403   .     S
C356   C358    1.410   .     A
C356   C949    1.403   1_554 S
C359   I379    2.130   .     S
C359   C927    1.394   .     S
C360   I380    2.129   .     S
C360   C928    1.394   1_554 S
Cu361  Cu362   2.716   .     S
Cu361  N369    2.041   .     S
Cu361  O377    1.961   .     S
Cu361  O373    1.968   .     S
Cu361  O375    1.969   .     S
Cu361  O371    1.978   .     S
Cu362  O378    1.961   .     S
Cu362  O374    1.968   .     S
Cu362  N370    2.041   .     S
Cu362  O372    1.978   .     S
Cu362  O376    1.969   .     S
N385   H386    1.038   .     S
N385   H387    1.044   .     S
N388   H389    1.038   .     S
N388   H390    1.043   .     S
N391   H392    1.039   .     S
N391   H393    1.042   .     S
N394   H395    1.039   .     S
N394   H396    1.042   .     S
C397   O440    1.313   .     A
C397   O437    1.303   .     A
C397   C406    1.470   .     S
C398   O439    1.313   .     A
C398   O438    1.303   .     A
C398   C405    1.470   .     S
C399   C424    1.400   .     A
C399   H433    1.084   .     S
C399   C1019   1.394   1_554 S
C400   C423    1.400   .     A
C400   H434    1.084   .     S
C400   C1020   1.394   .     S
C401   C406    1.409   .     A
C401   I447    2.159   .     S
C401   C535    1.395   1_455 S
C402   C405    1.409   .     A
C402   I448    2.159   .     S
C402   C470    1.395   .     S
C403   I449    2.149   .     S
C403   C405    1.418   .     A
C403   C467    1.395   .     S
C404   I450    2.149   .     S
C404   C406    1.418   .     A
C404   C534    1.395   1_455 S
C407   N451    1.432   .     S
C407   N436    1.379   .     A
C408   N454    1.432   .     S
C408   N435    1.380   .     A
C408   C13     1.413   1_565 S
C409   N457    1.426   .     S
C409   N436    1.376   .     A
C410   N460    1.426   .     S
C410   N435    1.376   .     A
C410   C11     1.413   1_565 S
C411   O444    1.301   .     A
C411   C416    1.459   .     S
C411   O441    1.308   .     A
C412   C415    1.459   .     S
C412   O443    1.301   .     A
C412   O442    1.308   .     A
C413   H429    1.078   .     S
C413   C423    1.391   .     A
C413   C415    1.396   .     A
C414   H430    1.078   .     S
C414   C416    1.396   .     A
C414   C424    1.391   .     A
C415   C417    1.401   .     A
C416   C418    1.401   .     A
C417   H431    1.081   .     S
C417   C419    1.398   .     A
C418   C420    1.398   .     A
C418   H432    1.081   .     S
C419   C425    1.412   .     A
C419   C421    1.417   .     A
C420   C426    1.412   .     A
C420   C422    1.417   .     A
C421   C423    1.410   .     A
C421   C1016   1.403   .     S
C422   C424    1.410   .     A
C422   C1015   1.403   1_554 S
C425   I445    2.130   .     S
C425   C993    1.394   .     S
C426   I446    2.129   .     S
C426   C994    1.394   1_554 S
Cu427  Cu428   2.716   .     S
Cu427  N435    2.041   .     S
Cu427  O443    1.961   .     S
Cu427  O439    1.968   .     S
Cu427  O441    1.969   .     S
Cu427  O437    1.978   .     S
Cu428  O444    1.961   .     S
Cu428  O440    1.968   .     S
Cu428  N436    2.041   .     S
Cu428  O438    1.978   .     S
Cu428  O442    1.969   .     S
N451   H452    1.038   .     S
N451   H453    1.044   .     S
N454   H455    1.038   .     S
N454   H456    1.043   .     S
N457   H458    1.039   .     S
N457   H459    1.042   .     S
N460   H461    1.039   .     S
N460   H462    1.042   .     S
C463   O506    1.313   .     A
C463   O503    1.303   .     A
C463   C472    1.470   .     S
C464   O505    1.313   .     A
C464   O504    1.303   .     A
C464   C471    1.470   .     S
C465   C490    1.400   .     A
C465   H499    1.084   .     S
C465   C1085   1.394   1_554 S
C466   C489    1.400   .     A
C466   H500    1.084   .     S
C466   C1086   1.394   .     S
C467   C472    1.409   .     A
C467   I513    2.159   .     S
C468   C471    1.409   .     A
C468   I514    2.159   .     S
C468   C536    1.395   .     S
C469   I515    2.149   .     S
C469   C471    1.418   .     A
C469   C533    1.395   .     S
C470   I516    2.149   .     S
C470   C472    1.418   .     A
C473   N517    1.432   .     S
C473   N502    1.379   .     A
C474   N520    1.432   .     S
C474   N501    1.380   .     A
C474   C79     1.413   1_565 S
C475   N523    1.426   .     S
C475   N502    1.376   .     A
C476   N526    1.426   .     S
C476   N501    1.376   .     A
C476   C77     1.413   1_565 S
C477   O510    1.301   .     A
C477   C482    1.459   .     S
C477   O507    1.308   .     A
C478   C481    1.459   .     S
C478   O509    1.301   .     A
C478   O508    1.308   .     A
C479   H495    1.078   .     S
C479   C489    1.391   .     A
C479   C481    1.396   .     A
C480   H496    1.078   .     S
C480   C482    1.396   .     A
C480   C490    1.391   .     A
C481   C483    1.401   .     A
C482   C484    1.401   .     A
C483   H497    1.081   .     S
C483   C485    1.398   .     A
C484   C486    1.398   .     A
C484   H498    1.081   .     S
C485   C491    1.412   .     A
C485   C487    1.417   .     A
C486   C492    1.412   .     A
C486   C488    1.417   .     A
C487   C489    1.410   .     A
C487   C1082   1.403   .     S
C488   C490    1.410   .     A
C488   C1081   1.403   1_554 S
C491   I511    2.130   .     S
C491   C1059   1.394   .     S
C492   I512    2.129   .     S
C492   C1060   1.394   1_554 S
Cu493  Cu494   2.716   .     S
Cu493  N501    2.041   .     S
Cu493  O509    1.961   .     S
Cu493  O505    1.968   .     S
Cu493  O507    1.969   .     S
Cu493  O503    1.978   .     S
Cu494  O510    1.961   .     S
Cu494  O506    1.968   .     S
Cu494  N502    2.041   .     S
Cu494  O504    1.978   .     S
Cu494  O508    1.969   .     S
N517   H518    1.038   .     S
N517   H519    1.044   .     S
N520   H521    1.038   .     S
N520   H522    1.043   .     S
N523   H524    1.039   .     S
N523   H525    1.042   .     S
N526   H527    1.039   .     S
N526   H528    1.042   .     S
C529   O572    1.313   .     A
C529   O569    1.303   .     A
C529   C538    1.470   .     S
C530   O571    1.313   .     A
C530   O570    1.303   .     A
C530   C537    1.470   .     S
C531   C556    1.400   .     A
C531   H565    1.084   .     S
C531   C1151   1.394   1_554 S
C532   C555    1.400   .     A
C532   H566    1.084   .     S
C532   C1152   1.394   .     S
C533   C538    1.409   .     A
C533   I579    2.159   .     S
C534   C537    1.409   .     A
C534   I580    2.159   .     S
C534   C404    1.395   1_655 S
C535   I581    2.149   .     S
C535   C537    1.418   .     A
C535   C401    1.395   1_655 S
C536   I582    2.149   .     S
C536   C538    1.418   .     A
C539   N583    1.432   .     S
C539   N568    1.379   .     A
C540   N586    1.432   .     S
C540   N567    1.380   .     A
C540   C145    1.413   1_565 S
C541   N589    1.426   .     S
C541   N568    1.376   .     A
C542   N592    1.426   .     S
C542   N567    1.376   .     A
C542   C143    1.413   1_565 S
C543   O576    1.301   .     A
C543   C548    1.459   .     S
C543   O573    1.308   .     A
C544   C547    1.459   .     S
C544   O575    1.301   .     A
C544   O574    1.308   .     A
C545   H561    1.078   .     S
C545   C555    1.391   .     A
C545   C547    1.396   .     A
C546   H562    1.078   .     S
C546   C548    1.396   .     A
C546   C556    1.391   .     A
C547   C549    1.401   .     A
C548   C550    1.401   .     A
C549   H563    1.081   .     S
C549   C551    1.398   .     A
C550   C552    1.398   .     A
C550   H564    1.081   .     S
C551   C557    1.412   .     A
C551   C553    1.417   .     A
C552   C558    1.412   .     A
C552   C554    1.417   .     A
C553   C555    1.410   .     A
C553   C1148   1.403   .     S
C554   C556    1.410   .     A
C554   C1147   1.403   1_554 S
C557   I577    2.130   .     S
C557   C1125   1.394   .     S
C558   I578    2.129   .     S
C558   C1126   1.394   1_554 S
Cu559  Cu560   2.716   .     S
Cu559  N567    2.041   .     S
Cu559  O575    1.961   .     S
Cu559  O571    1.968   .     S
Cu559  O573    1.969   .     S
Cu559  O569    1.978   .     S
Cu560  O576    1.961   .     S
Cu560  O572    1.968   .     S
Cu560  N568    2.041   .     S
Cu560  O570    1.978   .     S
Cu560  O574    1.969   .     S
N583   H584    1.038   .     S
N583   H585    1.044   .     S
N586   H587    1.038   .     S
N586   H588    1.043   .     S
N589   H590    1.039   .     S
N589   H591    1.042   .     S
N592   H593    1.039   .     S
N592   H594    1.042   .     S
C595   O638    1.313   .     A
C595   O635    1.303   .     A
C595   C604    1.470   .     S
C596   O637    1.313   .     A
C596   O636    1.303   .     A
C596   C603    1.470   .     S
C597   C622    1.400   .     A
C597   H631    1.084   .     S
C598   C621    1.400   .     A
C598   H632    1.084   .     S
C598   C30     1.394   1_556 S
C599   C604    1.409   .     A
C599   I645    2.159   .     S
C599   C733    1.395   1_455 S
C600   C603    1.409   .     A
C600   I646    2.159   .     S
C600   C668    1.395   .     S
C601   I647    2.149   .     S
C601   C603    1.418   .     A
C601   C665    1.395   .     S
C602   I648    2.149   .     S
C602   C604    1.418   .     A
C602   C732    1.395   1_455 S
C605   N649    1.432   .     S
C605   N634    1.379   .     A
C605   C1004   1.413   1_545 S
C606   N652    1.432   .     S
C606   N633    1.380   .     A
C606   C805    1.413   .     S
C607   N655    1.426   .     S
C607   N634    1.376   .     A
C607   C1002   1.413   1_545 S
C608   N658    1.426   .     S
C608   N633    1.376   .     A
C608   C803    1.413   .     S
C609   O642    1.301   .     A
C609   C614    1.459   .     S
C609   O639    1.308   .     A
C610   C613    1.459   .     S
C610   O641    1.301   .     A
C610   O640    1.308   .     A
C611   H627    1.078   .     S
C611   C621    1.391   .     A
C611   C613    1.396   .     A
C612   H628    1.078   .     S
C612   C614    1.396   .     A
C612   C622    1.391   .     A
C613   C615    1.401   .     A
C614   C616    1.401   .     A
C615   H629    1.081   .     S
C615   C617    1.398   .     A
C616   C618    1.398   .     A
C616   H630    1.081   .     S
C617   C623    1.412   .     A
C617   C619    1.417   .     A
C618   C624    1.412   .     A
C618   C620    1.417   .     A
C619   C621    1.410   .     A
C619   C26     1.403   1_556 S
C620   C622    1.410   .     A
C623   I643    2.130   .     S
C623   C3      1.394   1_556 S
C624   I644    2.129   .     S
Cu625  Cu626   2.716   .     S
Cu625  N633    2.041   .     S
Cu625  O641    1.961   .     S
Cu625  O637    1.968   .     S
Cu625  O639    1.969   .     S
Cu625  O635    1.978   .     S
Cu626  O642    1.961   .     S
Cu626  O638    1.968   .     S
Cu626  N634    2.041   .     S
Cu626  O636    1.978   .     S
Cu626  O640    1.969   .     S
N649   H650    1.038   .     S
N649   H651    1.044   .     S
N652   H653    1.038   .     S
N652   H654    1.043   .     S
N655   H656    1.039   .     S
N655   H657    1.042   .     S
N658   H659    1.039   .     S
N658   H660    1.042   .     S
C661   O704    1.313   .     A
C661   O701    1.303   .     A
C661   C670    1.470   .     S
C662   O703    1.313   .     A
C662   O702    1.303   .     A
C662   C669    1.470   .     S
C663   C688    1.400   .     A
C663   H697    1.084   .     S
C664   C687    1.400   .     A
C664   H698    1.084   .     S
C664   C96     1.394   1_556 S
C665   C670    1.409   .     A
C665   I711    2.159   .     S
C666   C669    1.409   .     A
C666   I712    2.159   .     S
C666   C734    1.395   .     S
C667   I713    2.149   .     S
C667   C669    1.418   .     A
C667   C731    1.395   .     S
C668   I714    2.149   .     S
C668   C670    1.418   .     A
C671   N715    1.432   .     S
C671   N700    1.379   .     A
C671   C1070   1.413   1_545 S
C672   N718    1.432   .     S
C672   N699    1.380   .     A
C672   C871    1.413   .     S
C673   N721    1.426   .     S
C673   N700    1.376   .     A
C673   C1068   1.413   1_545 S
C674   N724    1.426   .     S
C674   N699    1.376   .     A
C674   C869    1.413   .     S
C675   O708    1.301   .     A
C675   C680    1.459   .     S
C675   O705    1.308   .     A
C676   C679    1.459   .     S
C676   O707    1.301   .     A
C676   O706    1.308   .     A
C677   H693    1.078   .     S
C677   C687    1.391   .     A
C677   C679    1.396   .     A
C678   H694    1.078   .     S
C678   C680    1.396   .     A
C678   C688    1.391   .     A
C679   C681    1.401   .     A
C680   C682    1.401   .     A
C681   H695    1.081   .     S
C681   C683    1.398   .     A
C682   C684    1.398   .     A
C682   H696    1.081   .     S
C683   C689    1.412   .     A
C683   C685    1.417   .     A
C684   C690    1.412   .     A
C684   C686    1.417   .     A
C685   C687    1.410   .     A
C685   C92     1.403   1_556 S
C686   C688    1.410   .     A
C689   I709    2.130   .     S
C689   C69     1.394   1_556 S
C690   I710    2.129   .     S
Cu691  Cu692   2.716   .     S
Cu691  N699    2.041   .     S
Cu691  O707    1.961   .     S
Cu691  O703    1.968   .     S
Cu691  O705    1.969   .     S
Cu691  O701    1.978   .     S
Cu692  O708    1.961   .     S
Cu692  O704    1.968   .     S
Cu692  N700    2.041   .     S
Cu692  O702    1.978   .     S
Cu692  O706    1.969   .     S
N715   H716    1.038   .     S
N715   H717    1.044   .     S
N718   H719    1.038   .     S
N718   H720    1.043   .     S
N721   H722    1.039   .     S
N721   H723    1.042   .     S
N724   H725    1.039   .     S
N724   H726    1.042   .     S
C727   O770    1.313   .     A
C727   O767    1.303   .     A
C727   C736    1.470   .     S
C728   O769    1.313   .     A
C728   O768    1.303   .     A
C728   C735    1.470   .     S
C729   C754    1.400   .     A
C729   H763    1.084   .     S
C730   C753    1.400   .     A
C730   H764    1.084   .     S
C730   C162    1.394   1_556 S
C731   C736    1.409   .     A
C731   I777    2.159   .     S
C732   C735    1.409   .     A
C732   I778    2.159   .     S
C732   C602    1.395   1_655 S
C733   I779    2.149   .     S
C733   C735    1.418   .     A
C733   C599    1.395   1_655 S
C734   I780    2.149   .     S
C734   C736    1.418   .     A
C737   N781    1.432   .     S
C737   N766    1.379   .     A
C737   C1136   1.413   1_545 S
C738   N784    1.432   .     S
C738   N765    1.380   .     A
C738   C937    1.413   .     S
C739   N787    1.426   .     S
C739   N766    1.376   .     A
C739   C1134   1.413   1_545 S
C740   N790    1.426   .     S
C740   N765    1.376   .     A
C740   C935    1.413   .     S
C741   O774    1.301   .     A
C741   C746    1.459   .     S
C741   O771    1.308   .     A
C742   C745    1.459   .     S
C742   O773    1.301   .     A
C742   O772    1.308   .     A
C743   H759    1.078   .     S
C743   C753    1.391   .     A
C743   C745    1.396   .     A
C744   H760    1.078   .     S
C744   C746    1.396   .     A
C744   C754    1.391   .     A
C745   C747    1.401   .     A
C746   C748    1.401   .     A
C747   H761    1.081   .     S
C747   C749    1.398   .     A
C748   C750    1.398   .     A
C748   H762    1.081   .     S
C749   C755    1.412   .     A
C749   C751    1.417   .     A
C750   C756    1.412   .     A
C750   C752    1.417   .     A
C751   C753    1.410   .     A
C751   C158    1.403   1_556 S
C752   C754    1.410   .     A
C755   I775    2.130   .     S
C755   C135    1.394   1_556 S
C756   I776    2.129   .     S
Cu757  Cu758   2.716   .     S
Cu757  N765    2.041   .     S
Cu757  O773    1.961   .     S
Cu757  O769    1.968   .     S
Cu757  O771    1.969   .     S
Cu757  O767    1.978   .     S
Cu758  O774    1.961   .     S
Cu758  O770    1.968   .     S
Cu758  N766    2.041   .     S
Cu758  O768    1.978   .     S
Cu758  O772    1.969   .     S
N781   H782    1.038   .     S
N781   H783    1.044   .     S
N784   H785    1.038   .     S
N784   H786    1.043   .     S
N787   H788    1.039   .     S
N787   H789    1.042   .     S
N790   H791    1.039   .     S
N790   H792    1.042   .     S
C793   O836    1.313   .     A
C793   O833    1.303   .     A
C793   C802    1.470   .     S
C794   O835    1.313   .     A
C794   O834    1.303   .     A
C794   C801    1.470   .     S
C795   C820    1.400   .     A
C795   H829    1.084   .     S
C796   C819    1.400   .     A
C796   H830    1.084   .     S
C796   C228    1.394   1_556 S
C797   C802    1.409   .     A
C797   I843    2.159   .     S
C797   C931    1.395   1_455 S
C798   C801    1.409   .     A
C798   I844    2.159   .     S
C798   C866    1.395   .     S
C799   I845    2.149   .     S
C799   C801    1.418   .     A
C799   C863    1.395   .     S
C800   I846    2.149   .     S
C800   C802    1.418   .     A
C800   C930    1.395   1_455 S
C803   N847    1.432   .     S
C803   N832    1.379   .     A
C804   N850    1.432   .     S
C804   N831    1.380   .     A
C804   C1003   1.413   .     S
C805   N853    1.426   .     S
C805   N832    1.376   .     A
C806   N856    1.426   .     S
C806   N831    1.376   .     A
C806   C1001   1.413   .     S
C807   O840    1.301   .     A
C807   C812    1.459   .     S
C807   O837    1.308   .     A
C808   C811    1.459   .     S
C808   O839    1.301   .     A
C808   O838    1.308   .     A
C809   H825    1.078   .     S
C809   C819    1.391   .     A
C809   C811    1.396   .     A
C810   H826    1.078   .     S
C810   C812    1.396   .     A
C810   C820    1.391   .     A
C811   C813    1.401   .     A
C812   C814    1.401   .     A
C813   H827    1.081   .     S
C813   C815    1.398   .     A
C814   C816    1.398   .     A
C814   H828    1.081   .     S
C815   C821    1.412   .     A
C815   C817    1.417   .     A
C816   C822    1.412   .     A
C816   C818    1.417   .     A
C817   C819    1.410   .     A
C817   C224    1.403   1_556 S
C818   C820    1.410   .     A
C821   I841    2.130   .     S
C821   C201    1.394   1_556 S
C822   I842    2.129   .     S
Cu823  Cu824   2.716   .     S
Cu823  N831    2.041   .     S
Cu823  O839    1.961   .     S
Cu823  O835    1.968   .     S
Cu823  O837    1.969   .     S
Cu823  O833    1.978   .     S
Cu824  O840    1.961   .     S
Cu824  O836    1.968   .     S
Cu824  N832    2.041   .     S
Cu824  O834    1.978   .     S
Cu824  O838    1.969   .     S
N847   H848    1.038   .     S
N847   H849    1.044   .     S
N850   H851    1.038   .     S
N850   H852    1.043   .     S
N853   H854    1.039   .     S
N853   H855    1.042   .     S
N856   H857    1.039   .     S
N856   H858    1.042   .     S
C859   O902    1.313   .     A
C859   O899    1.303   .     A
C859   C868    1.470   .     S
C860   O901    1.313   .     A
C860   O900    1.303   .     A
C860   C867    1.470   .     S
C861   C886    1.400   .     A
C861   H895    1.084   .     S
C862   C885    1.400   .     A
C862   H896    1.084   .     S
C862   C294    1.394   1_556 S
C863   C868    1.409   .     A
C863   I909    2.159   .     S
C864   C867    1.409   .     A
C864   I910    2.159   .     S
C864   C932    1.395   .     S
C865   I911    2.149   .     S
C865   C867    1.418   .     A
C865   C929    1.395   .     S
C866   I912    2.149   .     S
C866   C868    1.418   .     A
C869   N913    1.432   .     S
C869   N898    1.379   .     A
C870   N916    1.432   .     S
C870   N897    1.380   .     A
C870   C1069   1.413   .     S
C871   N919    1.426   .     S
C871   N898    1.376   .     A
C872   N922    1.426   .     S
C872   N897    1.376   .     A
C872   C1067   1.413   .     S
C873   O906    1.301   .     A
C873   C878    1.459   .     S
C873   O903    1.308   .     A
C874   C877    1.459   .     S
C874   O905    1.301   .     A
C874   O904    1.308   .     A
C875   H891    1.078   .     S
C875   C885    1.391   .     A
C875   C877    1.396   .     A
C876   H892    1.078   .     S
C876   C878    1.396   .     A
C876   C886    1.391   .     A
C877   C879    1.401   .     A
C878   C880    1.401   .     A
C879   H893    1.081   .     S
C879   C881    1.398   .     A
C880   C882    1.398   .     A
C880   H894    1.081   .     S
C881   C887    1.412   .     A
C881   C883    1.417   .     A
C882   C888    1.412   .     A
C882   C884    1.417   .     A
C883   C885    1.410   .     A
C883   C290    1.403   1_556 S
C884   C886    1.410   .     A
C887   I907    2.130   .     S
C887   C267    1.394   1_556 S
C888   I908    2.129   .     S
Cu889  Cu890   2.716   .     S
Cu889  N897    2.041   .     S
Cu889  O905    1.961   .     S
Cu889  O901    1.968   .     S
Cu889  O903    1.969   .     S
Cu889  O899    1.978   .     S
Cu890  O906    1.961   .     S
Cu890  O902    1.968   .     S
Cu890  N898    2.041   .     S
Cu890  O900    1.978   .     S
Cu890  O904    1.969   .     S
N913   H914    1.038   .     S
N913   H915    1.044   .     S
N916   H917    1.038   .     S
N916   H918    1.043   .     S
N919   H920    1.039   .     S
N919   H921    1.042   .     S
N922   H923    1.039   .     S
N922   H924    1.042   .     S
C925   O968    1.313   .     A
C925   O965    1.303   .     A
C925   C934    1.470   .     S
C926   O967    1.313   .     A
C926   O966    1.303   .     A
C926   C933    1.470   .     S
C927   C952    1.400   .     A
C927   H961    1.084   .     S
C928   C951    1.400   .     A
C928   H962    1.084   .     S
C928   C360    1.394   1_556 S
C929   C934    1.409   .     A
C929   I975    2.159   .     S
C930   C933    1.409   .     A
C930   I976    2.159   .     S
C930   C800    1.395   1_655 S
C931   I977    2.149   .     S
C931   C933    1.418   .     A
C931   C797    1.395   1_655 S
C932   I978    2.149   .     S
C932   C934    1.418   .     A
C935   N979    1.432   .     S
C935   N964    1.379   .     A
C936   N982    1.432   .     S
C936   N963    1.380   .     A
C936   C1135   1.413   .     S
C937   N985    1.426   .     S
C937   N964    1.376   .     A
C938   N988    1.426   .     S
C938   N963    1.376   .     A
C938   C1133   1.413   .     S
C939   O972    1.301   .     A
C939   C944    1.459   .     S
C939   O969    1.308   .     A
C940   C943    1.459   .     S
C940   O971    1.301   .     A
C940   O970    1.308   .     A
C941   H957    1.078   .     S
C941   C951    1.391   .     A
C941   C943    1.396   .     A
C942   H958    1.078   .     S
C942   C944    1.396   .     A
C942   C952    1.391   .     A
C943   C945    1.401   .     A
C944   C946    1.401   .     A
C945   H959    1.081   .     S
C945   C947    1.398   .     A
C946   C948    1.398   .     A
C946   H960    1.081   .     S
C947   C953    1.412   .     A
C947   C949    1.417   .     A
C948   C954    1.412   .     A
C948   C950    1.417   .     A
C949   C951    1.410   .     A
C949   C356    1.403   1_556 S
C950   C952    1.410   .     A
C953   I973    2.130   .     S
C953   C333    1.394   1_556 S
C954   I974    2.129   .     S
Cu955  Cu956   2.716   .     S
Cu955  N963    2.041   .     S
Cu955  O971    1.961   .     S
Cu955  O967    1.968   .     S
Cu955  O969    1.969   .     S
Cu955  O965    1.978   .     S
Cu956  O972    1.961   .     S
Cu956  O968    1.968   .     S
Cu956  N964    2.041   .     S
Cu956  O966    1.978   .     S
Cu956  O970    1.969   .     S
N979   H980    1.038   .     S
N979   H981    1.044   .     S
N982   H983    1.038   .     S
N982   H984    1.043   .     S
N985   H986    1.039   .     S
N985   H987    1.042   .     S
N988   H989    1.039   .     S
N988   H990    1.042   .     S
C991   O1034   1.313   .     A
C991   O1031   1.303   .     A
C991   C1000   1.470   .     S
C992   O1033   1.313   .     A
C992   O1032   1.303   .     A
C992   C999    1.470   .     S
C993   C1018   1.400   .     A
C993   H1027   1.084   .     S
C994   C1017   1.400   .     A
C994   H1028   1.084   .     S
C994   C426    1.394   1_556 S
C995   C1000   1.409   .     A
C995   I1041   2.159   .     S
C995   C1129   1.395   1_455 S
C996   C999    1.409   .     A
C996   I1042   2.159   .     S
C996   C1064   1.395   .     S
C997   I1043   2.149   .     S
C997   C999    1.418   .     A
C997   C1061   1.395   .     S
C998   I1044   2.149   .     S
C998   C1000   1.418   .     A
C998   C1128   1.395   1_455 S
C1001  N1045   1.432   .     S
C1001  N1030   1.379   .     A
C1002  N1048   1.432   .     S
C1002  N1029   1.380   .     A
C1002  C607    1.413   1_565 S
C1003  N1051   1.426   .     S
C1003  N1030   1.376   .     A
C1004  N1054   1.426   .     S
C1004  N1029   1.376   .     A
C1004  C605    1.413   1_565 S
C1005  O1038   1.301   .     A
C1005  C1010   1.459   .     S
C1005  O1035   1.308   .     A
C1006  C1009   1.459   .     S
C1006  O1037   1.301   .     A
C1006  O1036   1.308   .     A
C1007  H1023   1.078   .     S
C1007  C1017   1.391   .     A
C1007  C1009   1.396   .     A
C1008  H1024   1.078   .     S
C1008  C1010   1.396   .     A
C1008  C1018   1.391   .     A
C1009  C1011   1.401   .     A
C1010  C1012   1.401   .     A
C1011  H1025   1.081   .     S
C1011  C1013   1.398   .     A
C1012  C1014   1.398   .     A
C1012  H1026   1.081   .     S
C1013  C1019   1.412   .     A
C1013  C1015   1.417   .     A
C1014  C1020   1.412   .     A
C1014  C1016   1.417   .     A
C1015  C1017   1.410   .     A
C1015  C422    1.403   1_556 S
C1016  C1018   1.410   .     A
C1019  I1039   2.130   .     S
C1019  C399    1.394   1_556 S
C1020  I1040   2.129   .     S
Cu1021 Cu1022  2.716   .     S
Cu1021 N1029   2.041   .     S
Cu1021 O1037   1.961   .     S
Cu1021 O1033   1.968   .     S
Cu1021 O1035   1.969   .     S
Cu1021 O1031   1.978   .     S
Cu1022 O1038   1.961   .     S
Cu1022 O1034   1.968   .     S
Cu1022 N1030   2.041   .     S
Cu1022 O1032   1.978   .     S
Cu1022 O1036   1.969   .     S
N1045  H1046   1.038   .     S
N1045  H1047   1.044   .     S
N1048  H1049   1.038   .     S
N1048  H1050   1.043   .     S
N1051  H1052   1.039   .     S
N1051  H1053   1.042   .     S
N1054  H1055   1.039   .     S
N1054  H1056   1.042   .     S
C1057  O1100   1.313   .     A
C1057  O1097   1.303   .     A
C1057  C1066   1.470   .     S
C1058  O1099   1.313   .     A
C1058  O1098   1.303   .     A
C1058  C1065   1.470   .     S
C1059  C1084   1.400   .     A
C1059  H1093   1.084   .     S
C1060  C1083   1.400   .     A
C1060  H1094   1.084   .     S
C1060  C492    1.394   1_556 S
C1061  C1066   1.409   .     A
C1061  I1107   2.159   .     S
C1062  C1065   1.409   .     A
C1062  I1108   2.159   .     S
C1062  C1130   1.395   .     S
C1063  I1109   2.149   .     S
C1063  C1065   1.418   .     A
C1063  C1127   1.395   .     S
C1064  I1110   2.149   .     S
C1064  C1066   1.418   .     A
C1067  N1111   1.432   .     S
C1067  N1096   1.379   .     A
C1068  N1114   1.432   .     S
C1068  N1095   1.380   .     A
C1068  C673    1.413   1_565 S
C1069  N1117   1.426   .     S
C1069  N1096   1.376   .     A
C1070  N1120   1.426   .     S
C1070  N1095   1.376   .     A
C1070  C671    1.413   1_565 S
C1071  O1104   1.301   .     A
C1071  C1076   1.459   .     S
C1071  O1101   1.308   .     A
C1072  C1075   1.459   .     S
C1072  O1103   1.301   .     A
C1072  O1102   1.308   .     A
C1073  H1089   1.078   .     S
C1073  C1083   1.391   .     A
C1073  C1075   1.396   .     A
C1074  H1090   1.078   .     S
C1074  C1076   1.396   .     A
C1074  C1084   1.391   .     A
C1075  C1077   1.401   .     A
C1076  C1078   1.401   .     A
C1077  H1091   1.081   .     S
C1077  C1079   1.398   .     A
C1078  C1080   1.398   .     A
C1078  H1092   1.081   .     S
C1079  C1085   1.412   .     A
C1079  C1081   1.417   .     A
C1080  C1086   1.412   .     A
C1080  C1082   1.417   .     A
C1081  C1083   1.410   .     A
C1081  C488    1.403   1_556 S
C1082  C1084   1.410   .     A
C1085  I1105   2.130   .     S
C1085  C465    1.394   1_556 S
C1086  I1106   2.129   .     S
Cu1087 Cu1088  2.716   .     S
Cu1087 N1095   2.041   .     S
Cu1087 O1103   1.961   .     S
Cu1087 O1099   1.968   .     S
Cu1087 O1101   1.969   .     S
Cu1087 O1097   1.978   .     S
Cu1088 O1104   1.961   .     S
Cu1088 O1100   1.968   .     S
Cu1088 N1096   2.041   .     S
Cu1088 O1098   1.978   .     S
Cu1088 O1102   1.969   .     S
N1111  H1112   1.038   .     S
N1111  H1113   1.044   .     S
N1114  H1115   1.038   .     S
N1114  H1116   1.043   .     S
N1117  H1118   1.039   .     S
N1117  H1119   1.042   .     S
N1120  H1121   1.039   .     S
N1120  H1122   1.042   .     S
C1123  O1166   1.313   .     A
C1123  O1163   1.303   .     A
C1123  C1132   1.470   .     S
C1124  O1165   1.313   .     A
C1124  O1164   1.303   .     A
C1124  C1131   1.470   .     S
C1125  C1150   1.400   .     A
C1125  H1159   1.084   .     S
C1126  C1149   1.400   .     A
C1126  H1160   1.084   .     S
C1126  C558    1.394   1_556 S
C1127  C1132   1.409   .     A
C1127  I1173   2.159   .     S
C1128  C1131   1.409   .     A
C1128  I1174   2.159   .     S
C1128  C998    1.395   1_655 S
C1129  I1175   2.149   .     S
C1129  C1131   1.418   .     A
C1129  C995    1.395   1_655 S
C1130  I1176   2.149   .     S
C1130  C1132   1.418   .     A
C1133  N1177   1.432   .     S
C1133  N1162   1.379   .     A
C1134  N1180   1.432   .     S
C1134  N1161   1.380   .     A
C1134  C739    1.413   1_565 S
C1135  N1183   1.426   .     S
C1135  N1162   1.376   .     A
C1136  N1186   1.426   .     S
C1136  N1161   1.376   .     A
C1136  C737    1.413   1_565 S
C1137  O1170   1.301   .     A
C1137  C1142   1.459   .     S
C1137  O1167   1.308   .     A
C1138  C1141   1.459   .     S
C1138  O1169   1.301   .     A
C1138  O1168   1.308   .     A
C1139  H1155   1.078   .     S
C1139  C1149   1.391   .     A
C1139  C1141   1.396   .     A
C1140  H1156   1.078   .     S
C1140  C1142   1.396   .     A
C1140  C1150   1.391   .     A
C1141  C1143   1.401   .     A
C1142  C1144   1.401   .     A
C1143  H1157   1.081   .     S
C1143  C1145   1.398   .     A
C1144  C1146   1.398   .     A
C1144  H1158   1.081   .     S
C1145  C1151   1.412   .     A
C1145  C1147   1.417   .     A
C1146  C1152   1.412   .     A
C1146  C1148   1.417   .     A
C1147  C1149   1.410   .     A
C1147  C554    1.403   1_556 S
C1148  C1150   1.410   .     A
C1151  I1171   2.130   .     S
C1151  C531    1.394   1_556 S
C1152  I1172   2.129   .     S
Cu1153 Cu1154  2.716   .     S
Cu1153 N1161   2.041   .     S
Cu1153 O1169   1.961   .     S
Cu1153 O1165   1.968   .     S
Cu1153 O1167   1.969   .     S
Cu1153 O1163   1.978   .     S
Cu1154 O1170   1.961   .     S
Cu1154 O1166   1.968   .     S
Cu1154 N1162   2.041   .     S
Cu1154 O1164   1.978   .     S
Cu1154 O1168   1.969   .     S
N1177  H1178   1.038   .     S
N1177  H1179   1.044   .     S
N1180  H1181   1.038   .     S
N1180  H1182   1.043   .     S
N1183  H1184   1.039   .     S
N1183  H1185   1.042   .     S
N1186  H1187   1.039   .     S
N1186  H1188   1.042   .     S
