data_str_m3_o1_o10_pcu_sym.12
_audit_creation_date              2020-01-03
_audit_creation_method            'Materials Studio'
_symmetry_space_group_name_H-M    'P1'
_symmetry_Int_Tables_number       1
_symmetry_cell_setting            triclinic
loop_
_symmetry_equiv_pos_as_xyz
  x,y,z
_cell_length_a                    26.0687
_cell_length_b                    32.5506
_cell_length_c                    29.6919
_cell_angle_alpha                 89.1032
_cell_angle_beta                  98.1537
_cell_angle_gamma                 91.9727
loop_
_atom_site_label
_atom_site_type_symbol
_atom_site_fract_x
_atom_site_fract_y
_atom_site_fract_z
_atom_site_U_iso_or_equiv
_atom_site_adp_type
_atom_site_occupancy
C1     C     0.17020   0.08681   0.16743   0.00000  Uiso   1.00
C2     C     0.16622   0.02011   0.20831   0.00000  Uiso   1.00
C3     C     0.15974   0.29091   0.16494   0.00000  Uiso   1.00
C4     C     0.17359   0.04242   0.16839   0.00000  Uiso   1.00
C5     C     0.20284   0.19004   0.02785   0.00000  Uiso   1.00
C6     C     0.13049   0.14329   0.30548   0.00000  Uiso   1.00
C7     C     0.20161   0.19072   0.31291   0.00000  Uiso   1.00
C8     C     0.13172   0.14261   0.02042   0.00000  Uiso   1.00
C9     C     0.32333   0.13608   0.11098   0.00000  Uiso   1.00
C10    C     0.01000   0.19725   0.22235   0.00000  Uiso   1.00
C11    C     0.19678   0.04227   0.08896   0.00000  Uiso   1.00
C12    C     0.16313   0.24652   0.16591   0.00000  Uiso   1.00
C13    C     0.13656   0.29106   0.24437   0.00000  Uiso   1.00
C14    C     0.16031   0.29467   0.08021   0.00000  Uiso   1.00
C15    C     0.17303   0.03866   0.25313   0.00000  Uiso   1.00
C16    C     0.24406   0.21398   0.05683   0.00000  Uiso   1.00
C17    C     0.08928   0.11935   0.27650   0.00000  Uiso   1.00
C18    C     0.23406   0.21966   0.29166   0.00000  Uiso   1.00
C19    C     0.09928   0.11368   0.04168   0.00000  Uiso   1.00
C20    C     0.06736   0.16614   0.15503   0.00000  Uiso   1.00
C21    C     0.26597   0.16719   0.17830   0.00000  Uiso   1.00
C22    C     0.01300   0.16041   0.14993   0.00000  Uiso   1.00
C23    C     0.32033   0.17292   0.18340   0.00000  Uiso   1.00
C24    C     0.17808   0.02172   0.12771   0.00000  Uiso   1.00
C25    C     0.15526   0.31161   0.20562   0.00000  Uiso   1.00
C26    C     0.16711   0.31322   0.12502   0.00000  Uiso   1.00
H27    H     0.23680   0.22777   0.08786   0.00000  Uiso   1.00
H28    H     0.09654   0.10557   0.24548   0.00000  Uiso   1.00
N29    N     0.16665   0.16666   0.28573   0.00000  Uiso   1.00
N30    N     0.07359   0.08993   0.05839   0.00000  Uiso   1.00
N31    N     0.16668   0.16668   0.04760   0.00000  Uiso   1.00
N32    N     0.30493   0.11693   0.07997   0.00000  Uiso   1.00
N33    N     0.02841   0.21641   0.25336   0.00000  Uiso   1.00
N34    N     0.21171   0.05838   0.05809   0.00000  Uiso   1.00
N35    N     0.12163   0.27496   0.27524   0.00000  Uiso   1.00
N36    N     0.15454   0.28032   0.04437   0.00000  Uiso   1.00
N37    N     0.17880   0.05301   0.28896   0.00000  Uiso   1.00
N38    N     0.25974   0.24340   0.27494   0.00000  Uiso   1.00
O39    O     0.16666   0.10558   0.20487   0.00000  Uiso   1.00
O40    O     0.04566   0.11519   0.28680   0.00000  Uiso   1.00
O41    O     0.16667   0.22775   0.12846   0.00000  Uiso   1.00
O42    O     0.16666   0.10559   0.12843   0.00000  Uiso   1.00
O43    O     0.16667   0.22774   0.20490   0.00000  Uiso   1.00
O44    O     0.09058   0.16666   0.19595   0.00000  Uiso   1.00
O45    O     0.24275   0.16667   0.13739   0.00000  Uiso   1.00
O46    O     0.09058   0.16667   0.11950   0.00000  Uiso   1.00
O47    O     0.24275   0.16666   0.21383   0.00000  Uiso   1.00
O48    O     0.28767   0.21814   0.04654   0.00000  Uiso   1.00
Zn49   Zn    0.16667   0.16666   0.21771   0.00000  Uiso   1.00
Zn50   Zn    0.16667   0.16667   0.11563   0.00000  Uiso   1.00
C51    C     0.50353   0.08681   0.16743   0.00000  Uiso   1.00
C52    C     0.49955   0.02011   0.20831   0.00000  Uiso   1.00
C53    C     0.49307   0.29091   0.16494   0.00000  Uiso   1.00
C54    C     0.50693   0.04242   0.16839   0.00000  Uiso   1.00
C55    C     0.53618   0.19004   0.02785   0.00000  Uiso   1.00
C56    C     0.46382   0.14329   0.30548   0.00000  Uiso   1.00
C57    C     0.53494   0.19072   0.31291   0.00000  Uiso   1.00
C58    C     0.46505   0.14261   0.02042   0.00000  Uiso   1.00
C59    C     0.65667   0.13608   0.11098   0.00000  Uiso   1.00
C60    C     0.34333   0.19725   0.22235   0.00000  Uiso   1.00
C61    C     0.53011   0.04227   0.08896   0.00000  Uiso   1.00
C62    C     0.49646   0.24652   0.16591   0.00000  Uiso   1.00
C63    C     0.46989   0.29106   0.24437   0.00000  Uiso   1.00
C64    C     0.49364   0.29467   0.08021   0.00000  Uiso   1.00
C65    C     0.50636   0.03866   0.25313   0.00000  Uiso   1.00
C66    C     0.57739   0.21398   0.05683   0.00000  Uiso   1.00
C67    C     0.42261   0.11935   0.27650   0.00000  Uiso   1.00
C68    C     0.56739   0.21966   0.29166   0.00000  Uiso   1.00
C69    C     0.43261   0.11368   0.04168   0.00000  Uiso   1.00
C70    C     0.40069   0.16614   0.15503   0.00000  Uiso   1.00
C71    C     0.59931   0.16719   0.17830   0.00000  Uiso   1.00
C72    C     0.34634   0.16041   0.14993   0.00000  Uiso   1.00
C73    C     0.65366   0.17292   0.18340   0.00000  Uiso   1.00
C74    C     0.51141   0.02172   0.12771   0.00000  Uiso   1.00
C75    C     0.48859   0.31161   0.20562   0.00000  Uiso   1.00
C76    C     0.50045   0.31322   0.12502   0.00000  Uiso   1.00
H77    H     0.57013   0.22777   0.08786   0.00000  Uiso   1.00
H78    H     0.42987   0.10557   0.24548   0.00000  Uiso   1.00
N79    N     0.49999   0.16666   0.28573   0.00000  Uiso   1.00
N80    N     0.40693   0.08993   0.05839   0.00000  Uiso   1.00
N81    N     0.50001   0.16668   0.04760   0.00000  Uiso   1.00
N82    N     0.63826   0.11693   0.07997   0.00000  Uiso   1.00
N83    N     0.36174   0.21641   0.25336   0.00000  Uiso   1.00
N84    N     0.54504   0.05838   0.05809   0.00000  Uiso   1.00
N85    N     0.45496   0.27496   0.27524   0.00000  Uiso   1.00
N86    N     0.48787   0.28032   0.04437   0.00000  Uiso   1.00
N87    N     0.51213   0.05301   0.28896   0.00000  Uiso   1.00
N88    N     0.59307   0.24340   0.27494   0.00000  Uiso   1.00
O89    O     0.50000   0.10558   0.20487   0.00000  Uiso   1.00
O90    O     0.37899   0.11519   0.28680   0.00000  Uiso   1.00
O91    O     0.50000   0.22775   0.12846   0.00000  Uiso   1.00
O92    O     0.50000   0.10559   0.12843   0.00000  Uiso   1.00
O93    O     0.50000   0.22774   0.20490   0.00000  Uiso   1.00
O94    O     0.42392   0.16666   0.19595   0.00000  Uiso   1.00
O95    O     0.57608   0.16667   0.13739   0.00000  Uiso   1.00
O96    O     0.42392   0.16667   0.11950   0.00000  Uiso   1.00
O97    O     0.57608   0.16666   0.21383   0.00000  Uiso   1.00
O98    O     0.62101   0.21814   0.04654   0.00000  Uiso   1.00
Zn99   Zn    0.50000   0.16666   0.21771   0.00000  Uiso   1.00
Zn100  Zn    0.50000   0.16667   0.11563   0.00000  Uiso   1.00
C101   C     0.83687   0.08681   0.16743   0.00000  Uiso   1.00
C102   C     0.83289   0.02011   0.20831   0.00000  Uiso   1.00
C103   C     0.82641   0.29091   0.16494   0.00000  Uiso   1.00
C104   C     0.84026   0.04242   0.16839   0.00000  Uiso   1.00
C105   C     0.86951   0.19004   0.02785   0.00000  Uiso   1.00
C106   C     0.79716   0.14329   0.30548   0.00000  Uiso   1.00
C107   C     0.86828   0.19072   0.31291   0.00000  Uiso   1.00
C108   C     0.79839   0.14261   0.02042   0.00000  Uiso   1.00
C109   C     0.99000   0.13608   0.11098   0.00000  Uiso   1.00
C110   C     0.67666   0.19725   0.22235   0.00000  Uiso   1.00
C111   C     0.86344   0.04227   0.08896   0.00000  Uiso   1.00
C112   C     0.82980   0.24652   0.16591   0.00000  Uiso   1.00
C113   C     0.80322   0.29106   0.24437   0.00000  Uiso   1.00
C114   C     0.82697   0.29467   0.08021   0.00000  Uiso   1.00
C115   C     0.83969   0.03866   0.25313   0.00000  Uiso   1.00
C116   C     0.91072   0.21398   0.05683   0.00000  Uiso   1.00
C117   C     0.75594   0.11935   0.27650   0.00000  Uiso   1.00
C118   C     0.90072   0.21966   0.29166   0.00000  Uiso   1.00
C119   C     0.76594   0.11368   0.04168   0.00000  Uiso   1.00
C120   C     0.73402   0.16614   0.15503   0.00000  Uiso   1.00
C121   C     0.93264   0.16719   0.17830   0.00000  Uiso   1.00
C122   C     0.67967   0.16041   0.14993   0.00000  Uiso   1.00
C123   C     0.98700   0.17292   0.18340   0.00000  Uiso   1.00
C124   C     0.84474   0.02172   0.12771   0.00000  Uiso   1.00
C125   C     0.82192   0.31161   0.20562   0.00000  Uiso   1.00
C126   C     0.83378   0.31322   0.12502   0.00000  Uiso   1.00
H127   H     0.90346   0.22777   0.08786   0.00000  Uiso   1.00
H128   H     0.76320   0.10557   0.24548   0.00000  Uiso   1.00
N129   N     0.83332   0.16666   0.28573   0.00000  Uiso   1.00
N130   N     0.74026   0.08993   0.05839   0.00000  Uiso   1.00
N131   N     0.83335   0.16668   0.04760   0.00000  Uiso   1.00
N132   N     0.97159   0.11693   0.07997   0.00000  Uiso   1.00
N133   N     0.69507   0.21641   0.25336   0.00000  Uiso   1.00
N134   N     0.87837   0.05838   0.05809   0.00000  Uiso   1.00
N135   N     0.78829   0.27496   0.27524   0.00000  Uiso   1.00
N136   N     0.82120   0.28032   0.04437   0.00000  Uiso   1.00
N137   N     0.84546   0.05301   0.28896   0.00000  Uiso   1.00
N138   N     0.92641   0.24340   0.27494   0.00000  Uiso   1.00
O139   O     0.83333   0.10558   0.20487   0.00000  Uiso   1.00
O140   O     0.71233   0.11519   0.28680   0.00000  Uiso   1.00
O141   O     0.83334   0.22775   0.12846   0.00000  Uiso   1.00
O142   O     0.83333   0.10559   0.12843   0.00000  Uiso   1.00
O143   O     0.83334   0.22774   0.20490   0.00000  Uiso   1.00
O144   O     0.75725   0.16666   0.19595   0.00000  Uiso   1.00
O145   O     0.90942   0.16667   0.13739   0.00000  Uiso   1.00
O146   O     0.75725   0.16667   0.11950   0.00000  Uiso   1.00
O147   O     0.90942   0.16666   0.21383   0.00000  Uiso   1.00
O148   O     0.95434   0.21814   0.04654   0.00000  Uiso   1.00
Zn149  Zn    0.83333   0.16666   0.21771   0.00000  Uiso   1.00
Zn150  Zn    0.83333   0.16667   0.11563   0.00000  Uiso   1.00
C151   C     0.17020   0.42014   0.16743   0.00000  Uiso   1.00
C152   C     0.16622   0.35344   0.20831   0.00000  Uiso   1.00
C153   C     0.15974   0.62424   0.16494   0.00000  Uiso   1.00
C154   C     0.17359   0.37575   0.16839   0.00000  Uiso   1.00
C155   C     0.20284   0.52338   0.02785   0.00000  Uiso   1.00
C156   C     0.13049   0.47662   0.30548   0.00000  Uiso   1.00
C157   C     0.20161   0.52406   0.31291   0.00000  Uiso   1.00
C158   C     0.13172   0.47594   0.02042   0.00000  Uiso   1.00
C159   C     0.32333   0.46942   0.11098   0.00000  Uiso   1.00
C160   C     0.01000   0.53058   0.22235   0.00000  Uiso   1.00
C161   C     0.19678   0.37561   0.08896   0.00000  Uiso   1.00
C162   C     0.16313   0.57986   0.16591   0.00000  Uiso   1.00
C163   C     0.13656   0.62439   0.24437   0.00000  Uiso   1.00
C164   C     0.16031   0.62800   0.08021   0.00000  Uiso   1.00
C165   C     0.17303   0.37200   0.25313   0.00000  Uiso   1.00
C166   C     0.24406   0.54732   0.05683   0.00000  Uiso   1.00
C167   C     0.08928   0.45268   0.27650   0.00000  Uiso   1.00
C168   C     0.23406   0.55299   0.29166   0.00000  Uiso   1.00
C169   C     0.09928   0.44701   0.04168   0.00000  Uiso   1.00
C170   C     0.06736   0.49947   0.15503   0.00000  Uiso   1.00
C171   C     0.26597   0.50053   0.17830   0.00000  Uiso   1.00
C172   C     0.01300   0.49375   0.14993   0.00000  Uiso   1.00
C173   C     0.32033   0.50625   0.18340   0.00000  Uiso   1.00
C174   C     0.17808   0.35506   0.12771   0.00000  Uiso   1.00
C175   C     0.15526   0.64494   0.20562   0.00000  Uiso   1.00
C176   C     0.16711   0.64656   0.12502   0.00000  Uiso   1.00
H177   H     0.23680   0.56110   0.08786   0.00000  Uiso   1.00
H178   H     0.09654   0.43890   0.24548   0.00000  Uiso   1.00
N179   N     0.16665   0.49999   0.28573   0.00000  Uiso   1.00
N180   N     0.07359   0.42326   0.05839   0.00000  Uiso   1.00
N181   N     0.16668   0.50001   0.04760   0.00000  Uiso   1.00
N182   N     0.30493   0.45026   0.07997   0.00000  Uiso   1.00
N183   N     0.02841   0.54974   0.25336   0.00000  Uiso   1.00
N184   N     0.21171   0.39171   0.05809   0.00000  Uiso   1.00
N185   N     0.12163   0.60829   0.27524   0.00000  Uiso   1.00
N186   N     0.15454   0.61366   0.04437   0.00000  Uiso   1.00
N187   N     0.17880   0.38634   0.28896   0.00000  Uiso   1.00
N188   N     0.25974   0.57674   0.27494   0.00000  Uiso   1.00
O189   O     0.16666   0.43892   0.20487   0.00000  Uiso   1.00
O190   O     0.04566   0.44852   0.28680   0.00000  Uiso   1.00
O191   O     0.16667   0.56108   0.12846   0.00000  Uiso   1.00
O192   O     0.16666   0.43893   0.12843   0.00000  Uiso   1.00
O193   O     0.16667   0.56107   0.20490   0.00000  Uiso   1.00
O194   O     0.09058   0.50000   0.19595   0.00000  Uiso   1.00
O195   O     0.24275   0.50000   0.13739   0.00000  Uiso   1.00
O196   O     0.09058   0.50000   0.11950   0.00000  Uiso   1.00
O197   O     0.24275   0.50000   0.21383   0.00000  Uiso   1.00
O198   O     0.28767   0.55147   0.04654   0.00000  Uiso   1.00
Zn199  Zn    0.16667   0.49999   0.21771   0.00000  Uiso   1.00
Zn200  Zn    0.16667   0.50001   0.11563   0.00000  Uiso   1.00
C201   C     0.50353   0.42014   0.16743   0.00000  Uiso   1.00
C202   C     0.49955   0.35344   0.20831   0.00000  Uiso   1.00
C203   C     0.49307   0.62424   0.16494   0.00000  Uiso   1.00
C204   C     0.50693   0.37575   0.16839   0.00000  Uiso   1.00
C205   C     0.53618   0.52338   0.02785   0.00000  Uiso   1.00
C206   C     0.46382   0.47662   0.30548   0.00000  Uiso   1.00
C207   C     0.53494   0.52406   0.31291   0.00000  Uiso   1.00
C208   C     0.46505   0.47594   0.02042   0.00000  Uiso   1.00
C209   C     0.65667   0.46942   0.11098   0.00000  Uiso   1.00
C210   C     0.34333   0.53058   0.22235   0.00000  Uiso   1.00
C211   C     0.53011   0.37561   0.08896   0.00000  Uiso   1.00
C212   C     0.49646   0.57986   0.16591   0.00000  Uiso   1.00
C213   C     0.46989   0.62439   0.24437   0.00000  Uiso   1.00
C214   C     0.49364   0.62800   0.08021   0.00000  Uiso   1.00
C215   C     0.50636   0.37200   0.25313   0.00000  Uiso   1.00
C216   C     0.57739   0.54732   0.05683   0.00000  Uiso   1.00
C217   C     0.42261   0.45268   0.27650   0.00000  Uiso   1.00
C218   C     0.56739   0.55299   0.29166   0.00000  Uiso   1.00
C219   C     0.43261   0.44701   0.04168   0.00000  Uiso   1.00
C220   C     0.40069   0.49947   0.15503   0.00000  Uiso   1.00
C221   C     0.59931   0.50053   0.17830   0.00000  Uiso   1.00
C222   C     0.34634   0.49375   0.14993   0.00000  Uiso   1.00
C223   C     0.65366   0.50625   0.18340   0.00000  Uiso   1.00
C224   C     0.51141   0.35506   0.12771   0.00000  Uiso   1.00
C225   C     0.48859   0.64494   0.20562   0.00000  Uiso   1.00
C226   C     0.50045   0.64656   0.12502   0.00000  Uiso   1.00
H227   H     0.57013   0.56110   0.08786   0.00000  Uiso   1.00
H228   H     0.42987   0.43890   0.24548   0.00000  Uiso   1.00
N229   N     0.49999   0.49999   0.28573   0.00000  Uiso   1.00
N230   N     0.40693   0.42326   0.05839   0.00000  Uiso   1.00
N231   N     0.50001   0.50001   0.04760   0.00000  Uiso   1.00
N232   N     0.63826   0.45026   0.07997   0.00000  Uiso   1.00
N233   N     0.36174   0.54974   0.25336   0.00000  Uiso   1.00
N234   N     0.54504   0.39171   0.05809   0.00000  Uiso   1.00
N235   N     0.45496   0.60829   0.27524   0.00000  Uiso   1.00
N236   N     0.48787   0.61366   0.04437   0.00000  Uiso   1.00
N237   N     0.51213   0.38634   0.28896   0.00000  Uiso   1.00
N238   N     0.59307   0.57674   0.27494   0.00000  Uiso   1.00
O239   O     0.50000   0.43892   0.20487   0.00000  Uiso   1.00
O240   O     0.37899   0.44852   0.28680   0.00000  Uiso   1.00
O241   O     0.50000   0.56108   0.12846   0.00000  Uiso   1.00
O242   O     0.50000   0.43893   0.12843   0.00000  Uiso   1.00
O243   O     0.50000   0.56107   0.20490   0.00000  Uiso   1.00
O244   O     0.42392   0.50000   0.19595   0.00000  Uiso   1.00
O245   O     0.57608   0.50000   0.13739   0.00000  Uiso   1.00
O246   O     0.42392   0.50000   0.11950   0.00000  Uiso   1.00
O247   O     0.57608   0.50000   0.21383   0.00000  Uiso   1.00
O248   O     0.62101   0.55147   0.04654   0.00000  Uiso   1.00
Zn249  Zn    0.50000   0.49999   0.21771   0.00000  Uiso   1.00
Zn250  Zn    0.50000   0.50001   0.11563   0.00000  Uiso   1.00
C251   C     0.83687   0.42014   0.16743   0.00000  Uiso   1.00
C252   C     0.83289   0.35344   0.20831   0.00000  Uiso   1.00
C253   C     0.82641   0.62424   0.16494   0.00000  Uiso   1.00
C254   C     0.84026   0.37575   0.16839   0.00000  Uiso   1.00
C255   C     0.86951   0.52338   0.02785   0.00000  Uiso   1.00
C256   C     0.79716   0.47662   0.30548   0.00000  Uiso   1.00
C257   C     0.86828   0.52406   0.31291   0.00000  Uiso   1.00
C258   C     0.79839   0.47594   0.02042   0.00000  Uiso   1.00
C259   C     0.99000   0.46942   0.11098   0.00000  Uiso   1.00
C260   C     0.67666   0.53058   0.22235   0.00000  Uiso   1.00
C261   C     0.86344   0.37561   0.08896   0.00000  Uiso   1.00
C262   C     0.82980   0.57986   0.16591   0.00000  Uiso   1.00
C263   C     0.80322   0.62439   0.24437   0.00000  Uiso   1.00
C264   C     0.82697   0.62800   0.08021   0.00000  Uiso   1.00
C265   C     0.83969   0.37200   0.25313   0.00000  Uiso   1.00
C266   C     0.91072   0.54732   0.05683   0.00000  Uiso   1.00
C267   C     0.75594   0.45268   0.27650   0.00000  Uiso   1.00
C268   C     0.90072   0.55299   0.29166   0.00000  Uiso   1.00
C269   C     0.76594   0.44701   0.04168   0.00000  Uiso   1.00
C270   C     0.73402   0.49947   0.15503   0.00000  Uiso   1.00
C271   C     0.93264   0.50053   0.17830   0.00000  Uiso   1.00
C272   C     0.67967   0.49375   0.14993   0.00000  Uiso   1.00
C273   C     0.98700   0.50625   0.18340   0.00000  Uiso   1.00
C274   C     0.84474   0.35506   0.12771   0.00000  Uiso   1.00
C275   C     0.82192   0.64494   0.20562   0.00000  Uiso   1.00
C276   C     0.83378   0.64656   0.12502   0.00000  Uiso   1.00
H277   H     0.90346   0.56110   0.08786   0.00000  Uiso   1.00
H278   H     0.76320   0.43890   0.24548   0.00000  Uiso   1.00
N279   N     0.83332   0.49999   0.28573   0.00000  Uiso   1.00
N280   N     0.74026   0.42326   0.05839   0.00000  Uiso   1.00
N281   N     0.83335   0.50001   0.04760   0.00000  Uiso   1.00
N282   N     0.97159   0.45026   0.07997   0.00000  Uiso   1.00
N283   N     0.69507   0.54974   0.25336   0.00000  Uiso   1.00
N284   N     0.87837   0.39171   0.05809   0.00000  Uiso   1.00
N285   N     0.78829   0.60829   0.27524   0.00000  Uiso   1.00
N286   N     0.82120   0.61366   0.04437   0.00000  Uiso   1.00
N287   N     0.84546   0.38634   0.28896   0.00000  Uiso   1.00
N288   N     0.92641   0.57674   0.27494   0.00000  Uiso   1.00
O289   O     0.83333   0.43892   0.20487   0.00000  Uiso   1.00
O290   O     0.71233   0.44852   0.28680   0.00000  Uiso   1.00
O291   O     0.83334   0.56108   0.12846   0.00000  Uiso   1.00
O292   O     0.83333   0.43893   0.12843   0.00000  Uiso   1.00
O293   O     0.83334   0.56107   0.20490   0.00000  Uiso   1.00
O294   O     0.75725   0.50000   0.19595   0.00000  Uiso   1.00
O295   O     0.90942   0.50000   0.13739   0.00000  Uiso   1.00
O296   O     0.75725   0.50000   0.11950   0.00000  Uiso   1.00
O297   O     0.90942   0.50000   0.21383   0.00000  Uiso   1.00
O298   O     0.95434   0.55147   0.04654   0.00000  Uiso   1.00
Zn299  Zn    0.83333   0.49999   0.21771   0.00000  Uiso   1.00
Zn300  Zn    0.83333   0.50001   0.11563   0.00000  Uiso   1.00
C301   C     0.17020   0.75348   0.16743   0.00000  Uiso   1.00
C302   C     0.16622   0.68678   0.20831   0.00000  Uiso   1.00
C303   C     0.15974   0.95758   0.16494   0.00000  Uiso   1.00
C304   C     0.17359   0.70909   0.16839   0.00000  Uiso   1.00
C305   C     0.20284   0.85671   0.02785   0.00000  Uiso   1.00
C306   C     0.13049   0.80996   0.30548   0.00000  Uiso   1.00
C307   C     0.20161   0.85739   0.31291   0.00000  Uiso   1.00
C308   C     0.13172   0.80928   0.02042   0.00000  Uiso   1.00
C309   C     0.32333   0.80275   0.11098   0.00000  Uiso   1.00
C310   C     0.01000   0.86392   0.22235   0.00000  Uiso   1.00
C311   C     0.19678   0.70894   0.08896   0.00000  Uiso   1.00
C312   C     0.16313   0.91319   0.16591   0.00000  Uiso   1.00
C313   C     0.13656   0.95773   0.24437   0.00000  Uiso   1.00
C314   C     0.16031   0.96134   0.08021   0.00000  Uiso   1.00
C315   C     0.17303   0.70533   0.25313   0.00000  Uiso   1.00
C316   C     0.24406   0.88065   0.05683   0.00000  Uiso   1.00
C317   C     0.08928   0.78601   0.27650   0.00000  Uiso   1.00
C318   C     0.23406   0.88632   0.29166   0.00000  Uiso   1.00
C319   C     0.09928   0.78034   0.04168   0.00000  Uiso   1.00
C320   C     0.06736   0.83281   0.15503   0.00000  Uiso   1.00
C321   C     0.26597   0.83386   0.17830   0.00000  Uiso   1.00
C322   C     0.01300   0.82708   0.14993   0.00000  Uiso   1.00
C323   C     0.32033   0.83959   0.18340   0.00000  Uiso   1.00
C324   C     0.17808   0.68839   0.12771   0.00000  Uiso   1.00
C325   C     0.15526   0.97828   0.20562   0.00000  Uiso   1.00
C326   C     0.16711   0.97989   0.12502   0.00000  Uiso   1.00
H327   H     0.23680   0.89443   0.08786   0.00000  Uiso   1.00
H328   H     0.09654   0.77223   0.24548   0.00000  Uiso   1.00
N329   N     0.16665   0.83332   0.28573   0.00000  Uiso   1.00
N330   N     0.07359   0.75660   0.05839   0.00000  Uiso   1.00
N331   N     0.16668   0.83334   0.04760   0.00000  Uiso   1.00
N332   N     0.30493   0.78359   0.07997   0.00000  Uiso   1.00
N333   N     0.02841   0.88307   0.25336   0.00000  Uiso   1.00
N334   N     0.21171   0.72504   0.05809   0.00000  Uiso   1.00
N335   N     0.12163   0.94162   0.27524   0.00000  Uiso   1.00
N336   N     0.15454   0.94699   0.04437   0.00000  Uiso   1.00
N337   N     0.17880   0.71968   0.28896   0.00000  Uiso   1.00
N338   N     0.25974   0.91007   0.27494   0.00000  Uiso   1.00
O339   O     0.16666   0.77225   0.20487   0.00000  Uiso   1.00
O340   O     0.04566   0.78186   0.28680   0.00000  Uiso   1.00
O341   O     0.16667   0.89442   0.12846   0.00000  Uiso   1.00
O342   O     0.16666   0.77226   0.12843   0.00000  Uiso   1.00
O343   O     0.16667   0.89441   0.20490   0.00000  Uiso   1.00
O344   O     0.09058   0.83333   0.19595   0.00000  Uiso   1.00
O345   O     0.24275   0.83334   0.13739   0.00000  Uiso   1.00
O346   O     0.09058   0.83334   0.11950   0.00000  Uiso   1.00
O347   O     0.24275   0.83333   0.21383   0.00000  Uiso   1.00
O348   O     0.28767   0.88481   0.04654   0.00000  Uiso   1.00
Zn349  Zn    0.16667   0.83333   0.21771   0.00000  Uiso   1.00
Zn350  Zn    0.16667   0.83334   0.11563   0.00000  Uiso   1.00
C351   C     0.50353   0.75348   0.16743   0.00000  Uiso   1.00
C352   C     0.49955   0.68678   0.20831   0.00000  Uiso   1.00
C353   C     0.49307   0.95758   0.16494   0.00000  Uiso   1.00
C354   C     0.50693   0.70909   0.16839   0.00000  Uiso   1.00
C355   C     0.53618   0.85671   0.02785   0.00000  Uiso   1.00
C356   C     0.46382   0.80996   0.30548   0.00000  Uiso   1.00
C357   C     0.53494   0.85739   0.31291   0.00000  Uiso   1.00
C358   C     0.46505   0.80928   0.02042   0.00000  Uiso   1.00
C359   C     0.65667   0.80275   0.11098   0.00000  Uiso   1.00
C360   C     0.34333   0.86392   0.22235   0.00000  Uiso   1.00
C361   C     0.53011   0.70894   0.08896   0.00000  Uiso   1.00
C362   C     0.49646   0.91319   0.16591   0.00000  Uiso   1.00
C363   C     0.46989   0.95773   0.24437   0.00000  Uiso   1.00
C364   C     0.49364   0.96134   0.08021   0.00000  Uiso   1.00
C365   C     0.50636   0.70533   0.25313   0.00000  Uiso   1.00
C366   C     0.57739   0.88065   0.05683   0.00000  Uiso   1.00
C367   C     0.42261   0.78601   0.27650   0.00000  Uiso   1.00
C368   C     0.56739   0.88632   0.29166   0.00000  Uiso   1.00
C369   C     0.43261   0.78034   0.04168   0.00000  Uiso   1.00
C370   C     0.40069   0.83281   0.15503   0.00000  Uiso   1.00
C371   C     0.59931   0.83386   0.17830   0.00000  Uiso   1.00
C372   C     0.34634   0.82708   0.14993   0.00000  Uiso   1.00
C373   C     0.65366   0.83959   0.18340   0.00000  Uiso   1.00
C374   C     0.51141   0.68839   0.12771   0.00000  Uiso   1.00
C375   C     0.48859   0.97828   0.20562   0.00000  Uiso   1.00
C376   C     0.50045   0.97989   0.12502   0.00000  Uiso   1.00
H377   H     0.57013   0.89443   0.08786   0.00000  Uiso   1.00
H378   H     0.42987   0.77223   0.24548   0.00000  Uiso   1.00
N379   N     0.49999   0.83332   0.28573   0.00000  Uiso   1.00
N380   N     0.40693   0.75660   0.05839   0.00000  Uiso   1.00
N381   N     0.50001   0.83334   0.04760   0.00000  Uiso   1.00
N382   N     0.63826   0.78359   0.07997   0.00000  Uiso   1.00
N383   N     0.36174   0.88307   0.25336   0.00000  Uiso   1.00
N384   N     0.54504   0.72504   0.05809   0.00000  Uiso   1.00
N385   N     0.45496   0.94162   0.27524   0.00000  Uiso   1.00
N386   N     0.48787   0.94699   0.04437   0.00000  Uiso   1.00
N387   N     0.51213   0.71968   0.28896   0.00000  Uiso   1.00
N388   N     0.59307   0.91007   0.27494   0.00000  Uiso   1.00
O389   O     0.50000   0.77225   0.20487   0.00000  Uiso   1.00
O390   O     0.37899   0.78186   0.28680   0.00000  Uiso   1.00
O391   O     0.50000   0.89442   0.12846   0.00000  Uiso   1.00
O392   O     0.50000   0.77226   0.12843   0.00000  Uiso   1.00
O393   O     0.50000   0.89441   0.20490   0.00000  Uiso   1.00
O394   O     0.42392   0.83333   0.19595   0.00000  Uiso   1.00
O395   O     0.57608   0.83334   0.13739   0.00000  Uiso   1.00
O396   O     0.42392   0.83334   0.11950   0.00000  Uiso   1.00
O397   O     0.57608   0.83333   0.21383   0.00000  Uiso   1.00
O398   O     0.62101   0.88481   0.04654   0.00000  Uiso   1.00
Zn399  Zn    0.50000   0.83333   0.21771   0.00000  Uiso   1.00
Zn400  Zn    0.50000   0.83334   0.11563   0.00000  Uiso   1.00
C401   C     0.83687   0.75348   0.16743   0.00000  Uiso   1.00
C402   C     0.83289   0.68678   0.20831   0.00000  Uiso   1.00
C403   C     0.82641   0.95758   0.16494   0.00000  Uiso   1.00
C404   C     0.84026   0.70909   0.16839   0.00000  Uiso   1.00
C405   C     0.86951   0.85671   0.02785   0.00000  Uiso   1.00
C406   C     0.79716   0.80996   0.30548   0.00000  Uiso   1.00
C407   C     0.86828   0.85739   0.31291   0.00000  Uiso   1.00
C408   C     0.79839   0.80928   0.02042   0.00000  Uiso   1.00
C409   C     0.99000   0.80275   0.11098   0.00000  Uiso   1.00
C410   C     0.67666   0.86392   0.22235   0.00000  Uiso   1.00
C411   C     0.86344   0.70894   0.08896   0.00000  Uiso   1.00
C412   C     0.82980   0.91319   0.16591   0.00000  Uiso   1.00
C413   C     0.80322   0.95773   0.24437   0.00000  Uiso   1.00
C414   C     0.82697   0.96134   0.08021   0.00000  Uiso   1.00
C415   C     0.83969   0.70533   0.25313   0.00000  Uiso   1.00
C416   C     0.91072   0.88065   0.05683   0.00000  Uiso   1.00
C417   C     0.75594   0.78601   0.27650   0.00000  Uiso   1.00
C418   C     0.90072   0.88632   0.29166   0.00000  Uiso   1.00
C419   C     0.76594   0.78034   0.04168   0.00000  Uiso   1.00
C420   C     0.73402   0.83281   0.15503   0.00000  Uiso   1.00
C421   C     0.93264   0.83386   0.17830   0.00000  Uiso   1.00
C422   C     0.67967   0.82708   0.14993   0.00000  Uiso   1.00
C423   C     0.98700   0.83959   0.18340   0.00000  Uiso   1.00
C424   C     0.84474   0.68839   0.12771   0.00000  Uiso   1.00
C425   C     0.82192   0.97828   0.20562   0.00000  Uiso   1.00
C426   C     0.83378   0.97989   0.12502   0.00000  Uiso   1.00
H427   H     0.90346   0.89443   0.08786   0.00000  Uiso   1.00
H428   H     0.76320   0.77223   0.24548   0.00000  Uiso   1.00
N429   N     0.83332   0.83332   0.28573   0.00000  Uiso   1.00
N430   N     0.74026   0.75660   0.05839   0.00000  Uiso   1.00
N431   N     0.83335   0.83334   0.04760   0.00000  Uiso   1.00
N432   N     0.97159   0.78359   0.07997   0.00000  Uiso   1.00
N433   N     0.69507   0.88307   0.25336   0.00000  Uiso   1.00
N434   N     0.87837   0.72504   0.05809   0.00000  Uiso   1.00
N435   N     0.78829   0.94162   0.27524   0.00000  Uiso   1.00
N436   N     0.82120   0.94699   0.04437   0.00000  Uiso   1.00
N437   N     0.84546   0.71968   0.28896   0.00000  Uiso   1.00
N438   N     0.92641   0.91007   0.27494   0.00000  Uiso   1.00
O439   O     0.83333   0.77225   0.20487   0.00000  Uiso   1.00
O440   O     0.71233   0.78186   0.28680   0.00000  Uiso   1.00
O441   O     0.83334   0.89442   0.12846   0.00000  Uiso   1.00
O442   O     0.83333   0.77226   0.12843   0.00000  Uiso   1.00
O443   O     0.83334   0.89441   0.20490   0.00000  Uiso   1.00
O444   O     0.75725   0.83333   0.19595   0.00000  Uiso   1.00
O445   O     0.90942   0.83334   0.13739   0.00000  Uiso   1.00
O446   O     0.75725   0.83334   0.11950   0.00000  Uiso   1.00
O447   O     0.90942   0.83333   0.21383   0.00000  Uiso   1.00
O448   O     0.95434   0.88481   0.04654   0.00000  Uiso   1.00
Zn449  Zn    0.83333   0.83333   0.21771   0.00000  Uiso   1.00
Zn450  Zn    0.83333   0.83334   0.11563   0.00000  Uiso   1.00
C451   C     0.17020   0.08681   0.50076   0.00000  Uiso   1.00
C452   C     0.16622   0.02011   0.54165   0.00000  Uiso   1.00
C453   C     0.15974   0.29091   0.49827   0.00000  Uiso   1.00
C454   C     0.17359   0.04242   0.50173   0.00000  Uiso   1.00
C455   C     0.20284   0.19004   0.36118   0.00000  Uiso   1.00
C456   C     0.13049   0.14329   0.63882   0.00000  Uiso   1.00
C457   C     0.20161   0.19072   0.64624   0.00000  Uiso   1.00
C458   C     0.13172   0.14261   0.35376   0.00000  Uiso   1.00
C459   C     0.32333   0.13608   0.44431   0.00000  Uiso   1.00
C460   C     0.01000   0.19725   0.55569   0.00000  Uiso   1.00
C461   C     0.19678   0.04227   0.42230   0.00000  Uiso   1.00
C462   C     0.16313   0.24652   0.49924   0.00000  Uiso   1.00
C463   C     0.13656   0.29106   0.57770   0.00000  Uiso   1.00
C464   C     0.16031   0.29467   0.41354   0.00000  Uiso   1.00
C465   C     0.17303   0.03866   0.58646   0.00000  Uiso   1.00
C466   C     0.24406   0.21398   0.39017   0.00000  Uiso   1.00
C467   C     0.08928   0.11935   0.60983   0.00000  Uiso   1.00
C468   C     0.23406   0.21966   0.62499   0.00000  Uiso   1.00
C469   C     0.09928   0.11368   0.37501   0.00000  Uiso   1.00
C470   C     0.06736   0.16614   0.48837   0.00000  Uiso   1.00
C471   C     0.26597   0.16719   0.51163   0.00000  Uiso   1.00
C472   C     0.01300   0.16041   0.48326   0.00000  Uiso   1.00
C473   C     0.32033   0.17292   0.51674   0.00000  Uiso   1.00
C474   C     0.17808   0.02172   0.46105   0.00000  Uiso   1.00
C475   C     0.15526   0.31161   0.53895   0.00000  Uiso   1.00
C476   C     0.16711   0.31322   0.45836   0.00000  Uiso   1.00
H477   H     0.23680   0.22777   0.42119   0.00000  Uiso   1.00
H478   H     0.09654   0.10557   0.57881   0.00000  Uiso   1.00
N479   N     0.16665   0.16666   0.61907   0.00000  Uiso   1.00
N480   N     0.07359   0.08993   0.39173   0.00000  Uiso   1.00
N481   N     0.16668   0.16668   0.38093   0.00000  Uiso   1.00
N482   N     0.30493   0.11693   0.41331   0.00000  Uiso   1.00
N483   N     0.02841   0.21641   0.58669   0.00000  Uiso   1.00
N484   N     0.21171   0.05838   0.39143   0.00000  Uiso   1.00
N485   N     0.12163   0.27496   0.60857   0.00000  Uiso   1.00
N486   N     0.15454   0.28032   0.37770   0.00000  Uiso   1.00
N487   N     0.17880   0.05301   0.62230   0.00000  Uiso   1.00
N488   N     0.25974   0.24340   0.60827   0.00000  Uiso   1.00
O489   O     0.16666   0.10558   0.53821   0.00000  Uiso   1.00
O490   O     0.04566   0.11519   0.62013   0.00000  Uiso   1.00
O491   O     0.16667   0.22775   0.46179   0.00000  Uiso   1.00
O492   O     0.16666   0.10559   0.46176   0.00000  Uiso   1.00
O493   O     0.16667   0.22774   0.53824   0.00000  Uiso   1.00
O494   O     0.09058   0.16666   0.52928   0.00000  Uiso   1.00
O495   O     0.24275   0.16667   0.47072   0.00000  Uiso   1.00
O496   O     0.09058   0.16667   0.45284   0.00000  Uiso   1.00
O497   O     0.24275   0.16666   0.54716   0.00000  Uiso   1.00
O498   O     0.28767   0.21814   0.37987   0.00000  Uiso   1.00
Zn499  Zn    0.16667   0.16666   0.55104   0.00000  Uiso   1.00
Zn500  Zn    0.16667   0.16667   0.44896   0.00000  Uiso   1.00
C501   C     0.50353   0.08681   0.50076   0.00000  Uiso   1.00
C502   C     0.49955   0.02011   0.54165   0.00000  Uiso   1.00
C503   C     0.49307   0.29091   0.49827   0.00000  Uiso   1.00
C504   C     0.50693   0.04242   0.50173   0.00000  Uiso   1.00
C505   C     0.53618   0.19004   0.36118   0.00000  Uiso   1.00
C506   C     0.46382   0.14329   0.63882   0.00000  Uiso   1.00
C507   C     0.53494   0.19072   0.64624   0.00000  Uiso   1.00
C508   C     0.46505   0.14261   0.35376   0.00000  Uiso   1.00
C509   C     0.65667   0.13608   0.44431   0.00000  Uiso   1.00
C510   C     0.34333   0.19725   0.55569   0.00000  Uiso   1.00
C511   C     0.53011   0.04227   0.42230   0.00000  Uiso   1.00
C512   C     0.49646   0.24652   0.49924   0.00000  Uiso   1.00
C513   C     0.46989   0.29106   0.57770   0.00000  Uiso   1.00
C514   C     0.49364   0.29467   0.41354   0.00000  Uiso   1.00
C515   C     0.50636   0.03866   0.58646   0.00000  Uiso   1.00
C516   C     0.57739   0.21398   0.39017   0.00000  Uiso   1.00
C517   C     0.42261   0.11935   0.60983   0.00000  Uiso   1.00
C518   C     0.56739   0.21966   0.62499   0.00000  Uiso   1.00
C519   C     0.43261   0.11368   0.37501   0.00000  Uiso   1.00
C520   C     0.40069   0.16614   0.48837   0.00000  Uiso   1.00
C521   C     0.59931   0.16719   0.51163   0.00000  Uiso   1.00
C522   C     0.34634   0.16041   0.48326   0.00000  Uiso   1.00
C523   C     0.65366   0.17292   0.51674   0.00000  Uiso   1.00
C524   C     0.51141   0.02172   0.46105   0.00000  Uiso   1.00
C525   C     0.48859   0.31161   0.53895   0.00000  Uiso   1.00
C526   C     0.50045   0.31322   0.45836   0.00000  Uiso   1.00
H527   H     0.57013   0.22777   0.42119   0.00000  Uiso   1.00
H528   H     0.42987   0.10557   0.57881   0.00000  Uiso   1.00
N529   N     0.49999   0.16666   0.61907   0.00000  Uiso   1.00
N530   N     0.40693   0.08993   0.39173   0.00000  Uiso   1.00
N531   N     0.50001   0.16668   0.38093   0.00000  Uiso   1.00
N532   N     0.63826   0.11693   0.41331   0.00000  Uiso   1.00
N533   N     0.36174   0.21641   0.58669   0.00000  Uiso   1.00
N534   N     0.54504   0.05838   0.39143   0.00000  Uiso   1.00
N535   N     0.45496   0.27496   0.60857   0.00000  Uiso   1.00
N536   N     0.48787   0.28032   0.37770   0.00000  Uiso   1.00
N537   N     0.51213   0.05301   0.62230   0.00000  Uiso   1.00
N538   N     0.59307   0.24340   0.60827   0.00000  Uiso   1.00
O539   O     0.50000   0.10558   0.53821   0.00000  Uiso   1.00
O540   O     0.37899   0.11519   0.62013   0.00000  Uiso   1.00
O541   O     0.50000   0.22775   0.46179   0.00000  Uiso   1.00
O542   O     0.50000   0.10559   0.46176   0.00000  Uiso   1.00
O543   O     0.50000   0.22774   0.53824   0.00000  Uiso   1.00
O544   O     0.42392   0.16666   0.52928   0.00000  Uiso   1.00
O545   O     0.57608   0.16667   0.47072   0.00000  Uiso   1.00
O546   O     0.42392   0.16667   0.45284   0.00000  Uiso   1.00
O547   O     0.57608   0.16666   0.54716   0.00000  Uiso   1.00
O548   O     0.62101   0.21814   0.37987   0.00000  Uiso   1.00
Zn549  Zn    0.50000   0.16666   0.55104   0.00000  Uiso   1.00
Zn550  Zn    0.50000   0.16667   0.44896   0.00000  Uiso   1.00
C551   C     0.83687   0.08681   0.50076   0.00000  Uiso   1.00
C552   C     0.83289   0.02011   0.54165   0.00000  Uiso   1.00
C553   C     0.82641   0.29091   0.49827   0.00000  Uiso   1.00
C554   C     0.84026   0.04242   0.50173   0.00000  Uiso   1.00
C555   C     0.86951   0.19004   0.36118   0.00000  Uiso   1.00
C556   C     0.79716   0.14329   0.63882   0.00000  Uiso   1.00
C557   C     0.86828   0.19072   0.64624   0.00000  Uiso   1.00
C558   C     0.79839   0.14261   0.35376   0.00000  Uiso   1.00
C559   C     0.99000   0.13608   0.44431   0.00000  Uiso   1.00
C560   C     0.67666   0.19725   0.55569   0.00000  Uiso   1.00
C561   C     0.86344   0.04227   0.42230   0.00000  Uiso   1.00
C562   C     0.82980   0.24652   0.49924   0.00000  Uiso   1.00
C563   C     0.80322   0.29106   0.57770   0.00000  Uiso   1.00
C564   C     0.82697   0.29467   0.41354   0.00000  Uiso   1.00
C565   C     0.83969   0.03866   0.58646   0.00000  Uiso   1.00
C566   C     0.91072   0.21398   0.39017   0.00000  Uiso   1.00
C567   C     0.75594   0.11935   0.60983   0.00000  Uiso   1.00
C568   C     0.90072   0.21966   0.62499   0.00000  Uiso   1.00
C569   C     0.76594   0.11368   0.37501   0.00000  Uiso   1.00
C570   C     0.73402   0.16614   0.48837   0.00000  Uiso   1.00
C571   C     0.93264   0.16719   0.51163   0.00000  Uiso   1.00
C572   C     0.67967   0.16041   0.48326   0.00000  Uiso   1.00
C573   C     0.98700   0.17292   0.51674   0.00000  Uiso   1.00
C574   C     0.84474   0.02172   0.46105   0.00000  Uiso   1.00
C575   C     0.82192   0.31161   0.53895   0.00000  Uiso   1.00
C576   C     0.83378   0.31322   0.45836   0.00000  Uiso   1.00
H577   H     0.90346   0.22777   0.42119   0.00000  Uiso   1.00
H578   H     0.76320   0.10557   0.57881   0.00000  Uiso   1.00
N579   N     0.83332   0.16666   0.61907   0.00000  Uiso   1.00
N580   N     0.74026   0.08993   0.39173   0.00000  Uiso   1.00
N581   N     0.83335   0.16668   0.38093   0.00000  Uiso   1.00
N582   N     0.97159   0.11693   0.41331   0.00000  Uiso   1.00
N583   N     0.69507   0.21641   0.58669   0.00000  Uiso   1.00
N584   N     0.87837   0.05838   0.39143   0.00000  Uiso   1.00
N585   N     0.78829   0.27496   0.60857   0.00000  Uiso   1.00
N586   N     0.82120   0.28032   0.37770   0.00000  Uiso   1.00
N587   N     0.84546   0.05301   0.62230   0.00000  Uiso   1.00
N588   N     0.92641   0.24340   0.60827   0.00000  Uiso   1.00
O589   O     0.83333   0.10558   0.53821   0.00000  Uiso   1.00
O590   O     0.71233   0.11519   0.62013   0.00000  Uiso   1.00
O591   O     0.83334   0.22775   0.46179   0.00000  Uiso   1.00
O592   O     0.83333   0.10559   0.46176   0.00000  Uiso   1.00
O593   O     0.83334   0.22774   0.53824   0.00000  Uiso   1.00
O594   O     0.75725   0.16666   0.52928   0.00000  Uiso   1.00
O595   O     0.90942   0.16667   0.47072   0.00000  Uiso   1.00
O596   O     0.75725   0.16667   0.45284   0.00000  Uiso   1.00
O597   O     0.90942   0.16666   0.54716   0.00000  Uiso   1.00
O598   O     0.95434   0.21814   0.37987   0.00000  Uiso   1.00
Zn599  Zn    0.83333   0.16666   0.55104   0.00000  Uiso   1.00
Zn600  Zn    0.83333   0.16667   0.44896   0.00000  Uiso   1.00
C601   C     0.17020   0.42014   0.50076   0.00000  Uiso   1.00
C602   C     0.16622   0.35344   0.54165   0.00000  Uiso   1.00
C603   C     0.15974   0.62424   0.49827   0.00000  Uiso   1.00
C604   C     0.17359   0.37575   0.50173   0.00000  Uiso   1.00
C605   C     0.20284   0.52338   0.36118   0.00000  Uiso   1.00
C606   C     0.13049   0.47662   0.63882   0.00000  Uiso   1.00
C607   C     0.20161   0.52406   0.64624   0.00000  Uiso   1.00
C608   C     0.13172   0.47594   0.35376   0.00000  Uiso   1.00
C609   C     0.32333   0.46942   0.44431   0.00000  Uiso   1.00
C610   C     0.01000   0.53058   0.55569   0.00000  Uiso   1.00
C611   C     0.19678   0.37561   0.42230   0.00000  Uiso   1.00
C612   C     0.16313   0.57986   0.49924   0.00000  Uiso   1.00
C613   C     0.13656   0.62439   0.57770   0.00000  Uiso   1.00
C614   C     0.16031   0.62800   0.41354   0.00000  Uiso   1.00
C615   C     0.17303   0.37200   0.58646   0.00000  Uiso   1.00
C616   C     0.24406   0.54732   0.39017   0.00000  Uiso   1.00
C617   C     0.08928   0.45268   0.60983   0.00000  Uiso   1.00
C618   C     0.23406   0.55299   0.62499   0.00000  Uiso   1.00
C619   C     0.09928   0.44701   0.37501   0.00000  Uiso   1.00
C620   C     0.06736   0.49947   0.48837   0.00000  Uiso   1.00
C621   C     0.26597   0.50053   0.51163   0.00000  Uiso   1.00
C622   C     0.01300   0.49375   0.48326   0.00000  Uiso   1.00
C623   C     0.32033   0.50625   0.51674   0.00000  Uiso   1.00
C624   C     0.17808   0.35506   0.46105   0.00000  Uiso   1.00
C625   C     0.15526   0.64494   0.53895   0.00000  Uiso   1.00
C626   C     0.16711   0.64656   0.45836   0.00000  Uiso   1.00
H627   H     0.23680   0.56110   0.42119   0.00000  Uiso   1.00
H628   H     0.09654   0.43890   0.57881   0.00000  Uiso   1.00
N629   N     0.16665   0.49999   0.61907   0.00000  Uiso   1.00
N630   N     0.07359   0.42326   0.39173   0.00000  Uiso   1.00
N631   N     0.16668   0.50001   0.38093   0.00000  Uiso   1.00
N632   N     0.30493   0.45026   0.41331   0.00000  Uiso   1.00
N633   N     0.02841   0.54974   0.58669   0.00000  Uiso   1.00
N634   N     0.21171   0.39171   0.39143   0.00000  Uiso   1.00
N635   N     0.12163   0.60829   0.60857   0.00000  Uiso   1.00
N636   N     0.15454   0.61366   0.37770   0.00000  Uiso   1.00
N637   N     0.17880   0.38634   0.62230   0.00000  Uiso   1.00
N638   N     0.25974   0.57674   0.60827   0.00000  Uiso   1.00
O639   O     0.16666   0.43892   0.53821   0.00000  Uiso   1.00
O640   O     0.04566   0.44852   0.62013   0.00000  Uiso   1.00
O641   O     0.16667   0.56108   0.46179   0.00000  Uiso   1.00
O642   O     0.16666   0.43893   0.46176   0.00000  Uiso   1.00
O643   O     0.16667   0.56107   0.53824   0.00000  Uiso   1.00
O644   O     0.09058   0.50000   0.52928   0.00000  Uiso   1.00
O645   O     0.24275   0.50000   0.47072   0.00000  Uiso   1.00
O646   O     0.09058   0.50000   0.45284   0.00000  Uiso   1.00
O647   O     0.24275   0.50000   0.54716   0.00000  Uiso   1.00
O648   O     0.28767   0.55147   0.37987   0.00000  Uiso   1.00
Zn649  Zn    0.16667   0.49999   0.55104   0.00000  Uiso   1.00
Zn650  Zn    0.16667   0.50001   0.44896   0.00000  Uiso   1.00
C651   C     0.50353   0.42014   0.50076   0.00000  Uiso   1.00
C652   C     0.49955   0.35344   0.54165   0.00000  Uiso   1.00
C653   C     0.49307   0.62424   0.49827   0.00000  Uiso   1.00
C654   C     0.50693   0.37575   0.50173   0.00000  Uiso   1.00
C655   C     0.53618   0.52338   0.36118   0.00000  Uiso   1.00
C656   C     0.46382   0.47662   0.63882   0.00000  Uiso   1.00
C657   C     0.53494   0.52406   0.64624   0.00000  Uiso   1.00
C658   C     0.46505   0.47594   0.35376   0.00000  Uiso   1.00
C659   C     0.65667   0.46942   0.44431   0.00000  Uiso   1.00
C660   C     0.34333   0.53058   0.55569   0.00000  Uiso   1.00
C661   C     0.53011   0.37561   0.42230   0.00000  Uiso   1.00
C662   C     0.49646   0.57986   0.49924   0.00000  Uiso   1.00
C663   C     0.46989   0.62439   0.57770   0.00000  Uiso   1.00
C664   C     0.49364   0.62800   0.41354   0.00000  Uiso   1.00
C665   C     0.50636   0.37200   0.58646   0.00000  Uiso   1.00
C666   C     0.57739   0.54732   0.39017   0.00000  Uiso   1.00
C667   C     0.42261   0.45268   0.60983   0.00000  Uiso   1.00
C668   C     0.56739   0.55299   0.62499   0.00000  Uiso   1.00
C669   C     0.43261   0.44701   0.37501   0.00000  Uiso   1.00
C670   C     0.40069   0.49947   0.48837   0.00000  Uiso   1.00
C671   C     0.59931   0.50053   0.51163   0.00000  Uiso   1.00
C672   C     0.34634   0.49375   0.48326   0.00000  Uiso   1.00
C673   C     0.65366   0.50625   0.51674   0.00000  Uiso   1.00
C674   C     0.51141   0.35506   0.46105   0.00000  Uiso   1.00
C675   C     0.48859   0.64494   0.53895   0.00000  Uiso   1.00
C676   C     0.50045   0.64656   0.45836   0.00000  Uiso   1.00
H677   H     0.57013   0.56110   0.42119   0.00000  Uiso   1.00
H678   H     0.42987   0.43890   0.57881   0.00000  Uiso   1.00
N679   N     0.49999   0.49999   0.61907   0.00000  Uiso   1.00
N680   N     0.40693   0.42326   0.39173   0.00000  Uiso   1.00
N681   N     0.50001   0.50001   0.38093   0.00000  Uiso   1.00
N682   N     0.63826   0.45026   0.41331   0.00000  Uiso   1.00
N683   N     0.36174   0.54974   0.58669   0.00000  Uiso   1.00
N684   N     0.54504   0.39171   0.39143   0.00000  Uiso   1.00
N685   N     0.45496   0.60829   0.60857   0.00000  Uiso   1.00
N686   N     0.48787   0.61366   0.37770   0.00000  Uiso   1.00
N687   N     0.51213   0.38634   0.62230   0.00000  Uiso   1.00
N688   N     0.59307   0.57674   0.60827   0.00000  Uiso   1.00
O689   O     0.50000   0.43892   0.53821   0.00000  Uiso   1.00
O690   O     0.37899   0.44852   0.62013   0.00000  Uiso   1.00
O691   O     0.50000   0.56108   0.46179   0.00000  Uiso   1.00
O692   O     0.50000   0.43893   0.46176   0.00000  Uiso   1.00
O693   O     0.50000   0.56107   0.53824   0.00000  Uiso   1.00
O694   O     0.42392   0.50000   0.52928   0.00000  Uiso   1.00
O695   O     0.57608   0.50000   0.47072   0.00000  Uiso   1.00
O696   O     0.42392   0.50000   0.45284   0.00000  Uiso   1.00
O697   O     0.57608   0.50000   0.54716   0.00000  Uiso   1.00
O698   O     0.62101   0.55147   0.37987   0.00000  Uiso   1.00
Zn699  Zn    0.50000   0.49999   0.55104   0.00000  Uiso   1.00
Zn700  Zn    0.50000   0.50001   0.44896   0.00000  Uiso   1.00
C701   C     0.83687   0.42014   0.50076   0.00000  Uiso   1.00
C702   C     0.83289   0.35344   0.54165   0.00000  Uiso   1.00
C703   C     0.82641   0.62424   0.49827   0.00000  Uiso   1.00
C704   C     0.84026   0.37575   0.50173   0.00000  Uiso   1.00
C705   C     0.86951   0.52338   0.36118   0.00000  Uiso   1.00
C706   C     0.79716   0.47662   0.63882   0.00000  Uiso   1.00
C707   C     0.86828   0.52406   0.64624   0.00000  Uiso   1.00
C708   C     0.79839   0.47594   0.35376   0.00000  Uiso   1.00
C709   C     0.99000   0.46942   0.44431   0.00000  Uiso   1.00
C710   C     0.67666   0.53058   0.55569   0.00000  Uiso   1.00
C711   C     0.86344   0.37561   0.42230   0.00000  Uiso   1.00
C712   C     0.82980   0.57986   0.49924   0.00000  Uiso   1.00
C713   C     0.80322   0.62439   0.57770   0.00000  Uiso   1.00
C714   C     0.82697   0.62800   0.41354   0.00000  Uiso   1.00
C715   C     0.83969   0.37200   0.58646   0.00000  Uiso   1.00
C716   C     0.91072   0.54732   0.39017   0.00000  Uiso   1.00
C717   C     0.75594   0.45268   0.60983   0.00000  Uiso   1.00
C718   C     0.90072   0.55299   0.62499   0.00000  Uiso   1.00
C719   C     0.76594   0.44701   0.37501   0.00000  Uiso   1.00
C720   C     0.73402   0.49947   0.48837   0.00000  Uiso   1.00
C721   C     0.93264   0.50053   0.51163   0.00000  Uiso   1.00
C722   C     0.67967   0.49375   0.48326   0.00000  Uiso   1.00
C723   C     0.98700   0.50625   0.51674   0.00000  Uiso   1.00
C724   C     0.84474   0.35506   0.46105   0.00000  Uiso   1.00
C725   C     0.82192   0.64494   0.53895   0.00000  Uiso   1.00
C726   C     0.83378   0.64656   0.45836   0.00000  Uiso   1.00
H727   H     0.90346   0.56110   0.42119   0.00000  Uiso   1.00
H728   H     0.76320   0.43890   0.57881   0.00000  Uiso   1.00
N729   N     0.83332   0.49999   0.61907   0.00000  Uiso   1.00
N730   N     0.74026   0.42326   0.39173   0.00000  Uiso   1.00
N731   N     0.83335   0.50001   0.38093   0.00000  Uiso   1.00
N732   N     0.97159   0.45026   0.41331   0.00000  Uiso   1.00
N733   N     0.69507   0.54974   0.58669   0.00000  Uiso   1.00
N734   N     0.87837   0.39171   0.39143   0.00000  Uiso   1.00
N735   N     0.78829   0.60829   0.60857   0.00000  Uiso   1.00
N736   N     0.82120   0.61366   0.37770   0.00000  Uiso   1.00
N737   N     0.84546   0.38634   0.62230   0.00000  Uiso   1.00
N738   N     0.92641   0.57674   0.60827   0.00000  Uiso   1.00
O739   O     0.83333   0.43892   0.53821   0.00000  Uiso   1.00
O740   O     0.71233   0.44852   0.62013   0.00000  Uiso   1.00
O741   O     0.83334   0.56108   0.46179   0.00000  Uiso   1.00
O742   O     0.83333   0.43893   0.46176   0.00000  Uiso   1.00
O743   O     0.83334   0.56107   0.53824   0.00000  Uiso   1.00
O744   O     0.75725   0.50000   0.52928   0.00000  Uiso   1.00
O745   O     0.90942   0.50000   0.47072   0.00000  Uiso   1.00
O746   O     0.75725   0.50000   0.45284   0.00000  Uiso   1.00
O747   O     0.90942   0.50000   0.54716   0.00000  Uiso   1.00
O748   O     0.95434   0.55147   0.37987   0.00000  Uiso   1.00
Zn749  Zn    0.83333   0.49999   0.55104   0.00000  Uiso   1.00
Zn750  Zn    0.83333   0.50001   0.44896   0.00000  Uiso   1.00
C751   C     0.17020   0.75348   0.50076   0.00000  Uiso   1.00
C752   C     0.16622   0.68678   0.54165   0.00000  Uiso   1.00
C753   C     0.15974   0.95758   0.49827   0.00000  Uiso   1.00
C754   C     0.17359   0.70909   0.50173   0.00000  Uiso   1.00
C755   C     0.20284   0.85671   0.36118   0.00000  Uiso   1.00
C756   C     0.13049   0.80996   0.63882   0.00000  Uiso   1.00
C757   C     0.20161   0.85739   0.64624   0.00000  Uiso   1.00
C758   C     0.13172   0.80928   0.35376   0.00000  Uiso   1.00
C759   C     0.32333   0.80275   0.44431   0.00000  Uiso   1.00
C760   C     0.01000   0.86392   0.55569   0.00000  Uiso   1.00
C761   C     0.19678   0.70894   0.42230   0.00000  Uiso   1.00
C762   C     0.16313   0.91319   0.49924   0.00000  Uiso   1.00
C763   C     0.13656   0.95773   0.57770   0.00000  Uiso   1.00
C764   C     0.16031   0.96134   0.41354   0.00000  Uiso   1.00
C765   C     0.17303   0.70533   0.58646   0.00000  Uiso   1.00
C766   C     0.24406   0.88065   0.39017   0.00000  Uiso   1.00
C767   C     0.08928   0.78601   0.60983   0.00000  Uiso   1.00
C768   C     0.23406   0.88632   0.62499   0.00000  Uiso   1.00
C769   C     0.09928   0.78034   0.37501   0.00000  Uiso   1.00
C770   C     0.06736   0.83281   0.48837   0.00000  Uiso   1.00
C771   C     0.26597   0.83386   0.51163   0.00000  Uiso   1.00
C772   C     0.01300   0.82708   0.48326   0.00000  Uiso   1.00
C773   C     0.32033   0.83959   0.51674   0.00000  Uiso   1.00
C774   C     0.17808   0.68839   0.46105   0.00000  Uiso   1.00
C775   C     0.15526   0.97828   0.53895   0.00000  Uiso   1.00
C776   C     0.16711   0.97989   0.45836   0.00000  Uiso   1.00
H777   H     0.23680   0.89443   0.42119   0.00000  Uiso   1.00
H778   H     0.09654   0.77223   0.57881   0.00000  Uiso   1.00
N779   N     0.16665   0.83332   0.61907   0.00000  Uiso   1.00
N780   N     0.07359   0.75660   0.39173   0.00000  Uiso   1.00
N781   N     0.16668   0.83334   0.38093   0.00000  Uiso   1.00
N782   N     0.30493   0.78359   0.41331   0.00000  Uiso   1.00
N783   N     0.02841   0.88307   0.58669   0.00000  Uiso   1.00
N784   N     0.21171   0.72504   0.39143   0.00000  Uiso   1.00
N785   N     0.12163   0.94162   0.60857   0.00000  Uiso   1.00
N786   N     0.15454   0.94699   0.37770   0.00000  Uiso   1.00
N787   N     0.17880   0.71968   0.62230   0.00000  Uiso   1.00
N788   N     0.25974   0.91007   0.60827   0.00000  Uiso   1.00
O789   O     0.16666   0.77225   0.53821   0.00000  Uiso   1.00
O790   O     0.04566   0.78186   0.62013   0.00000  Uiso   1.00
O791   O     0.16667   0.89442   0.46179   0.00000  Uiso   1.00
O792   O     0.16666   0.77226   0.46176   0.00000  Uiso   1.00
O793   O     0.16667   0.89441   0.53824   0.00000  Uiso   1.00
O794   O     0.09058   0.83333   0.52928   0.00000  Uiso   1.00
O795   O     0.24275   0.83334   0.47072   0.00000  Uiso   1.00
O796   O     0.09058   0.83334   0.45284   0.00000  Uiso   1.00
O797   O     0.24275   0.83333   0.54716   0.00000  Uiso   1.00
O798   O     0.28767   0.88481   0.37987   0.00000  Uiso   1.00
Zn799  Zn    0.16667   0.83333   0.55104   0.00000  Uiso   1.00
Zn800  Zn    0.16667   0.83334   0.44896   0.00000  Uiso   1.00
C801   C     0.50353   0.75348   0.50076   0.00000  Uiso   1.00
C802   C     0.49955   0.68678   0.54165   0.00000  Uiso   1.00
C803   C     0.49307   0.95758   0.49827   0.00000  Uiso   1.00
C804   C     0.50693   0.70909   0.50173   0.00000  Uiso   1.00
C805   C     0.53618   0.85671   0.36118   0.00000  Uiso   1.00
C806   C     0.46382   0.80996   0.63882   0.00000  Uiso   1.00
C807   C     0.53494   0.85739   0.64624   0.00000  Uiso   1.00
C808   C     0.46505   0.80928   0.35376   0.00000  Uiso   1.00
C809   C     0.65667   0.80275   0.44431   0.00000  Uiso   1.00
C810   C     0.34333   0.86392   0.55569   0.00000  Uiso   1.00
C811   C     0.53011   0.70894   0.42230   0.00000  Uiso   1.00
C812   C     0.49646   0.91319   0.49924   0.00000  Uiso   1.00
C813   C     0.46989   0.95773   0.57770   0.00000  Uiso   1.00
C814   C     0.49364   0.96134   0.41354   0.00000  Uiso   1.00
C815   C     0.50636   0.70533   0.58646   0.00000  Uiso   1.00
C816   C     0.57739   0.88065   0.39017   0.00000  Uiso   1.00
C817   C     0.42261   0.78601   0.60983   0.00000  Uiso   1.00
C818   C     0.56739   0.88632   0.62499   0.00000  Uiso   1.00
C819   C     0.43261   0.78034   0.37501   0.00000  Uiso   1.00
C820   C     0.40069   0.83281   0.48837   0.00000  Uiso   1.00
C821   C     0.59931   0.83386   0.51163   0.00000  Uiso   1.00
C822   C     0.34634   0.82708   0.48326   0.00000  Uiso   1.00
C823   C     0.65366   0.83959   0.51674   0.00000  Uiso   1.00
C824   C     0.51141   0.68839   0.46105   0.00000  Uiso   1.00
C825   C     0.48859   0.97828   0.53895   0.00000  Uiso   1.00
C826   C     0.50045   0.97989   0.45836   0.00000  Uiso   1.00
H827   H     0.57013   0.89443   0.42119   0.00000  Uiso   1.00
H828   H     0.42987   0.77223   0.57881   0.00000  Uiso   1.00
N829   N     0.49999   0.83332   0.61907   0.00000  Uiso   1.00
N830   N     0.40693   0.75660   0.39173   0.00000  Uiso   1.00
N831   N     0.50001   0.83334   0.38093   0.00000  Uiso   1.00
N832   N     0.63826   0.78359   0.41331   0.00000  Uiso   1.00
N833   N     0.36174   0.88307   0.58669   0.00000  Uiso   1.00
N834   N     0.54504   0.72504   0.39143   0.00000  Uiso   1.00
N835   N     0.45496   0.94162   0.60857   0.00000  Uiso   1.00
N836   N     0.48787   0.94699   0.37770   0.00000  Uiso   1.00
N837   N     0.51213   0.71968   0.62230   0.00000  Uiso   1.00
N838   N     0.59307   0.91007   0.60827   0.00000  Uiso   1.00
O839   O     0.50000   0.77225   0.53821   0.00000  Uiso   1.00
O840   O     0.37899   0.78186   0.62013   0.00000  Uiso   1.00
O841   O     0.50000   0.89442   0.46179   0.00000  Uiso   1.00
O842   O     0.50000   0.77226   0.46176   0.00000  Uiso   1.00
O843   O     0.50000   0.89441   0.53824   0.00000  Uiso   1.00
O844   O     0.42392   0.83333   0.52928   0.00000  Uiso   1.00
O845   O     0.57608   0.83334   0.47072   0.00000  Uiso   1.00
O846   O     0.42392   0.83334   0.45284   0.00000  Uiso   1.00
O847   O     0.57608   0.83333   0.54716   0.00000  Uiso   1.00
O848   O     0.62101   0.88481   0.37987   0.00000  Uiso   1.00
Zn849  Zn    0.50000   0.83333   0.55104   0.00000  Uiso   1.00
Zn850  Zn    0.50000   0.83334   0.44896   0.00000  Uiso   1.00
C851   C     0.83687   0.75348   0.50076   0.00000  Uiso   1.00
C852   C     0.83289   0.68678   0.54165   0.00000  Uiso   1.00
C853   C     0.82641   0.95758   0.49827   0.00000  Uiso   1.00
C854   C     0.84026   0.70909   0.50173   0.00000  Uiso   1.00
C855   C     0.86951   0.85671   0.36118   0.00000  Uiso   1.00
C856   C     0.79716   0.80996   0.63882   0.00000  Uiso   1.00
C857   C     0.86828   0.85739   0.64624   0.00000  Uiso   1.00
C858   C     0.79839   0.80928   0.35376   0.00000  Uiso   1.00
C859   C     0.99000   0.80275   0.44431   0.00000  Uiso   1.00
C860   C     0.67666   0.86392   0.55569   0.00000  Uiso   1.00
C861   C     0.86344   0.70894   0.42230   0.00000  Uiso   1.00
C862   C     0.82980   0.91319   0.49924   0.00000  Uiso   1.00
C863   C     0.80322   0.95773   0.57770   0.00000  Uiso   1.00
C864   C     0.82697   0.96134   0.41354   0.00000  Uiso   1.00
C865   C     0.83969   0.70533   0.58646   0.00000  Uiso   1.00
C866   C     0.91072   0.88065   0.39017   0.00000  Uiso   1.00
C867   C     0.75594   0.78601   0.60983   0.00000  Uiso   1.00
C868   C     0.90072   0.88632   0.62499   0.00000  Uiso   1.00
C869   C     0.76594   0.78034   0.37501   0.00000  Uiso   1.00
C870   C     0.73402   0.83281   0.48837   0.00000  Uiso   1.00
C871   C     0.93264   0.83386   0.51163   0.00000  Uiso   1.00
C872   C     0.67967   0.82708   0.48326   0.00000  Uiso   1.00
C873   C     0.98700   0.83959   0.51674   0.00000  Uiso   1.00
C874   C     0.84474   0.68839   0.46105   0.00000  Uiso   1.00
C875   C     0.82192   0.97828   0.53895   0.00000  Uiso   1.00
C876   C     0.83378   0.97989   0.45836   0.00000  Uiso   1.00
H877   H     0.90346   0.89443   0.42119   0.00000  Uiso   1.00
H878   H     0.76320   0.77223   0.57881   0.00000  Uiso   1.00
N879   N     0.83332   0.83332   0.61907   0.00000  Uiso   1.00
N880   N     0.74026   0.75660   0.39173   0.00000  Uiso   1.00
N881   N     0.83335   0.83334   0.38093   0.00000  Uiso   1.00
N882   N     0.97159   0.78359   0.41331   0.00000  Uiso   1.00
N883   N     0.69507   0.88307   0.58669   0.00000  Uiso   1.00
N884   N     0.87837   0.72504   0.39143   0.00000  Uiso   1.00
N885   N     0.78829   0.94162   0.60857   0.00000  Uiso   1.00
N886   N     0.82120   0.94699   0.37770   0.00000  Uiso   1.00
N887   N     0.84546   0.71968   0.62230   0.00000  Uiso   1.00
N888   N     0.92641   0.91007   0.60827   0.00000  Uiso   1.00
O889   O     0.83333   0.77225   0.53821   0.00000  Uiso   1.00
O890   O     0.71233   0.78186   0.62013   0.00000  Uiso   1.00
O891   O     0.83334   0.89442   0.46179   0.00000  Uiso   1.00
O892   O     0.83333   0.77226   0.46176   0.00000  Uiso   1.00
O893   O     0.83334   0.89441   0.53824   0.00000  Uiso   1.00
O894   O     0.75725   0.83333   0.52928   0.00000  Uiso   1.00
O895   O     0.90942   0.83334   0.47072   0.00000  Uiso   1.00
O896   O     0.75725   0.83334   0.45284   0.00000  Uiso   1.00
O897   O     0.90942   0.83333   0.54716   0.00000  Uiso   1.00
O898   O     0.95434   0.88481   0.37987   0.00000  Uiso   1.00
Zn899  Zn    0.83333   0.83333   0.55104   0.00000  Uiso   1.00
Zn900  Zn    0.83333   0.83334   0.44896   0.00000  Uiso   1.00
C901   C     0.17020   0.08681   0.83409   0.00000  Uiso   1.00
C902   C     0.16622   0.02011   0.87498   0.00000  Uiso   1.00
C903   C     0.15974   0.29091   0.83161   0.00000  Uiso   1.00
C904   C     0.17359   0.04242   0.83506   0.00000  Uiso   1.00
C905   C     0.20284   0.19004   0.69452   0.00000  Uiso   1.00
C906   C     0.13049   0.14329   0.97215   0.00000  Uiso   1.00
C907   C     0.20161   0.19072   0.97958   0.00000  Uiso   1.00
C908   C     0.13172   0.14261   0.68709   0.00000  Uiso   1.00
C909   C     0.32333   0.13608   0.77765   0.00000  Uiso   1.00
C910   C     0.01000   0.19725   0.88902   0.00000  Uiso   1.00
C911   C     0.19678   0.04227   0.75563   0.00000  Uiso   1.00
C912   C     0.16313   0.24652   0.83257   0.00000  Uiso   1.00
C913   C     0.13656   0.29106   0.91104   0.00000  Uiso   1.00
C914   C     0.16031   0.29467   0.74687   0.00000  Uiso   1.00
C915   C     0.17303   0.03866   0.91979   0.00000  Uiso   1.00
C916   C     0.24406   0.21398   0.72350   0.00000  Uiso   1.00
C917   C     0.08928   0.11935   0.94317   0.00000  Uiso   1.00
C918   C     0.23406   0.21966   0.95832   0.00000  Uiso   1.00
C919   C     0.09928   0.11368   0.70834   0.00000  Uiso   1.00
C920   C     0.06736   0.16614   0.82170   0.00000  Uiso   1.00
C921   C     0.26597   0.16719   0.84497   0.00000  Uiso   1.00
C922   C     0.01300   0.16041   0.81660   0.00000  Uiso   1.00
C923   C     0.32033   0.17292   0.85007   0.00000  Uiso   1.00
C924   C     0.17808   0.02172   0.79438   0.00000  Uiso   1.00
C925   C     0.15526   0.31161   0.87229   0.00000  Uiso   1.00
C926   C     0.16711   0.31322   0.79169   0.00000  Uiso   1.00
H927   H     0.23680   0.22777   0.75452   0.00000  Uiso   1.00
H928   H     0.09654   0.10557   0.91214   0.00000  Uiso   1.00
N929   N     0.16665   0.16666   0.95240   0.00000  Uiso   1.00
N930   N     0.07359   0.08993   0.72506   0.00000  Uiso   1.00
N931   N     0.16668   0.16668   0.71427   0.00000  Uiso   1.00
N932   N     0.30493   0.11693   0.74664   0.00000  Uiso   1.00
N933   N     0.02841   0.21641   0.92003   0.00000  Uiso   1.00
N934   N     0.21171   0.05838   0.72476   0.00000  Uiso   1.00
N935   N     0.12163   0.27496   0.94191   0.00000  Uiso   1.00
N936   N     0.15454   0.28032   0.71104   0.00000  Uiso   1.00
N937   N     0.17880   0.05301   0.95563   0.00000  Uiso   1.00
N938   N     0.25974   0.24340   0.94161   0.00000  Uiso   1.00
O939   O     0.16666   0.10558   0.87154   0.00000  Uiso   1.00
O940   O     0.04566   0.11519   0.95347   0.00000  Uiso   1.00
O941   O     0.16667   0.22775   0.79513   0.00000  Uiso   1.00
O942   O     0.16666   0.10559   0.79510   0.00000  Uiso   1.00
O943   O     0.16667   0.22774   0.87157   0.00000  Uiso   1.00
O944   O     0.09058   0.16666   0.86261   0.00000  Uiso   1.00
O945   O     0.24275   0.16667   0.80405   0.00000  Uiso   1.00
O946   O     0.09058   0.16667   0.78617   0.00000  Uiso   1.00
O947   O     0.24275   0.16666   0.88050   0.00000  Uiso   1.00
O948   O     0.28767   0.21814   0.71320   0.00000  Uiso   1.00
Zn949  Zn    0.16667   0.16666   0.88437   0.00000  Uiso   1.00
Zn950  Zn    0.16667   0.16667   0.78229   0.00000  Uiso   1.00
C951   C     0.50353   0.08681   0.83409   0.00000  Uiso   1.00
C952   C     0.49955   0.02011   0.87498   0.00000  Uiso   1.00
C953   C     0.49307   0.29091   0.83161   0.00000  Uiso   1.00
C954   C     0.50693   0.04242   0.83506   0.00000  Uiso   1.00
C955   C     0.53618   0.19004   0.69452   0.00000  Uiso   1.00
C956   C     0.46382   0.14329   0.97215   0.00000  Uiso   1.00
C957   C     0.53494   0.19072   0.97958   0.00000  Uiso   1.00
C958   C     0.46505   0.14261   0.68709   0.00000  Uiso   1.00
C959   C     0.65667   0.13608   0.77765   0.00000  Uiso   1.00
C960   C     0.34333   0.19725   0.88902   0.00000  Uiso   1.00
C961   C     0.53011   0.04227   0.75563   0.00000  Uiso   1.00
C962   C     0.49646   0.24652   0.83257   0.00000  Uiso   1.00
C963   C     0.46989   0.29106   0.91104   0.00000  Uiso   1.00
C964   C     0.49364   0.29467   0.74687   0.00000  Uiso   1.00
C965   C     0.50636   0.03866   0.91979   0.00000  Uiso   1.00
C966   C     0.57739   0.21398   0.72350   0.00000  Uiso   1.00
C967   C     0.42261   0.11935   0.94317   0.00000  Uiso   1.00
C968   C     0.56739   0.21966   0.95832   0.00000  Uiso   1.00
C969   C     0.43261   0.11368   0.70834   0.00000  Uiso   1.00
C970   C     0.40069   0.16614   0.82170   0.00000  Uiso   1.00
C971   C     0.59931   0.16719   0.84497   0.00000  Uiso   1.00
C972   C     0.34634   0.16041   0.81660   0.00000  Uiso   1.00
C973   C     0.65366   0.17292   0.85007   0.00000  Uiso   1.00
C974   C     0.51141   0.02172   0.79438   0.00000  Uiso   1.00
C975   C     0.48859   0.31161   0.87229   0.00000  Uiso   1.00
C976   C     0.50045   0.31322   0.79169   0.00000  Uiso   1.00
H977   H     0.57013   0.22777   0.75452   0.00000  Uiso   1.00
H978   H     0.42987   0.10557   0.91214   0.00000  Uiso   1.00
N979   N     0.49999   0.16666   0.95240   0.00000  Uiso   1.00
N980   N     0.40693   0.08993   0.72506   0.00000  Uiso   1.00
N981   N     0.50001   0.16668   0.71427   0.00000  Uiso   1.00
N982   N     0.63826   0.11693   0.74664   0.00000  Uiso   1.00
N983   N     0.36174   0.21641   0.92003   0.00000  Uiso   1.00
N984   N     0.54504   0.05838   0.72476   0.00000  Uiso   1.00
N985   N     0.45496   0.27496   0.94191   0.00000  Uiso   1.00
N986   N     0.48787   0.28032   0.71104   0.00000  Uiso   1.00
N987   N     0.51213   0.05301   0.95563   0.00000  Uiso   1.00
N988   N     0.59307   0.24340   0.94161   0.00000  Uiso   1.00
O989   O     0.50000   0.10558   0.87154   0.00000  Uiso   1.00
O990   O     0.37899   0.11519   0.95347   0.00000  Uiso   1.00
O991   O     0.50000   0.22775   0.79513   0.00000  Uiso   1.00
O992   O     0.50000   0.10559   0.79510   0.00000  Uiso   1.00
O993   O     0.50000   0.22774   0.87157   0.00000  Uiso   1.00
O994   O     0.42392   0.16666   0.86261   0.00000  Uiso   1.00
O995   O     0.57608   0.16667   0.80405   0.00000  Uiso   1.00
O996   O     0.42392   0.16667   0.78617   0.00000  Uiso   1.00
O997   O     0.57608   0.16666   0.88050   0.00000  Uiso   1.00
O998   O     0.62101   0.21814   0.71320   0.00000  Uiso   1.00
Zn999  Zn    0.50000   0.16666   0.88437   0.00000  Uiso   1.00
Zn1000 Zn    0.50000   0.16667   0.78229   0.00000  Uiso   1.00
C1001  C     0.83687   0.08681   0.83409   0.00000  Uiso   1.00
C1002  C     0.83289   0.02011   0.87498   0.00000  Uiso   1.00
C1003  C     0.82641   0.29091   0.83161   0.00000  Uiso   1.00
C1004  C     0.84026   0.04242   0.83506   0.00000  Uiso   1.00
C1005  C     0.86951   0.19004   0.69452   0.00000  Uiso   1.00
C1006  C     0.79716   0.14329   0.97215   0.00000  Uiso   1.00
C1007  C     0.86828   0.19072   0.97958   0.00000  Uiso   1.00
C1008  C     0.79839   0.14261   0.68709   0.00000  Uiso   1.00
C1009  C     0.99000   0.13608   0.77765   0.00000  Uiso   1.00
C1010  C     0.67666   0.19725   0.88902   0.00000  Uiso   1.00
C1011  C     0.86344   0.04227   0.75563   0.00000  Uiso   1.00
C1012  C     0.82980   0.24652   0.83257   0.00000  Uiso   1.00
C1013  C     0.80322   0.29106   0.91104   0.00000  Uiso   1.00
C1014  C     0.82697   0.29467   0.74687   0.00000  Uiso   1.00
C1015  C     0.83969   0.03866   0.91979   0.00000  Uiso   1.00
C1016  C     0.91072   0.21398   0.72350   0.00000  Uiso   1.00
C1017  C     0.75594   0.11935   0.94317   0.00000  Uiso   1.00
C1018  C     0.90072   0.21966   0.95832   0.00000  Uiso   1.00
C1019  C     0.76594   0.11368   0.70834   0.00000  Uiso   1.00
C1020  C     0.73402   0.16614   0.82170   0.00000  Uiso   1.00
C1021  C     0.93264   0.16719   0.84497   0.00000  Uiso   1.00
C1022  C     0.67967   0.16041   0.81660   0.00000  Uiso   1.00
C1023  C     0.98700   0.17292   0.85007   0.00000  Uiso   1.00
C1024  C     0.84474   0.02172   0.79438   0.00000  Uiso   1.00
C1025  C     0.82192   0.31161   0.87229   0.00000  Uiso   1.00
C1026  C     0.83378   0.31322   0.79169   0.00000  Uiso   1.00
H1027  H     0.90346   0.22777   0.75452   0.00000  Uiso   1.00
H1028  H     0.76320   0.10557   0.91214   0.00000  Uiso   1.00
N1029  N     0.83332   0.16666   0.95240   0.00000  Uiso   1.00
N1030  N     0.74026   0.08993   0.72506   0.00000  Uiso   1.00
N1031  N     0.83335   0.16668   0.71427   0.00000  Uiso   1.00
N1032  N     0.97159   0.11693   0.74664   0.00000  Uiso   1.00
N1033  N     0.69507   0.21641   0.92003   0.00000  Uiso   1.00
N1034  N     0.87837   0.05838   0.72476   0.00000  Uiso   1.00
N1035  N     0.78829   0.27496   0.94191   0.00000  Uiso   1.00
N1036  N     0.82120   0.28032   0.71104   0.00000  Uiso   1.00
N1037  N     0.84546   0.05301   0.95563   0.00000  Uiso   1.00
N1038  N     0.92641   0.24340   0.94161   0.00000  Uiso   1.00
O1039  O     0.83333   0.10558   0.87154   0.00000  Uiso   1.00
O1040  O     0.71233   0.11519   0.95347   0.00000  Uiso   1.00
O1041  O     0.83334   0.22775   0.79513   0.00000  Uiso   1.00
O1042  O     0.83333   0.10559   0.79510   0.00000  Uiso   1.00
O1043  O     0.83334   0.22774   0.87157   0.00000  Uiso   1.00
O1044  O     0.75725   0.16666   0.86261   0.00000  Uiso   1.00
O1045  O     0.90942   0.16667   0.80405   0.00000  Uiso   1.00
O1046  O     0.75725   0.16667   0.78617   0.00000  Uiso   1.00
O1047  O     0.90942   0.16666   0.88050   0.00000  Uiso   1.00
O1048  O     0.95434   0.21814   0.71320   0.00000  Uiso   1.00
Zn1049 Zn    0.83333   0.16666   0.88437   0.00000  Uiso   1.00
Zn1050 Zn    0.83333   0.16667   0.78229   0.00000  Uiso   1.00
C1051  C     0.17020   0.42014   0.83409   0.00000  Uiso   1.00
C1052  C     0.16622   0.35344   0.87498   0.00000  Uiso   1.00
C1053  C     0.15974   0.62424   0.83161   0.00000  Uiso   1.00
C1054  C     0.17359   0.37575   0.83506   0.00000  Uiso   1.00
C1055  C     0.20284   0.52338   0.69452   0.00000  Uiso   1.00
C1056  C     0.13049   0.47662   0.97215   0.00000  Uiso   1.00
C1057  C     0.20161   0.52406   0.97958   0.00000  Uiso   1.00
C1058  C     0.13172   0.47594   0.68709   0.00000  Uiso   1.00
C1059  C     0.32333   0.46942   0.77765   0.00000  Uiso   1.00
C1060  C     0.01000   0.53058   0.88902   0.00000  Uiso   1.00
C1061  C     0.19678   0.37561   0.75563   0.00000  Uiso   1.00
C1062  C     0.16313   0.57986   0.83257   0.00000  Uiso   1.00
C1063  C     0.13656   0.62439   0.91104   0.00000  Uiso   1.00
C1064  C     0.16031   0.62800   0.74687   0.00000  Uiso   1.00
C1065  C     0.17303   0.37200   0.91979   0.00000  Uiso   1.00
C1066  C     0.24406   0.54732   0.72350   0.00000  Uiso   1.00
C1067  C     0.08928   0.45268   0.94317   0.00000  Uiso   1.00
C1068  C     0.23406   0.55299   0.95832   0.00000  Uiso   1.00
C1069  C     0.09928   0.44701   0.70834   0.00000  Uiso   1.00
C1070  C     0.06736   0.49947   0.82170   0.00000  Uiso   1.00
C1071  C     0.26597   0.50053   0.84497   0.00000  Uiso   1.00
C1072  C     0.01300   0.49375   0.81660   0.00000  Uiso   1.00
C1073  C     0.32033   0.50625   0.85007   0.00000  Uiso   1.00
C1074  C     0.17808   0.35506   0.79438   0.00000  Uiso   1.00
C1075  C     0.15526   0.64494   0.87229   0.00000  Uiso   1.00
C1076  C     0.16711   0.64656   0.79169   0.00000  Uiso   1.00
H1077  H     0.23680   0.56110   0.75452   0.00000  Uiso   1.00
H1078  H     0.09654   0.43890   0.91214   0.00000  Uiso   1.00
N1079  N     0.16665   0.49999   0.95240   0.00000  Uiso   1.00
N1080  N     0.07359   0.42326   0.72506   0.00000  Uiso   1.00
N1081  N     0.16668   0.50001   0.71427   0.00000  Uiso   1.00
N1082  N     0.30493   0.45026   0.74664   0.00000  Uiso   1.00
N1083  N     0.02841   0.54974   0.92003   0.00000  Uiso   1.00
N1084  N     0.21171   0.39171   0.72476   0.00000  Uiso   1.00
N1085  N     0.12163   0.60829   0.94191   0.00000  Uiso   1.00
N1086  N     0.15454   0.61366   0.71104   0.00000  Uiso   1.00
N1087  N     0.17880   0.38634   0.95563   0.00000  Uiso   1.00
N1088  N     0.25974   0.57674   0.94161   0.00000  Uiso   1.00
O1089  O     0.16666   0.43892   0.87154   0.00000  Uiso   1.00
O1090  O     0.04566   0.44852   0.95347   0.00000  Uiso   1.00
O1091  O     0.16667   0.56108   0.79513   0.00000  Uiso   1.00
O1092  O     0.16666   0.43893   0.79510   0.00000  Uiso   1.00
O1093  O     0.16667   0.56107   0.87157   0.00000  Uiso   1.00
O1094  O     0.09058   0.50000   0.86261   0.00000  Uiso   1.00
O1095  O     0.24275   0.50000   0.80405   0.00000  Uiso   1.00
O1096  O     0.09058   0.50000   0.78617   0.00000  Uiso   1.00
O1097  O     0.24275   0.50000   0.88050   0.00000  Uiso   1.00
O1098  O     0.28767   0.55147   0.71320   0.00000  Uiso   1.00
Zn1099 Zn    0.16667   0.49999   0.88437   0.00000  Uiso   1.00
Zn1100 Zn    0.16667   0.50001   0.78229   0.00000  Uiso   1.00
C1101  C     0.50353   0.42014   0.83409   0.00000  Uiso   1.00
C1102  C     0.49955   0.35344   0.87498   0.00000  Uiso   1.00
C1103  C     0.49307   0.62424   0.83161   0.00000  Uiso   1.00
C1104  C     0.50693   0.37575   0.83506   0.00000  Uiso   1.00
C1105  C     0.53618   0.52338   0.69452   0.00000  Uiso   1.00
C1106  C     0.46382   0.47662   0.97215   0.00000  Uiso   1.00
C1107  C     0.53494   0.52406   0.97958   0.00000  Uiso   1.00
C1108  C     0.46505   0.47594   0.68709   0.00000  Uiso   1.00
C1109  C     0.65667   0.46942   0.77765   0.00000  Uiso   1.00
C1110  C     0.34333   0.53058   0.88902   0.00000  Uiso   1.00
C1111  C     0.53011   0.37561   0.75563   0.00000  Uiso   1.00
C1112  C     0.49646   0.57986   0.83257   0.00000  Uiso   1.00
C1113  C     0.46989   0.62439   0.91104   0.00000  Uiso   1.00
C1114  C     0.49364   0.62800   0.74687   0.00000  Uiso   1.00
C1115  C     0.50636   0.37200   0.91979   0.00000  Uiso   1.00
C1116  C     0.57739   0.54732   0.72350   0.00000  Uiso   1.00
C1117  C     0.42261   0.45268   0.94317   0.00000  Uiso   1.00
C1118  C     0.56739   0.55299   0.95832   0.00000  Uiso   1.00
C1119  C     0.43261   0.44701   0.70834   0.00000  Uiso   1.00
C1120  C     0.40069   0.49947   0.82170   0.00000  Uiso   1.00
C1121  C     0.59931   0.50053   0.84497   0.00000  Uiso   1.00
C1122  C     0.34634   0.49375   0.81660   0.00000  Uiso   1.00
C1123  C     0.65366   0.50625   0.85007   0.00000  Uiso   1.00
C1124  C     0.51141   0.35506   0.79438   0.00000  Uiso   1.00
C1125  C     0.48859   0.64494   0.87229   0.00000  Uiso   1.00
C1126  C     0.50045   0.64656   0.79169   0.00000  Uiso   1.00
H1127  H     0.57013   0.56110   0.75452   0.00000  Uiso   1.00
H1128  H     0.42987   0.43890   0.91214   0.00000  Uiso   1.00
N1129  N     0.49999   0.49999   0.95240   0.00000  Uiso   1.00
N1130  N     0.40693   0.42326   0.72506   0.00000  Uiso   1.00
N1131  N     0.50001   0.50001   0.71427   0.00000  Uiso   1.00
N1132  N     0.63826   0.45026   0.74664   0.00000  Uiso   1.00
N1133  N     0.36174   0.54974   0.92003   0.00000  Uiso   1.00
N1134  N     0.54504   0.39171   0.72476   0.00000  Uiso   1.00
N1135  N     0.45496   0.60829   0.94191   0.00000  Uiso   1.00
N1136  N     0.48787   0.61366   0.71104   0.00000  Uiso   1.00
N1137  N     0.51213   0.38634   0.95563   0.00000  Uiso   1.00
N1138  N     0.59307   0.57674   0.94161   0.00000  Uiso   1.00
O1139  O     0.50000   0.43892   0.87154   0.00000  Uiso   1.00
O1140  O     0.37899   0.44852   0.95347   0.00000  Uiso   1.00
O1141  O     0.50000   0.56108   0.79513   0.00000  Uiso   1.00
O1142  O     0.50000   0.43893   0.79510   0.00000  Uiso   1.00
O1143  O     0.50000   0.56107   0.87157   0.00000  Uiso   1.00
O1144  O     0.42392   0.50000   0.86261   0.00000  Uiso   1.00
O1145  O     0.57608   0.50000   0.80405   0.00000  Uiso   1.00
O1146  O     0.42392   0.50000   0.78617   0.00000  Uiso   1.00
O1147  O     0.57608   0.50000   0.88050   0.00000  Uiso   1.00
O1148  O     0.62101   0.55147   0.71320   0.00000  Uiso   1.00
Zn1149 Zn    0.50000   0.49999   0.88437   0.00000  Uiso   1.00
Zn1150 Zn    0.50000   0.50001   0.78229   0.00000  Uiso   1.00
C1151  C     0.83687   0.42014   0.83409   0.00000  Uiso   1.00
C1152  C     0.83289   0.35344   0.87498   0.00000  Uiso   1.00
C1153  C     0.82641   0.62424   0.83161   0.00000  Uiso   1.00
C1154  C     0.84026   0.37575   0.83506   0.00000  Uiso   1.00
C1155  C     0.86951   0.52338   0.69452   0.00000  Uiso   1.00
C1156  C     0.79716   0.47662   0.97215   0.00000  Uiso   1.00
C1157  C     0.86828   0.52406   0.97958   0.00000  Uiso   1.00
C1158  C     0.79839   0.47594   0.68709   0.00000  Uiso   1.00
C1159  C     0.99000   0.46942   0.77765   0.00000  Uiso   1.00
C1160  C     0.67666   0.53058   0.88902   0.00000  Uiso   1.00
C1161  C     0.86344   0.37561   0.75563   0.00000  Uiso   1.00
C1162  C     0.82980   0.57986   0.83257   0.00000  Uiso   1.00
C1163  C     0.80322   0.62439   0.91104   0.00000  Uiso   1.00
C1164  C     0.82697   0.62800   0.74687   0.00000  Uiso   1.00
C1165  C     0.83969   0.37200   0.91979   0.00000  Uiso   1.00
C1166  C     0.91072   0.54732   0.72350   0.00000  Uiso   1.00
C1167  C     0.75594   0.45268   0.94317   0.00000  Uiso   1.00
C1168  C     0.90072   0.55299   0.95832   0.00000  Uiso   1.00
C1169  C     0.76594   0.44701   0.70834   0.00000  Uiso   1.00
C1170  C     0.73402   0.49947   0.82170   0.00000  Uiso   1.00
C1171  C     0.93264   0.50053   0.84497   0.00000  Uiso   1.00
C1172  C     0.67967   0.49375   0.81660   0.00000  Uiso   1.00
C1173  C     0.98700   0.50625   0.85007   0.00000  Uiso   1.00
C1174  C     0.84474   0.35506   0.79438   0.00000  Uiso   1.00
C1175  C     0.82192   0.64494   0.87229   0.00000  Uiso   1.00
C1176  C     0.83378   0.64656   0.79169   0.00000  Uiso   1.00
H1177  H     0.90346   0.56110   0.75452   0.00000  Uiso   1.00
H1178  H     0.76320   0.43890   0.91214   0.00000  Uiso   1.00
N1179  N     0.83332   0.49999   0.95240   0.00000  Uiso   1.00
N1180  N     0.74026   0.42326   0.72506   0.00000  Uiso   1.00
N1181  N     0.83335   0.50001   0.71427   0.00000  Uiso   1.00
N1182  N     0.97159   0.45026   0.74664   0.00000  Uiso   1.00
N1183  N     0.69507   0.54974   0.92003   0.00000  Uiso   1.00
N1184  N     0.87837   0.39171   0.72476   0.00000  Uiso   1.00
N1185  N     0.78829   0.60829   0.94191   0.00000  Uiso   1.00
N1186  N     0.82120   0.61366   0.71104   0.00000  Uiso   1.00
N1187  N     0.84546   0.38634   0.95563   0.00000  Uiso   1.00
N1188  N     0.92641   0.57674   0.94161   0.00000  Uiso   1.00
O1189  O     0.83333   0.43892   0.87154   0.00000  Uiso   1.00
O1190  O     0.71233   0.44852   0.95347   0.00000  Uiso   1.00
O1191  O     0.83334   0.56108   0.79513   0.00000  Uiso   1.00
O1192  O     0.83333   0.43893   0.79510   0.00000  Uiso   1.00
O1193  O     0.83334   0.56107   0.87157   0.00000  Uiso   1.00
O1194  O     0.75725   0.50000   0.86261   0.00000  Uiso   1.00
O1195  O     0.90942   0.50000   0.80405   0.00000  Uiso   1.00
O1196  O     0.75725   0.50000   0.78617   0.00000  Uiso   1.00
O1197  O     0.90942   0.50000   0.88050   0.00000  Uiso   1.00
O1198  O     0.95434   0.55147   0.71320   0.00000  Uiso   1.00
Zn1199 Zn    0.83333   0.49999   0.88437   0.00000  Uiso   1.00
Zn1200 Zn    0.83333   0.50001   0.78229   0.00000  Uiso   1.00
C1201  C     0.17020   0.75348   0.83409   0.00000  Uiso   1.00
C1202  C     0.16622   0.68678   0.87498   0.00000  Uiso   1.00
C1203  C     0.15974   0.95758   0.83161   0.00000  Uiso   1.00
C1204  C     0.17359   0.70909   0.83506   0.00000  Uiso   1.00
C1205  C     0.20284   0.85671   0.69452   0.00000  Uiso   1.00
C1206  C     0.13049   0.80996   0.97215   0.00000  Uiso   1.00
C1207  C     0.20161   0.85739   0.97958   0.00000  Uiso   1.00
C1208  C     0.13172   0.80928   0.68709   0.00000  Uiso   1.00
C1209  C     0.32333   0.80275   0.77765   0.00000  Uiso   1.00
C1210  C     0.01000   0.86392   0.88902   0.00000  Uiso   1.00
C1211  C     0.19678   0.70894   0.75563   0.00000  Uiso   1.00
C1212  C     0.16313   0.91319   0.83257   0.00000  Uiso   1.00
C1213  C     0.13656   0.95773   0.91104   0.00000  Uiso   1.00
C1214  C     0.16031   0.96134   0.74687   0.00000  Uiso   1.00
C1215  C     0.17303   0.70533   0.91979   0.00000  Uiso   1.00
C1216  C     0.24406   0.88065   0.72350   0.00000  Uiso   1.00
C1217  C     0.08928   0.78601   0.94317   0.00000  Uiso   1.00
C1218  C     0.23406   0.88632   0.95832   0.00000  Uiso   1.00
C1219  C     0.09928   0.78034   0.70834   0.00000  Uiso   1.00
C1220  C     0.06736   0.83281   0.82170   0.00000  Uiso   1.00
C1221  C     0.26597   0.83386   0.84497   0.00000  Uiso   1.00
C1222  C     0.01300   0.82708   0.81660   0.00000  Uiso   1.00
C1223  C     0.32033   0.83959   0.85007   0.00000  Uiso   1.00
C1224  C     0.17808   0.68839   0.79438   0.00000  Uiso   1.00
C1225  C     0.15526   0.97828   0.87229   0.00000  Uiso   1.00
C1226  C     0.16711   0.97989   0.79169   0.00000  Uiso   1.00
H1227  H     0.23680   0.89443   0.75452   0.00000  Uiso   1.00
H1228  H     0.09654   0.77223   0.91214   0.00000  Uiso   1.00
N1229  N     0.16665   0.83332   0.95240   0.00000  Uiso   1.00
N1230  N     0.07359   0.75660   0.72506   0.00000  Uiso   1.00
N1231  N     0.16668   0.83334   0.71427   0.00000  Uiso   1.00
N1232  N     0.30493   0.78359   0.74664   0.00000  Uiso   1.00
N1233  N     0.02841   0.88307   0.92003   0.00000  Uiso   1.00
N1234  N     0.21171   0.72504   0.72476   0.00000  Uiso   1.00
N1235  N     0.12163   0.94162   0.94191   0.00000  Uiso   1.00
N1236  N     0.15454   0.94699   0.71104   0.00000  Uiso   1.00
N1237  N     0.17880   0.71968   0.95563   0.00000  Uiso   1.00
N1238  N     0.25974   0.91007   0.94161   0.00000  Uiso   1.00
O1239  O     0.16666   0.77225   0.87154   0.00000  Uiso   1.00
O1240  O     0.04566   0.78186   0.95347   0.00000  Uiso   1.00
O1241  O     0.16667   0.89442   0.79513   0.00000  Uiso   1.00
O1242  O     0.16666   0.77226   0.79510   0.00000  Uiso   1.00
O1243  O     0.16667   0.89441   0.87157   0.00000  Uiso   1.00
O1244  O     0.09058   0.83333   0.86261   0.00000  Uiso   1.00
O1245  O     0.24275   0.83334   0.80405   0.00000  Uiso   1.00
O1246  O     0.09058   0.83334   0.78617   0.00000  Uiso   1.00
O1247  O     0.24275   0.83333   0.88050   0.00000  Uiso   1.00
O1248  O     0.28767   0.88481   0.71320   0.00000  Uiso   1.00
Zn1249 Zn    0.16667   0.83333   0.88437   0.00000  Uiso   1.00
Zn1250 Zn    0.16667   0.83334   0.78229   0.00000  Uiso   1.00
C1251  C     0.50353   0.75348   0.83409   0.00000  Uiso   1.00
C1252  C     0.49955   0.68678   0.87498   0.00000  Uiso   1.00
C1253  C     0.49307   0.95758   0.83161   0.00000  Uiso   1.00
C1254  C     0.50693   0.70909   0.83506   0.00000  Uiso   1.00
C1255  C     0.53618   0.85671   0.69452   0.00000  Uiso   1.00
C1256  C     0.46382   0.80996   0.97215   0.00000  Uiso   1.00
C1257  C     0.53494   0.85739   0.97958   0.00000  Uiso   1.00
C1258  C     0.46505   0.80928   0.68709   0.00000  Uiso   1.00
C1259  C     0.65667   0.80275   0.77765   0.00000  Uiso   1.00
C1260  C     0.34333   0.86392   0.88902   0.00000  Uiso   1.00
C1261  C     0.53011   0.70894   0.75563   0.00000  Uiso   1.00
C1262  C     0.49646   0.91319   0.83257   0.00000  Uiso   1.00
C1263  C     0.46989   0.95773   0.91104   0.00000  Uiso   1.00
C1264  C     0.49364   0.96134   0.74687   0.00000  Uiso   1.00
C1265  C     0.50636   0.70533   0.91979   0.00000  Uiso   1.00
C1266  C     0.57739   0.88065   0.72350   0.00000  Uiso   1.00
C1267  C     0.42261   0.78601   0.94317   0.00000  Uiso   1.00
C1268  C     0.56739   0.88632   0.95832   0.00000  Uiso   1.00
C1269  C     0.43261   0.78034   0.70834   0.00000  Uiso   1.00
C1270  C     0.40069   0.83281   0.82170   0.00000  Uiso   1.00
C1271  C     0.59931   0.83386   0.84497   0.00000  Uiso   1.00
C1272  C     0.34634   0.82708   0.81660   0.00000  Uiso   1.00
C1273  C     0.65366   0.83959   0.85007   0.00000  Uiso   1.00
C1274  C     0.51141   0.68839   0.79438   0.00000  Uiso   1.00
C1275  C     0.48859   0.97828   0.87229   0.00000  Uiso   1.00
C1276  C     0.50045   0.97989   0.79169   0.00000  Uiso   1.00
H1277  H     0.57013   0.89443   0.75452   0.00000  Uiso   1.00
H1278  H     0.42987   0.77223   0.91214   0.00000  Uiso   1.00
N1279  N     0.49999   0.83332   0.95240   0.00000  Uiso   1.00
N1280  N     0.40693   0.75660   0.72506   0.00000  Uiso   1.00
N1281  N     0.50001   0.83334   0.71427   0.00000  Uiso   1.00
N1282  N     0.63826   0.78359   0.74664   0.00000  Uiso   1.00
N1283  N     0.36174   0.88307   0.92003   0.00000  Uiso   1.00
N1284  N     0.54504   0.72504   0.72476   0.00000  Uiso   1.00
N1285  N     0.45496   0.94162   0.94191   0.00000  Uiso   1.00
N1286  N     0.48787   0.94699   0.71104   0.00000  Uiso   1.00
N1287  N     0.51213   0.71968   0.95563   0.00000  Uiso   1.00
N1288  N     0.59307   0.91007   0.94161   0.00000  Uiso   1.00
O1289  O     0.50000   0.77225   0.87154   0.00000  Uiso   1.00
O1290  O     0.37899   0.78186   0.95347   0.00000  Uiso   1.00
O1291  O     0.50000   0.89442   0.79513   0.00000  Uiso   1.00
O1292  O     0.50000   0.77226   0.79510   0.00000  Uiso   1.00
O1293  O     0.50000   0.89441   0.87157   0.00000  Uiso   1.00
O1294  O     0.42392   0.83333   0.86261   0.00000  Uiso   1.00
O1295  O     0.57608   0.83334   0.80405   0.00000  Uiso   1.00
O1296  O     0.42392   0.83334   0.78617   0.00000  Uiso   1.00
O1297  O     0.57608   0.83333   0.88050   0.00000  Uiso   1.00
O1298  O     0.62101   0.88481   0.71320   0.00000  Uiso   1.00
Zn1299 Zn    0.50000   0.83333   0.88437   0.00000  Uiso   1.00
Zn1300 Zn    0.50000   0.83334   0.78229   0.00000  Uiso   1.00
C1301  C     0.83687   0.75348   0.83409   0.00000  Uiso   1.00
C1302  C     0.83289   0.68678   0.87498   0.00000  Uiso   1.00
C1303  C     0.82641   0.95758   0.83161   0.00000  Uiso   1.00
C1304  C     0.84026   0.70909   0.83506   0.00000  Uiso   1.00
C1305  C     0.86951   0.85671   0.69452   0.00000  Uiso   1.00
C1306  C     0.79716   0.80996   0.97215   0.00000  Uiso   1.00
C1307  C     0.86828   0.85739   0.97958   0.00000  Uiso   1.00
C1308  C     0.79839   0.80928   0.68709   0.00000  Uiso   1.00
C1309  C     0.99000   0.80275   0.77765   0.00000  Uiso   1.00
C1310  C     0.67666   0.86392   0.88902   0.00000  Uiso   1.00
C1311  C     0.86344   0.70894   0.75563   0.00000  Uiso   1.00
C1312  C     0.82980   0.91319   0.83257   0.00000  Uiso   1.00
C1313  C     0.80322   0.95773   0.91104   0.00000  Uiso   1.00
C1314  C     0.82697   0.96134   0.74687   0.00000  Uiso   1.00
C1315  C     0.83969   0.70533   0.91979   0.00000  Uiso   1.00
C1316  C     0.91072   0.88065   0.72350   0.00000  Uiso   1.00
C1317  C     0.75594   0.78601   0.94317   0.00000  Uiso   1.00
C1318  C     0.90072   0.88632   0.95832   0.00000  Uiso   1.00
C1319  C     0.76594   0.78034   0.70834   0.00000  Uiso   1.00
C1320  C     0.73402   0.83281   0.82170   0.00000  Uiso   1.00
C1321  C     0.93264   0.83386   0.84497   0.00000  Uiso   1.00
C1322  C     0.67967   0.82708   0.81660   0.00000  Uiso   1.00
C1323  C     0.98700   0.83959   0.85007   0.00000  Uiso   1.00
C1324  C     0.84474   0.68839   0.79438   0.00000  Uiso   1.00
C1325  C     0.82192   0.97828   0.87229   0.00000  Uiso   1.00
C1326  C     0.83378   0.97989   0.79169   0.00000  Uiso   1.00
H1327  H     0.90346   0.89443   0.75452   0.00000  Uiso   1.00
H1328  H     0.76320   0.77223   0.91214   0.00000  Uiso   1.00
N1329  N     0.83332   0.83332   0.95240   0.00000  Uiso   1.00
N1330  N     0.74026   0.75660   0.72506   0.00000  Uiso   1.00
N1331  N     0.83335   0.83334   0.71427   0.00000  Uiso   1.00
N1332  N     0.97159   0.78359   0.74664   0.00000  Uiso   1.00
N1333  N     0.69507   0.88307   0.92003   0.00000  Uiso   1.00
N1334  N     0.87837   0.72504   0.72476   0.00000  Uiso   1.00
N1335  N     0.78829   0.94162   0.94191   0.00000  Uiso   1.00
N1336  N     0.82120   0.94699   0.71104   0.00000  Uiso   1.00
N1337  N     0.84546   0.71968   0.95563   0.00000  Uiso   1.00
N1338  N     0.92641   0.91007   0.94161   0.00000  Uiso   1.00
O1339  O     0.83333   0.77225   0.87154   0.00000  Uiso   1.00
O1340  O     0.71233   0.78186   0.95347   0.00000  Uiso   1.00
O1341  O     0.83334   0.89442   0.79513   0.00000  Uiso   1.00
O1342  O     0.83333   0.77226   0.79510   0.00000  Uiso   1.00
O1343  O     0.83334   0.89441   0.87157   0.00000  Uiso   1.00
O1344  O     0.75725   0.83333   0.86261   0.00000  Uiso   1.00
O1345  O     0.90942   0.83334   0.80405   0.00000  Uiso   1.00
O1346  O     0.75725   0.83334   0.78617   0.00000  Uiso   1.00
O1347  O     0.90942   0.83333   0.88050   0.00000  Uiso   1.00
O1348  O     0.95434   0.88481   0.71320   0.00000  Uiso   1.00
Zn1349 Zn    0.83333   0.83333   0.88437   0.00000  Uiso   1.00
Zn1350 Zn    0.83333   0.83334   0.78229   0.00000  Uiso   1.00
loop_
_geom_bond_atom_site_label_1
_geom_bond_atom_site_label_2
_geom_bond_distance
_geom_bond_site_symmetry_2
_ccdc_geom_bond_type
C1     O42     1.294   .     A
C1     C4      1.450   .     S
C1     O39     1.293   .     A
C2     C4      1.413   .     A
C2     C15     1.455   .     S
C2     C325    1.383   1_545 S
C3     C25     1.413   .     A
C3     C12     1.450   .     S
C3     C26     1.413   .     A
C4     C24     1.413   .     A
C5     C16     1.484   .     S
C5     N31     1.380   .     A
C5     C907    1.429   1_554 S
C6     N29     1.380   .     A
C6     C17     1.484   .     S
C6     C458    1.429   .     S
C7     N29     1.363   .     A
C7     C18     1.442   .     S
C7     C455    1.429   .     S
C8     C19     1.442   .     S
C8     N31     1.363   .     A
C8     C906    1.429   1_554 S
C9     N32     1.157   .     T
C9     C72     1.457   .     S
C10    N33     1.157   .     T
C10    C123    1.457   1_455 S
C11    N34     1.157   .     T
C11    C24     1.457   .     S
C12    O41     1.293   .     A
C12    O43     1.294   .     A
C13    C25     1.457   .     S
C13    N35     1.157   .     T
C14    C26     1.455   .     S
C14    N36     1.157   .     T
C15    N37     1.157   .     T
C16    O48     1.221   .     D
C16    H27     1.074   .     S
C17    H28     1.074   .     S
C17    O40     1.221   .     D
C18    N38     1.157   .     T
C19    N30     1.157   .     T
C20    C22     1.410   .     S
C20    O46     1.288   .     A
C20    O44     1.278   .     A
C21    O47     1.288   .     A
C21    O45     1.278   .     A
C21    C23     1.410   .     S
C22    C109    1.457   1_455 S
C22    C123    1.355   1_455 S
C23    C72     1.355   .     S
C23    C60     1.457   .     S
C24    C326    1.383   1_545 S
C25    C152    1.383   .     S
C26    C174    1.383   .     S
N29    Zn49    2.020   .     S
N31    Zn50    2.020   .     S
O39    Zn49    2.030   .     S
O41    Zn50    2.030   .     S
O42    Zn50    2.018   .     S
O43    Zn49    2.018   .     S
O44    Zn49    1.997   .     S
O45    Zn50    1.997   .     S
O46    Zn50    2.003   .     S
O47    Zn49    2.003   .     S
C51    O92     1.294   .     A
C51    C54     1.450   .     S
C51    O89     1.293   .     A
C52    C54     1.413   .     A
C52    C65     1.455   .     S
C52    C375    1.383   1_545 S
C53    C75     1.413   .     A
C53    C62     1.450   .     S
C53    C76     1.413   .     A
C54    C74     1.413   .     A
C55    C66     1.484   .     S
C55    N81     1.380   .     A
C55    C957    1.429   1_554 S
C56    N79     1.380   .     A
C56    C67     1.484   .     S
C56    C508    1.429   .     S
C57    N79     1.363   .     A
C57    C68     1.442   .     S
C57    C505    1.429   .     S
C58    C69     1.442   .     S
C58    N81     1.363   .     A
C58    C956    1.429   1_554 S
C59    N82     1.157   .     T
C59    C122    1.457   .     S
C60    N83     1.157   .     T
C61    N84     1.157   .     T
C61    C74     1.457   .     S
C62    O91     1.293   .     A
C62    O93     1.294   .     A
C63    C75     1.457   .     S
C63    N85     1.157   .     T
C64    C76     1.455   .     S
C64    N86     1.157   .     T
C65    N87     1.157   .     T
C66    O98     1.221   .     D
C66    H77     1.074   .     S
C67    H78     1.074   .     S
C67    O90     1.221   .     D
C68    N88     1.157   .     T
C69    N80     1.157   .     T
C70    C72     1.410   .     S
C70    O96     1.288   .     A
C70    O94     1.278   .     A
C71    O97     1.288   .     A
C71    O95     1.278   .     A
C71    C73     1.410   .     S
C73    C122    1.355   .     S
C73    C110    1.457   .     S
C74    C376    1.383   1_545 S
C75    C202    1.383   .     S
C76    C224    1.383   .     S
N79    Zn99    2.020   .     S
N81    Zn100   2.020   .     S
O89    Zn99    2.030   .     S
O91    Zn100   2.030   .     S
O92    Zn100   2.018   .     S
O93    Zn99    2.018   .     S
O94    Zn99    1.997   .     S
O95    Zn100   1.997   .     S
O96    Zn100   2.003   .     S
O97    Zn99    2.003   .     S
C101   O142    1.294   .     A
C101   C104    1.450   .     S
C101   O139    1.293   .     A
C102   C104    1.413   .     A
C102   C115    1.455   .     S
C102   C425    1.383   1_545 S
C103   C125    1.413   .     A
C103   C112    1.450   .     S
C103   C126    1.413   .     A
C104   C124    1.413   .     A
C105   C116    1.484   .     S
C105   N131    1.380   .     A
C105   C1007   1.429   1_554 S
C106   N129    1.380   .     A
C106   C117    1.484   .     S
C106   C558    1.429   .     S
C107   N129    1.363   .     A
C107   C118    1.442   .     S
C107   C555    1.429   .     S
C108   C119    1.442   .     S
C108   N131    1.363   .     A
C108   C1006   1.429   1_554 S
C109   N132    1.157   .     T
C109   C22     1.457   1_655 S
C110   N133    1.157   .     T
C111   N134    1.157   .     T
C111   C124    1.457   .     S
C112   O141    1.293   .     A
C112   O143    1.294   .     A
C113   C125    1.457   .     S
C113   N135    1.157   .     T
C114   C126    1.455   .     S
C114   N136    1.157   .     T
C115   N137    1.157   .     T
C116   O148    1.221   .     D
C116   H127    1.074   .     S
C117   H128    1.074   .     S
C117   O140    1.221   .     D
C118   N138    1.157   .     T
C119   N130    1.157   .     T
C120   C122    1.410   .     S
C120   O146    1.288   .     A
C120   O144    1.278   .     A
C121   O147    1.288   .     A
C121   O145    1.278   .     A
C121   C123    1.410   .     S
C123   C22     1.355   1_655 S
C123   C10     1.457   1_655 S
C124   C426    1.383   1_545 S
C125   C252    1.383   .     S
C126   C274    1.383   .     S
N129   Zn149   2.020   .     S
N131   Zn150   2.020   .     S
O139   Zn149   2.030   .     S
O141   Zn150   2.030   .     S
O142   Zn150   2.018   .     S
O143   Zn149   2.018   .     S
O144   Zn149   1.997   .     S
O145   Zn150   1.997   .     S
O146   Zn150   2.003   .     S
O147   Zn149   2.003   .     S
C151   O192    1.294   .     A
C151   C154    1.450   .     S
C151   O189    1.293   .     A
C152   C154    1.413   .     A
C152   C165    1.455   .     S
C153   C175    1.413   .     A
C153   C162    1.450   .     S
C153   C176    1.413   .     A
C154   C174    1.413   .     A
C155   C166    1.484   .     S
C155   N181    1.380   .     A
C155   C1057   1.429   1_554 S
C156   N179    1.380   .     A
C156   C167    1.484   .     S
C156   C608    1.429   .     S
C157   N179    1.363   .     A
C157   C168    1.442   .     S
C157   C605    1.429   .     S
C158   C169    1.442   .     S
C158   N181    1.363   .     A
C158   C1056   1.429   1_554 S
C159   N182    1.157   .     T
C159   C222    1.457   .     S
C160   N183    1.157   .     T
C160   C273    1.457   1_455 S
C161   N184    1.157   .     T
C161   C174    1.457   .     S
C162   O191    1.293   .     A
C162   O193    1.294   .     A
C163   C175    1.457   .     S
C163   N185    1.157   .     T
C164   C176    1.455   .     S
C164   N186    1.157   .     T
C165   N187    1.157   .     T
C166   O198    1.221   .     D
C166   H177    1.074   .     S
C167   H178    1.074   .     S
C167   O190    1.221   .     D
C168   N188    1.157   .     T
C169   N180    1.157   .     T
C170   C172    1.410   .     S
C170   O196    1.288   .     A
C170   O194    1.278   .     A
C171   O197    1.288   .     A
C171   O195    1.278   .     A
C171   C173    1.410   .     S
C172   C259    1.457   1_455 S
C172   C273    1.355   1_455 S
C173   C222    1.355   .     S
C173   C210    1.457   .     S
C175   C302    1.383   .     S
C176   C324    1.383   .     S
N179   Zn199   2.020   .     S
N181   Zn200   2.020   .     S
O189   Zn199   2.030   .     S
O191   Zn200   2.030   .     S
O192   Zn200   2.018   .     S
O193   Zn199   2.018   .     S
O194   Zn199   1.997   .     S
O195   Zn200   1.997   .     S
O196   Zn200   2.003   .     S
O197   Zn199   2.003   .     S
C201   O242    1.294   .     A
C201   C204    1.450   .     S
C201   O239    1.293   .     A
C202   C204    1.413   .     A
C202   C215    1.455   .     S
C203   C225    1.413   .     A
C203   C212    1.450   .     S
C203   C226    1.413   .     A
C204   C224    1.413   .     A
C205   C216    1.484   .     S
C205   N231    1.380   .     A
C205   C1107   1.429   1_554 S
C206   N229    1.380   .     A
C206   C217    1.484   .     S
C206   C658    1.429   .     S
C207   N229    1.363   .     A
C207   C218    1.442   .     S
C207   C655    1.429   .     S
C208   C219    1.442   .     S
C208   N231    1.363   .     A
C208   C1106   1.429   1_554 S
C209   N232    1.157   .     T
C209   C272    1.457   .     S
C210   N233    1.157   .     T
C211   N234    1.157   .     T
C211   C224    1.457   .     S
C212   O241    1.293   .     A
C212   O243    1.294   .     A
C213   C225    1.457   .     S
C213   N235    1.157   .     T
C214   C226    1.455   .     S
C214   N236    1.157   .     T
C215   N237    1.157   .     T
C216   O248    1.221   .     D
C216   H227    1.074   .     S
C217   H228    1.074   .     S
C217   O240    1.221   .     D
C218   N238    1.157   .     T
C219   N230    1.157   .     T
C220   C222    1.410   .     S
C220   O246    1.288   .     A
C220   O244    1.278   .     A
C221   O247    1.288   .     A
C221   O245    1.278   .     A
C221   C223    1.410   .     S
C223   C272    1.355   .     S
C223   C260    1.457   .     S
C225   C352    1.383   .     S
C226   C374    1.383   .     S
N229   Zn249   2.020   .     S
N231   Zn250   2.020   .     S
O239   Zn249   2.030   .     S
O241   Zn250   2.030   .     S
O242   Zn250   2.018   .     S
O243   Zn249   2.018   .     S
O244   Zn249   1.997   .     S
O245   Zn250   1.997   .     S
O246   Zn250   2.003   .     S
O247   Zn249   2.003   .     S
C251   O292    1.294   .     A
C251   C254    1.450   .     S
C251   O289    1.293   .     A
C252   C254    1.413   .     A
C252   C265    1.455   .     S
C253   C275    1.413   .     A
C253   C262    1.450   .     S
C253   C276    1.413   .     A
C254   C274    1.413   .     A
C255   C266    1.484   .     S
C255   N281    1.380   .     A
C255   C1157   1.429   1_554 S
C256   N279    1.380   .     A
C256   C267    1.484   .     S
C256   C708    1.429   .     S
C257   N279    1.363   .     A
C257   C268    1.442   .     S
C257   C705    1.429   .     S
C258   C269    1.442   .     S
C258   N281    1.363   .     A
C258   C1156   1.429   1_554 S
C259   N282    1.157   .     T
C259   C172    1.457   1_655 S
C260   N283    1.157   .     T
C261   N284    1.157   .     T
C261   C274    1.457   .     S
C262   O291    1.293   .     A
C262   O293    1.294   .     A
C263   C275    1.457   .     S
C263   N285    1.157   .     T
C264   C276    1.455   .     S
C264   N286    1.157   .     T
C265   N287    1.157   .     T
C266   O298    1.221   .     D
C266   H277    1.074   .     S
C267   H278    1.074   .     S
C267   O290    1.221   .     D
C268   N288    1.157   .     T
C269   N280    1.157   .     T
C270   C272    1.410   .     S
C270   O296    1.288   .     A
C270   O294    1.278   .     A
C271   O297    1.288   .     A
C271   O295    1.278   .     A
C271   C273    1.410   .     S
C273   C172    1.355   1_655 S
C273   C160    1.457   1_655 S
C275   C402    1.383   .     S
C276   C424    1.383   .     S
N279   Zn299   2.020   .     S
N281   Zn300   2.020   .     S
O289   Zn299   2.030   .     S
O291   Zn300   2.030   .     S
O292   Zn300   2.018   .     S
O293   Zn299   2.018   .     S
O294   Zn299   1.997   .     S
O295   Zn300   1.997   .     S
O296   Zn300   2.003   .     S
O297   Zn299   2.003   .     S
C301   O342    1.294   .     A
C301   C304    1.450   .     S
C301   O339    1.293   .     A
C302   C304    1.413   .     A
C302   C315    1.455   .     S
C303   C325    1.413   .     A
C303   C312    1.450   .     S
C303   C326    1.413   .     A
C304   C324    1.413   .     A
C305   C316    1.484   .     S
C305   N331    1.380   .     A
C305   C1207   1.429   1_554 S
C306   N329    1.380   .     A
C306   C317    1.484   .     S
C306   C758    1.429   .     S
C307   N329    1.363   .     A
C307   C318    1.442   .     S
C307   C755    1.429   .     S
C308   C319    1.442   .     S
C308   N331    1.363   .     A
C308   C1206   1.429   1_554 S
C309   N332    1.157   .     T
C309   C372    1.457   .     S
C310   N333    1.157   .     T
C310   C423    1.457   1_455 S
C311   N334    1.157   .     T
C311   C324    1.457   .     S
C312   O341    1.293   .     A
C312   O343    1.294   .     A
C313   C325    1.457   .     S
C313   N335    1.157   .     T
C314   C326    1.455   .     S
C314   N336    1.157   .     T
C315   N337    1.157   .     T
C316   O348    1.221   .     D
C316   H327    1.074   .     S
C317   H328    1.074   .     S
C317   O340    1.221   .     D
C318   N338    1.157   .     T
C319   N330    1.157   .     T
C320   C322    1.410   .     S
C320   O346    1.288   .     A
C320   O344    1.278   .     A
C321   O347    1.288   .     A
C321   O345    1.278   .     A
C321   C323    1.410   .     S
C322   C409    1.457   1_455 S
C322   C423    1.355   1_455 S
C323   C372    1.355   .     S
C323   C360    1.457   .     S
C325   C2      1.383   1_565 S
C326   C24     1.383   1_565 S
N329   Zn349   2.020   .     S
N331   Zn350   2.020   .     S
O339   Zn349   2.030   .     S
O341   Zn350   2.030   .     S
O342   Zn350   2.018   .     S
O343   Zn349   2.018   .     S
O344   Zn349   1.997   .     S
O345   Zn350   1.997   .     S
O346   Zn350   2.003   .     S
O347   Zn349   2.003   .     S
C351   O392    1.294   .     A
C351   C354    1.450   .     S
C351   O389    1.293   .     A
C352   C354    1.413   .     A
C352   C365    1.455   .     S
C353   C375    1.413   .     A
C353   C362    1.450   .     S
C353   C376    1.413   .     A
C354   C374    1.413   .     A
C355   C366    1.484   .     S
C355   N381    1.380   .     A
C355   C1257   1.429   1_554 S
C356   N379    1.380   .     A
C356   C367    1.484   .     S
C356   C808    1.429   .     S
C357   N379    1.363   .     A
C357   C368    1.442   .     S
C357   C805    1.429   .     S
C358   C369    1.442   .     S
C358   N381    1.363   .     A
C358   C1256   1.429   1_554 S
C359   N382    1.157   .     T
C359   C422    1.457   .     S
C360   N383    1.157   .     T
C361   N384    1.157   .     T
C361   C374    1.457   .     S
C362   O391    1.293   .     A
C362   O393    1.294   .     A
C363   C375    1.457   .     S
C363   N385    1.157   .     T
C364   C376    1.455   .     S
C364   N386    1.157   .     T
C365   N387    1.157   .     T
C366   O398    1.221   .     D
C366   H377    1.074   .     S
C367   H378    1.074   .     S
C367   O390    1.221   .     D
C368   N388    1.157   .     T
C369   N380    1.157   .     T
C370   C372    1.410   .     S
C370   O396    1.288   .     A
C370   O394    1.278   .     A
C371   O397    1.288   .     A
C371   O395    1.278   .     A
C371   C373    1.410   .     S
C373   C422    1.355   .     S
C373   C410    1.457   .     S
C375   C52     1.383   1_565 S
C376   C74     1.383   1_565 S
N379   Zn399   2.020   .     S
N381   Zn400   2.020   .     S
O389   Zn399   2.030   .     S
O391   Zn400   2.030   .     S
O392   Zn400   2.018   .     S
O393   Zn399   2.018   .     S
O394   Zn399   1.997   .     S
O395   Zn400   1.997   .     S
O396   Zn400   2.003   .     S
O397   Zn399   2.003   .     S
C401   O442    1.294   .     A
C401   C404    1.450   .     S
C401   O439    1.293   .     A
C402   C404    1.413   .     A
C402   C415    1.455   .     S
C403   C425    1.413   .     A
C403   C412    1.450   .     S
C403   C426    1.413   .     A
C404   C424    1.413   .     A
C405   C416    1.484   .     S
C405   N431    1.380   .     A
C405   C1307   1.429   1_554 S
C406   N429    1.380   .     A
C406   C417    1.484   .     S
C406   C858    1.429   .     S
C407   N429    1.363   .     A
C407   C418    1.442   .     S
C407   C855    1.429   .     S
C408   C419    1.442   .     S
C408   N431    1.363   .     A
C408   C1306   1.429   1_554 S
C409   N432    1.157   .     T
C409   C322    1.457   1_655 S
C410   N433    1.157   .     T
C411   N434    1.157   .     T
C411   C424    1.457   .     S
C412   O441    1.293   .     A
C412   O443    1.294   .     A
C413   C425    1.457   .     S
C413   N435    1.157   .     T
C414   C426    1.455   .     S
C414   N436    1.157   .     T
C415   N437    1.157   .     T
C416   O448    1.221   .     D
C416   H427    1.074   .     S
C417   H428    1.074   .     S
C417   O440    1.221   .     D
C418   N438    1.157   .     T
C419   N430    1.157   .     T
C420   C422    1.410   .     S
C420   O446    1.288   .     A
C420   O444    1.278   .     A
C421   O447    1.288   .     A
C421   O445    1.278   .     A
C421   C423    1.410   .     S
C423   C322    1.355   1_655 S
C423   C310    1.457   1_655 S
C425   C102    1.383   1_565 S
C426   C124    1.383   1_565 S
N429   Zn449   2.020   .     S
N431   Zn450   2.020   .     S
O439   Zn449   2.030   .     S
O441   Zn450   2.030   .     S
O442   Zn450   2.018   .     S
O443   Zn449   2.018   .     S
O444   Zn449   1.997   .     S
O445   Zn450   1.997   .     S
O446   Zn450   2.003   .     S
O447   Zn449   2.003   .     S
C451   O492    1.294   .     A
C451   C454    1.450   .     S
C451   O489    1.293   .     A
C452   C454    1.413   .     A
C452   C465    1.455   .     S
C452   C775    1.383   1_545 S
C453   C475    1.413   .     A
C453   C462    1.450   .     S
C453   C476    1.413   .     A
C454   C474    1.413   .     A
C455   C466    1.484   .     S
C455   N481    1.380   .     A
C456   N479    1.380   .     A
C456   C467    1.484   .     S
C456   C908    1.429   .     S
C457   N479    1.363   .     A
C457   C468    1.442   .     S
C457   C905    1.429   .     S
C458   C469    1.442   .     S
C458   N481    1.363   .     A
C459   N482    1.157   .     T
C459   C522    1.457   .     S
C460   N483    1.157   .     T
C460   C573    1.457   1_455 S
C461   N484    1.157   .     T
C461   C474    1.457   .     S
C462   O491    1.293   .     A
C462   O493    1.294   .     A
C463   C475    1.457   .     S
C463   N485    1.157   .     T
C464   C476    1.455   .     S
C464   N486    1.157   .     T
C465   N487    1.157   .     T
C466   O498    1.221   .     D
C466   H477    1.074   .     S
C467   H478    1.074   .     S
C467   O490    1.221   .     D
C468   N488    1.157   .     T
C469   N480    1.157   .     T
C470   C472    1.410   .     S
C470   O496    1.288   .     A
C470   O494    1.278   .     A
C471   O497    1.288   .     A
C471   O495    1.278   .     A
C471   C473    1.410   .     S
C472   C559    1.457   1_455 S
C472   C573    1.355   1_455 S
C473   C522    1.355   .     S
C473   C510    1.457   .     S
C474   C776    1.383   1_545 S
C475   C602    1.383   .     S
C476   C624    1.383   .     S
N479   Zn499   2.020   .     S
N481   Zn500   2.020   .     S
O489   Zn499   2.030   .     S
O491   Zn500   2.030   .     S
O492   Zn500   2.018   .     S
O493   Zn499   2.018   .     S
O494   Zn499   1.997   .     S
O495   Zn500   1.997   .     S
O496   Zn500   2.003   .     S
O497   Zn499   2.003   .     S
C501   O542    1.294   .     A
C501   C504    1.450   .     S
C501   O539    1.293   .     A
C502   C504    1.413   .     A
C502   C515    1.455   .     S
C502   C825    1.383   1_545 S
C503   C525    1.413   .     A
C503   C512    1.450   .     S
C503   C526    1.413   .     A
C504   C524    1.413   .     A
C505   C516    1.484   .     S
C505   N531    1.380   .     A
C506   N529    1.380   .     A
C506   C517    1.484   .     S
C506   C958    1.429   .     S
C507   N529    1.363   .     A
C507   C518    1.442   .     S
C507   C955    1.429   .     S
C508   C519    1.442   .     S
C508   N531    1.363   .     A
C509   N532    1.157   .     T
C509   C572    1.457   .     S
C510   N533    1.157   .     T
C511   N534    1.157   .     T
C511   C524    1.457   .     S
C512   O541    1.293   .     A
C512   O543    1.294   .     A
C513   C525    1.457   .     S
C513   N535    1.157   .     T
C514   C526    1.455   .     S
C514   N536    1.157   .     T
C515   N537    1.157   .     T
C516   O548    1.221   .     D
C516   H527    1.074   .     S
C517   H528    1.074   .     S
C517   O540    1.221   .     D
C518   N538    1.157   .     T
C519   N530    1.157   .     T
C520   C522    1.410   .     S
C520   O546    1.288   .     A
C520   O544    1.278   .     A
C521   O547    1.288   .     A
C521   O545    1.278   .     A
C521   C523    1.410   .     S
C523   C572    1.355   .     S
C523   C560    1.457   .     S
C524   C826    1.383   1_545 S
C525   C652    1.383   .     S
C526   C674    1.383   .     S
N529   Zn549   2.020   .     S
N531   Zn550   2.020   .     S
O539   Zn549   2.030   .     S
O541   Zn550   2.030   .     S
O542   Zn550   2.018   .     S
O543   Zn549   2.018   .     S
O544   Zn549   1.997   .     S
O545   Zn550   1.997   .     S
O546   Zn550   2.003   .     S
O547   Zn549   2.003   .     S
C551   O592    1.294   .     A
C551   C554    1.450   .     S
C551   O589    1.293   .     A
C552   C554    1.413   .     A
C552   C565    1.455   .     S
C552   C875    1.383   1_545 S
C553   C575    1.413   .     A
C553   C562    1.450   .     S
C553   C576    1.413   .     A
C554   C574    1.413   .     A
C555   C566    1.484   .     S
C555   N581    1.380   .     A
C556   N579    1.380   .     A
C556   C567    1.484   .     S
C556   C1008   1.429   .     S
C557   N579    1.363   .     A
C557   C568    1.442   .     S
C557   C1005   1.429   .     S
C558   C569    1.442   .     S
C558   N581    1.363   .     A
C559   N582    1.157   .     T
C559   C472    1.457   1_655 S
C560   N583    1.157   .     T
C561   N584    1.157   .     T
C561   C574    1.457   .     S
C562   O591    1.293   .     A
C562   O593    1.294   .     A
C563   C575    1.457   .     S
C563   N585    1.157   .     T
C564   C576    1.455   .     S
C564   N586    1.157   .     T
C565   N587    1.157   .     T
C566   O598    1.221   .     D
C566   H577    1.074   .     S
C567   H578    1.074   .     S
C567   O590    1.221   .     D
C568   N588    1.157   .     T
C569   N580    1.157   .     T
C570   C572    1.410   .     S
C570   O596    1.288   .     A
C570   O594    1.278   .     A
C571   O597    1.288   .     A
C571   O595    1.278   .     A
C571   C573    1.410   .     S
C573   C472    1.355   1_655 S
C573   C460    1.457   1_655 S
C574   C876    1.383   1_545 S
C575   C702    1.383   .     S
C576   C724    1.383   .     S
N579   Zn599   2.020   .     S
N581   Zn600   2.020   .     S
O589   Zn599   2.030   .     S
O591   Zn600   2.030   .     S
O592   Zn600   2.018   .     S
O593   Zn599   2.018   .     S
O594   Zn599   1.997   .     S
O595   Zn600   1.997   .     S
O596   Zn600   2.003   .     S
O597   Zn599   2.003   .     S
C601   O642    1.294   .     A
C601   C604    1.450   .     S
C601   O639    1.293   .     A
C602   C604    1.413   .     A
C602   C615    1.455   .     S
C603   C625    1.413   .     A
C603   C612    1.450   .     S
C603   C626    1.413   .     A
C604   C624    1.413   .     A
C605   C616    1.484   .     S
C605   N631    1.380   .     A
C606   N629    1.380   .     A
C606   C617    1.484   .     S
C606   C1058   1.429   .     S
C607   N629    1.363   .     A
C607   C618    1.442   .     S
C607   C1055   1.429   .     S
C608   C619    1.442   .     S
C608   N631    1.363   .     A
C609   N632    1.157   .     T
C609   C672    1.457   .     S
C610   N633    1.157   .     T
C610   C723    1.457   1_455 S
C611   N634    1.157   .     T
C611   C624    1.457   .     S
C612   O641    1.293   .     A
C612   O643    1.294   .     A
C613   C625    1.457   .     S
C613   N635    1.157   .     T
C614   C626    1.455   .     S
C614   N636    1.157   .     T
C615   N637    1.157   .     T
C616   O648    1.221   .     D
C616   H627    1.074   .     S
C617   H628    1.074   .     S
C617   O640    1.221   .     D
C618   N638    1.157   .     T
C619   N630    1.157   .     T
C620   C622    1.410   .     S
C620   O646    1.288   .     A
C620   O644    1.278   .     A
C621   O647    1.288   .     A
C621   O645    1.278   .     A
C621   C623    1.410   .     S
C622   C709    1.457   1_455 S
C622   C723    1.355   1_455 S
C623   C672    1.355   .     S
C623   C660    1.457   .     S
C625   C752    1.383   .     S
C626   C774    1.383   .     S
N629   Zn649   2.020   .     S
N631   Zn650   2.020   .     S
O639   Zn649   2.030   .     S
O641   Zn650   2.030   .     S
O642   Zn650   2.018   .     S
O643   Zn649   2.018   .     S
O644   Zn649   1.997   .     S
O645   Zn650   1.997   .     S
O646   Zn650   2.003   .     S
O647   Zn649   2.003   .     S
C651   O692    1.294   .     A
C651   C654    1.450   .     S
C651   O689    1.293   .     A
C652   C654    1.413   .     A
C652   C665    1.455   .     S
C653   C675    1.413   .     A
C653   C662    1.450   .     S
C653   C676    1.413   .     A
C654   C674    1.413   .     A
C655   C666    1.484   .     S
C655   N681    1.380   .     A
C656   N679    1.380   .     A
C656   C667    1.484   .     S
C656   C1108   1.429   .     S
C657   N679    1.363   .     A
C657   C668    1.442   .     S
C657   C1105   1.429   .     S
C658   C669    1.442   .     S
C658   N681    1.363   .     A
C659   N682    1.157   .     T
C659   C722    1.457   .     S
C660   N683    1.157   .     T
C661   N684    1.157   .     T
C661   C674    1.457   .     S
C662   O691    1.293   .     A
C662   O693    1.294   .     A
C663   C675    1.457   .     S
C663   N685    1.157   .     T
C664   C676    1.455   .     S
C664   N686    1.157   .     T
C665   N687    1.157   .     T
C666   O698    1.221   .     D
C666   H677    1.074   .     S
C667   H678    1.074   .     S
C667   O690    1.221   .     D
C668   N688    1.157   .     T
C669   N680    1.157   .     T
C670   C672    1.410   .     S
C670   O696    1.288   .     A
C670   O694    1.278   .     A
C671   O697    1.288   .     A
C671   O695    1.278   .     A
C671   C673    1.410   .     S
C673   C722    1.355   .     S
C673   C710    1.457   .     S
C675   C802    1.383   .     S
C676   C824    1.383   .     S
N679   Zn699   2.020   .     S
N681   Zn700   2.020   .     S
O689   Zn699   2.030   .     S
O691   Zn700   2.030   .     S
O692   Zn700   2.018   .     S
O693   Zn699   2.018   .     S
O694   Zn699   1.997   .     S
O695   Zn700   1.997   .     S
O696   Zn700   2.003   .     S
O697   Zn699   2.003   .     S
C701   O742    1.294   .     A
C701   C704    1.450   .     S
C701   O739    1.293   .     A
C702   C704    1.413   .     A
C702   C715    1.455   .     S
C703   C725    1.413   .     A
C703   C712    1.450   .     S
C703   C726    1.413   .     A
C704   C724    1.413   .     A
C705   C716    1.484   .     S
C705   N731    1.380   .     A
C706   N729    1.380   .     A
C706   C717    1.484   .     S
C706   C1158   1.429   .     S
C707   N729    1.363   .     A
C707   C718    1.442   .     S
C707   C1155   1.429   .     S
C708   C719    1.442   .     S
C708   N731    1.363   .     A
C709   N732    1.157   .     T
C709   C622    1.457   1_655 S
C710   N733    1.157   .     T
C711   N734    1.157   .     T
C711   C724    1.457   .     S
C712   O741    1.293   .     A
C712   O743    1.294   .     A
C713   C725    1.457   .     S
C713   N735    1.157   .     T
C714   C726    1.455   .     S
C714   N736    1.157   .     T
C715   N737    1.157   .     T
C716   O748    1.221   .     D
C716   H727    1.074   .     S
C717   H728    1.074   .     S
C717   O740    1.221   .     D
C718   N738    1.157   .     T
C719   N730    1.157   .     T
C720   C722    1.410   .     S
C720   O746    1.288   .     A
C720   O744    1.278   .     A
C721   O747    1.288   .     A
C721   O745    1.278   .     A
C721   C723    1.410   .     S
C723   C622    1.355   1_655 S
C723   C610    1.457   1_655 S
C725   C852    1.383   .     S
C726   C874    1.383   .     S
N729   Zn749   2.020   .     S
N731   Zn750   2.020   .     S
O739   Zn749   2.030   .     S
O741   Zn750   2.030   .     S
O742   Zn750   2.018   .     S
O743   Zn749   2.018   .     S
O744   Zn749   1.997   .     S
O745   Zn750   1.997   .     S
O746   Zn750   2.003   .     S
O747   Zn749   2.003   .     S
C751   O792    1.294   .     A
C751   C754    1.450   .     S
C751   O789    1.293   .     A
C752   C754    1.413   .     A
C752   C765    1.455   .     S
C753   C775    1.413   .     A
C753   C762    1.450   .     S
C753   C776    1.413   .     A
C754   C774    1.413   .     A
C755   C766    1.484   .     S
C755   N781    1.380   .     A
C756   N779    1.380   .     A
C756   C767    1.484   .     S
C756   C1208   1.429   .     S
C757   N779    1.363   .     A
C757   C768    1.442   .     S
C757   C1205   1.429   .     S
C758   C769    1.442   .     S
C758   N781    1.363   .     A
C759   N782    1.157   .     T
C759   C822    1.457   .     S
C760   N783    1.157   .     T
C760   C873    1.457   1_455 S
C761   N784    1.157   .     T
C761   C774    1.457   .     S
C762   O791    1.293   .     A
C762   O793    1.294   .     A
C763   C775    1.457   .     S
C763   N785    1.157   .     T
C764   C776    1.455   .     S
C764   N786    1.157   .     T
C765   N787    1.157   .     T
C766   O798    1.221   .     D
C766   H777    1.074   .     S
C767   H778    1.074   .     S
C767   O790    1.221   .     D
C768   N788    1.157   .     T
C769   N780    1.157   .     T
C770   C772    1.410   .     S
C770   O796    1.288   .     A
C770   O794    1.278   .     A
C771   O797    1.288   .     A
C771   O795    1.278   .     A
C771   C773    1.410   .     S
C772   C859    1.457   1_455 S
C772   C873    1.355   1_455 S
C773   C822    1.355   .     S
C773   C810    1.457   .     S
C775   C452    1.383   1_565 S
C776   C474    1.383   1_565 S
N779   Zn799   2.020   .     S
N781   Zn800   2.020   .     S
O789   Zn799   2.030   .     S
O791   Zn800   2.030   .     S
O792   Zn800   2.018   .     S
O793   Zn799   2.018   .     S
O794   Zn799   1.997   .     S
O795   Zn800   1.997   .     S
O796   Zn800   2.003   .     S
O797   Zn799   2.003   .     S
C801   O842    1.294   .     A
C801   C804    1.450   .     S
C801   O839    1.293   .     A
C802   C804    1.413   .     A
C802   C815    1.455   .     S
C803   C825    1.413   .     A
C803   C812    1.450   .     S
C803   C826    1.413   .     A
C804   C824    1.413   .     A
C805   C816    1.484   .     S
C805   N831    1.380   .     A
C806   N829    1.380   .     A
C806   C817    1.484   .     S
C806   C1258   1.429   .     S
C807   N829    1.363   .     A
C807   C818    1.442   .     S
C807   C1255   1.429   .     S
C808   C819    1.442   .     S
C808   N831    1.363   .     A
C809   N832    1.157   .     T
C809   C872    1.457   .     S
C810   N833    1.157   .     T
C811   N834    1.157   .     T
C811   C824    1.457   .     S
C812   O841    1.293   .     A
C812   O843    1.294   .     A
C813   C825    1.457   .     S
C813   N835    1.157   .     T
C814   C826    1.455   .     S
C814   N836    1.157   .     T
C815   N837    1.157   .     T
C816   O848    1.221   .     D
C816   H827    1.074   .     S
C817   H828    1.074   .     S
C817   O840    1.221   .     D
C818   N838    1.157   .     T
C819   N830    1.157   .     T
C820   C822    1.410   .     S
C820   O846    1.288   .     A
C820   O844    1.278   .     A
C821   O847    1.288   .     A
C821   O845    1.278   .     A
C821   C823    1.410   .     S
C823   C872    1.355   .     S
C823   C860    1.457   .     S
C825   C502    1.383   1_565 S
C826   C524    1.383   1_565 S
N829   Zn849   2.020   .     S
N831   Zn850   2.020   .     S
O839   Zn849   2.030   .     S
O841   Zn850   2.030   .     S
O842   Zn850   2.018   .     S
O843   Zn849   2.018   .     S
O844   Zn849   1.997   .     S
O845   Zn850   1.997   .     S
O846   Zn850   2.003   .     S
O847   Zn849   2.003   .     S
C851   O892    1.294   .     A
C851   C854    1.450   .     S
C851   O889    1.293   .     A
C852   C854    1.413   .     A
C852   C865    1.455   .     S
C853   C875    1.413   .     A
C853   C862    1.450   .     S
C853   C876    1.413   .     A
C854   C874    1.413   .     A
C855   C866    1.484   .     S
C855   N881    1.380   .     A
C856   N879    1.380   .     A
C856   C867    1.484   .     S
C856   C1308   1.429   .     S
C857   N879    1.363   .     A
C857   C868    1.442   .     S
C857   C1305   1.429   .     S
C858   C869    1.442   .     S
C858   N881    1.363   .     A
C859   N882    1.157   .     T
C859   C772    1.457   1_655 S
C860   N883    1.157   .     T
C861   N884    1.157   .     T
C861   C874    1.457   .     S
C862   O891    1.293   .     A
C862   O893    1.294   .     A
C863   C875    1.457   .     S
C863   N885    1.157   .     T
C864   C876    1.455   .     S
C864   N886    1.157   .     T
C865   N887    1.157   .     T
C866   O898    1.221   .     D
C866   H877    1.074   .     S
C867   H878    1.074   .     S
C867   O890    1.221   .     D
C868   N888    1.157   .     T
C869   N880    1.157   .     T
C870   C872    1.410   .     S
C870   O896    1.288   .     A
C870   O894    1.278   .     A
C871   O897    1.288   .     A
C871   O895    1.278   .     A
C871   C873    1.410   .     S
C873   C772    1.355   1_655 S
C873   C760    1.457   1_655 S
C875   C552    1.383   1_565 S
C876   C574    1.383   1_565 S
N879   Zn899   2.020   .     S
N881   Zn900   2.020   .     S
O889   Zn899   2.030   .     S
O891   Zn900   2.030   .     S
O892   Zn900   2.018   .     S
O893   Zn899   2.018   .     S
O894   Zn899   1.997   .     S
O895   Zn900   1.997   .     S
O896   Zn900   2.003   .     S
O897   Zn899   2.003   .     S
C901   O942    1.294   .     A
C901   C904    1.450   .     S
C901   O939    1.293   .     A
C902   C904    1.413   .     A
C902   C915    1.455   .     S
C902   C1225   1.383   1_545 S
C903   C925    1.413   .     A
C903   C912    1.450   .     S
C903   C926    1.413   .     A
C904   C924    1.413   .     A
C905   C916    1.484   .     S
C905   N931    1.380   .     A
C906   N929    1.380   .     A
C906   C917    1.484   .     S
C906   C8      1.429   1_556 S
C907   N929    1.363   .     A
C907   C918    1.442   .     S
C907   C5      1.429   1_556 S
C908   C919    1.442   .     S
C908   N931    1.363   .     A
C909   N932    1.157   .     T
C909   C972    1.457   .     S
C910   N933    1.157   .     T
C910   C1023   1.457   1_455 S
C911   N934    1.157   .     T
C911   C924    1.457   .     S
C912   O941    1.293   .     A
C912   O943    1.294   .     A
C913   C925    1.457   .     S
C913   N935    1.157   .     T
C914   C926    1.455   .     S
C914   N936    1.157   .     T
C915   N937    1.157   .     T
C916   O948    1.221   .     D
C916   H927    1.074   .     S
C917   H928    1.074   .     S
C917   O940    1.221   .     D
C918   N938    1.157   .     T
C919   N930    1.157   .     T
C920   C922    1.410   .     S
C920   O946    1.288   .     A
C920   O944    1.278   .     A
C921   O947    1.288   .     A
C921   O945    1.278   .     A
C921   C923    1.410   .     S
C922   C1009   1.457   1_455 S
C922   C1023   1.355   1_455 S
C923   C972    1.355   .     S
C923   C960    1.457   .     S
C924   C1226   1.383   1_545 S
C925   C1052   1.383   .     S
C926   C1074   1.383   .     S
N929   Zn949   2.020   .     S
N931   Zn950   2.020   .     S
O939   Zn949   2.030   .     S
O941   Zn950   2.030   .     S
O942   Zn950   2.018   .     S
O943   Zn949   2.018   .     S
O944   Zn949   1.997   .     S
O945   Zn950   1.997   .     S
O946   Zn950   2.003   .     S
O947   Zn949   2.003   .     S
C951   O992    1.294   .     A
C951   C954    1.450   .     S
C951   O989    1.293   .     A
C952   C954    1.413   .     A
C952   C965    1.455   .     S
C952   C1275   1.383   1_545 S
C953   C975    1.413   .     A
C953   C962    1.450   .     S
C953   C976    1.413   .     A
C954   C974    1.413   .     A
C955   C966    1.484   .     S
C955   N981    1.380   .     A
C956   N979    1.380   .     A
C956   C967    1.484   .     S
C956   C58     1.429   1_556 S
C957   N979    1.363   .     A
C957   C968    1.442   .     S
C957   C55     1.429   1_556 S
C958   C969    1.442   .     S
C958   N981    1.363   .     A
C959   N982    1.157   .     T
C959   C1022   1.457   .     S
C960   N983    1.157   .     T
C961   N984    1.157   .     T
C961   C974    1.457   .     S
C962   O991    1.293   .     A
C962   O993    1.294   .     A
C963   C975    1.457   .     S
C963   N985    1.157   .     T
C964   C976    1.455   .     S
C964   N986    1.157   .     T
C965   N987    1.157   .     T
C966   O998    1.221   .     D
C966   H977    1.074   .     S
C967   H978    1.074   .     S
C967   O990    1.221   .     D
C968   N988    1.157   .     T
C969   N980    1.157   .     T
C970   C972    1.410   .     S
C970   O996    1.288   .     A
C970   O994    1.278   .     A
C971   O997    1.288   .     A
C971   O995    1.278   .     A
C971   C973    1.410   .     S
C973   C1022   1.355   .     S
C973   C1010   1.457   .     S
C974   C1276   1.383   1_545 S
C975   C1102   1.383   .     S
C976   C1124   1.383   .     S
N979   Zn999   2.020   .     S
N981   Zn1000  2.020   .     S
O989   Zn999   2.030   .     S
O991   Zn1000  2.030   .     S
O992   Zn1000  2.018   .     S
O993   Zn999   2.018   .     S
O994   Zn999   1.997   .     S
O995   Zn1000  1.997   .     S
O996   Zn1000  2.003   .     S
O997   Zn999   2.003   .     S
C1001  O1042   1.294   .     A
C1001  C1004   1.450   .     S
C1001  O1039   1.293   .     A
C1002  C1004   1.413   .     A
C1002  C1015   1.455   .     S
C1002  C1325   1.383   1_545 S
C1003  C1025   1.413   .     A
C1003  C1012   1.450   .     S
C1003  C1026   1.413   .     A
C1004  C1024   1.413   .     A
C1005  C1016   1.484   .     S
C1005  N1031   1.380   .     A
C1006  N1029   1.380   .     A
C1006  C1017   1.484   .     S
C1006  C108    1.429   1_556 S
C1007  N1029   1.363   .     A
C1007  C1018   1.442   .     S
C1007  C105    1.429   1_556 S
C1008  C1019   1.442   .     S
C1008  N1031   1.363   .     A
C1009  N1032   1.157   .     T
C1009  C922    1.457   1_655 S
C1010  N1033   1.157   .     T
C1011  N1034   1.157   .     T
C1011  C1024   1.457   .     S
C1012  O1041   1.293   .     A
C1012  O1043   1.294   .     A
C1013  C1025   1.457   .     S
C1013  N1035   1.157   .     T
C1014  C1026   1.455   .     S
C1014  N1036   1.157   .     T
C1015  N1037   1.157   .     T
C1016  O1048   1.221   .     D
C1016  H1027   1.074   .     S
C1017  H1028   1.074   .     S
C1017  O1040   1.221   .     D
C1018  N1038   1.157   .     T
C1019  N1030   1.157   .     T
C1020  C1022   1.410   .     S
C1020  O1046   1.288   .     A
C1020  O1044   1.278   .     A
C1021  O1047   1.288   .     A
C1021  O1045   1.278   .     A
C1021  C1023   1.410   .     S
C1023  C922    1.355   1_655 S
C1023  C910    1.457   1_655 S
C1024  C1326   1.383   1_545 S
C1025  C1152   1.383   .     S
C1026  C1174   1.383   .     S
N1029  Zn1049  2.020   .     S
N1031  Zn1050  2.020   .     S
O1039  Zn1049  2.030   .     S
O1041  Zn1050  2.030   .     S
O1042  Zn1050  2.018   .     S
O1043  Zn1049  2.018   .     S
O1044  Zn1049  1.997   .     S
O1045  Zn1050  1.997   .     S
O1046  Zn1050  2.003   .     S
O1047  Zn1049  2.003   .     S
C1051  O1092   1.294   .     A
C1051  C1054   1.450   .     S
C1051  O1089   1.293   .     A
C1052  C1054   1.413   .     A
C1052  C1065   1.455   .     S
C1053  C1075   1.413   .     A
C1053  C1062   1.450   .     S
C1053  C1076   1.413   .     A
C1054  C1074   1.413   .     A
C1055  C1066   1.484   .     S
C1055  N1081   1.380   .     A
C1056  N1079   1.380   .     A
C1056  C1067   1.484   .     S
C1056  C158    1.429   1_556 S
C1057  N1079   1.363   .     A
C1057  C1068   1.442   .     S
C1057  C155    1.429   1_556 S
C1058  C1069   1.442   .     S
C1058  N1081   1.363   .     A
C1059  N1082   1.157   .     T
C1059  C1122   1.457   .     S
C1060  N1083   1.157   .     T
C1060  C1173   1.457   1_455 S
C1061  N1084   1.157   .     T
C1061  C1074   1.457   .     S
C1062  O1091   1.293   .     A
C1062  O1093   1.294   .     A
C1063  C1075   1.457   .     S
C1063  N1085   1.157   .     T
C1064  C1076   1.455   .     S
C1064  N1086   1.157   .     T
C1065  N1087   1.157   .     T
C1066  O1098   1.221   .     D
C1066  H1077   1.074   .     S
C1067  H1078   1.074   .     S
C1067  O1090   1.221   .     D
C1068  N1088   1.157   .     T
C1069  N1080   1.157   .     T
C1070  C1072   1.410   .     S
C1070  O1096   1.288   .     A
C1070  O1094   1.278   .     A
C1071  O1097   1.288   .     A
C1071  O1095   1.278   .     A
C1071  C1073   1.410   .     S
C1072  C1159   1.457   1_455 S
C1072  C1173   1.355   1_455 S
C1073  C1122   1.355   .     S
C1073  C1110   1.457   .     S
C1075  C1202   1.383   .     S
C1076  C1224   1.383   .     S
N1079  Zn1099  2.020   .     S
N1081  Zn1100  2.020   .     S
O1089  Zn1099  2.030   .     S
O1091  Zn1100  2.030   .     S
O1092  Zn1100  2.018   .     S
O1093  Zn1099  2.018   .     S
O1094  Zn1099  1.997   .     S
O1095  Zn1100  1.997   .     S
O1096  Zn1100  2.003   .     S
O1097  Zn1099  2.003   .     S
C1101  O1142   1.294   .     A
C1101  C1104   1.450   .     S
C1101  O1139   1.293   .     A
C1102  C1104   1.413   .     A
C1102  C1115   1.455   .     S
C1103  C1125   1.413   .     A
C1103  C1112   1.450   .     S
C1103  C1126   1.413   .     A
C1104  C1124   1.413   .     A
C1105  C1116   1.484   .     S
C1105  N1131   1.380   .     A
C1106  N1129   1.380   .     A
C1106  C1117   1.484   .     S
C1106  C208    1.429   1_556 S
C1107  N1129   1.363   .     A
C1107  C1118   1.442   .     S
C1107  C205    1.429   1_556 S
C1108  C1119   1.442   .     S
C1108  N1131   1.363   .     A
C1109  N1132   1.157   .     T
C1109  C1172   1.457   .     S
C1110  N1133   1.157   .     T
C1111  N1134   1.157   .     T
C1111  C1124   1.457   .     S
C1112  O1141   1.293   .     A
C1112  O1143   1.294   .     A
C1113  C1125   1.457   .     S
C1113  N1135   1.157   .     T
C1114  C1126   1.455   .     S
C1114  N1136   1.157   .     T
C1115  N1137   1.157   .     T
C1116  O1148   1.221   .     D
C1116  H1127   1.074   .     S
C1117  H1128   1.074   .     S
C1117  O1140   1.221   .     D
C1118  N1138   1.157   .     T
C1119  N1130   1.157   .     T
C1120  C1122   1.410   .     S
C1120  O1146   1.288   .     A
C1120  O1144   1.278   .     A
C1121  O1147   1.288   .     A
C1121  O1145   1.278   .     A
C1121  C1123   1.410   .     S
C1123  C1172   1.355   .     S
C1123  C1160   1.457   .     S
C1125  C1252   1.383   .     S
C1126  C1274   1.383   .     S
N1129  Zn1149  2.020   .     S
N1131  Zn1150  2.020   .     S
O1139  Zn1149  2.030   .     S
O1141  Zn1150  2.030   .     S
O1142  Zn1150  2.018   .     S
O1143  Zn1149  2.018   .     S
O1144  Zn1149  1.997   .     S
O1145  Zn1150  1.997   .     S
O1146  Zn1150  2.003   .     S
O1147  Zn1149  2.003   .     S
C1151  O1192   1.294   .     A
C1151  C1154   1.450   .     S
C1151  O1189   1.293   .     A
C1152  C1154   1.413   .     A
C1152  C1165   1.455   .     S
C1153  C1175   1.413   .     A
C1153  C1162   1.450   .     S
C1153  C1176   1.413   .     A
C1154  C1174   1.413   .     A
C1155  C1166   1.484   .     S
C1155  N1181   1.380   .     A
C1156  N1179   1.380   .     A
C1156  C1167   1.484   .     S
C1156  C258    1.429   1_556 S
C1157  N1179   1.363   .     A
C1157  C1168   1.442   .     S
C1157  C255    1.429   1_556 S
C1158  C1169   1.442   .     S
C1158  N1181   1.363   .     A
C1159  N1182   1.157   .     T
C1159  C1072   1.457   1_655 S
C1160  N1183   1.157   .     T
C1161  N1184   1.157   .     T
C1161  C1174   1.457   .     S
C1162  O1191   1.293   .     A
C1162  O1193   1.294   .     A
C1163  C1175   1.457   .     S
C1163  N1185   1.157   .     T
C1164  C1176   1.455   .     S
C1164  N1186   1.157   .     T
C1165  N1187   1.157   .     T
C1166  O1198   1.221   .     D
C1166  H1177   1.074   .     S
C1167  H1178   1.074   .     S
C1167  O1190   1.221   .     D
C1168  N1188   1.157   .     T
C1169  N1180   1.157   .     T
C1170  C1172   1.410   .     S
C1170  O1196   1.288   .     A
C1170  O1194   1.278   .     A
C1171  O1197   1.288   .     A
C1171  O1195   1.278   .     A
C1171  C1173   1.410   .     S
C1173  C1072   1.355   1_655 S
C1173  C1060   1.457   1_655 S
C1175  C1302   1.383   .     S
C1176  C1324   1.383   .     S
N1179  Zn1199  2.020   .     S
N1181  Zn1200  2.020   .     S
O1189  Zn1199  2.030   .     S
O1191  Zn1200  2.030   .     S
O1192  Zn1200  2.018   .     S
O1193  Zn1199  2.018   .     S
O1194  Zn1199  1.997   .     S
O1195  Zn1200  1.997   .     S
O1196  Zn1200  2.003   .     S
O1197  Zn1199  2.003   .     S
C1201  O1242   1.294   .     A
C1201  C1204   1.450   .     S
C1201  O1239   1.293   .     A
C1202  C1204   1.413   .     A
C1202  C1215   1.455   .     S
C1203  C1225   1.413   .     A
C1203  C1212   1.450   .     S
C1203  C1226   1.413   .     A
C1204  C1224   1.413   .     A
C1205  C1216   1.484   .     S
C1205  N1231   1.380   .     A
C1206  N1229   1.380   .     A
C1206  C1217   1.484   .     S
C1206  C308    1.429   1_556 S
C1207  N1229   1.363   .     A
C1207  C1218   1.442   .     S
C1207  C305    1.429   1_556 S
C1208  C1219   1.442   .     S
C1208  N1231   1.363   .     A
C1209  N1232   1.157   .     T
C1209  C1272   1.457   .     S
C1210  N1233   1.157   .     T
C1210  C1323   1.457   1_455 S
C1211  N1234   1.157   .     T
C1211  C1224   1.457   .     S
C1212  O1241   1.293   .     A
C1212  O1243   1.294   .     A
C1213  C1225   1.457   .     S
C1213  N1235   1.157   .     T
C1214  C1226   1.455   .     S
C1214  N1236   1.157   .     T
C1215  N1237   1.157   .     T
C1216  O1248   1.221   .     D
C1216  H1227   1.074   .     S
C1217  H1228   1.074   .     S
C1217  O1240   1.221   .     D
C1218  N1238   1.157   .     T
C1219  N1230   1.157   .     T
C1220  C1222   1.410   .     S
C1220  O1246   1.288   .     A
C1220  O1244   1.278   .     A
C1221  O1247   1.288   .     A
C1221  O1245   1.278   .     A
C1221  C1223   1.410   .     S
C1222  C1309   1.457   1_455 S
C1222  C1323   1.355   1_455 S
C1223  C1272   1.355   .     S
C1223  C1260   1.457   .     S
C1225  C902    1.383   1_565 S
C1226  C924    1.383   1_565 S
N1229  Zn1249  2.020   .     S
N1231  Zn1250  2.020   .     S
O1239  Zn1249  2.030   .     S
O1241  Zn1250  2.030   .     S
O1242  Zn1250  2.018   .     S
O1243  Zn1249  2.018   .     S
O1244  Zn1249  1.997   .     S
O1245  Zn1250  1.997   .     S
O1246  Zn1250  2.003   .     S
O1247  Zn1249  2.003   .     S
C1251  O1292   1.294   .     A
C1251  C1254   1.450   .     S
C1251  O1289   1.293   .     A
C1252  C1254   1.413   .     A
C1252  C1265   1.455   .     S
C1253  C1275   1.413   .     A
C1253  C1262   1.450   .     S
C1253  C1276   1.413   .     A
C1254  C1274   1.413   .     A
C1255  C1266   1.484   .     S
C1255  N1281   1.380   .     A
C1256  N1279   1.380   .     A
C1256  C1267   1.484   .     S
C1256  C358    1.429   1_556 S
C1257  N1279   1.363   .     A
C1257  C1268   1.442   .     S
C1257  C355    1.429   1_556 S
C1258  C1269   1.442   .     S
C1258  N1281   1.363   .     A
C1259  N1282   1.157   .     T
C1259  C1322   1.457   .     S
C1260  N1283   1.157   .     T
C1261  N1284   1.157   .     T
C1261  C1274   1.457   .     S
C1262  O1291   1.293   .     A
C1262  O1293   1.294   .     A
C1263  C1275   1.457   .     S
C1263  N1285   1.157   .     T
C1264  C1276   1.455   .     S
C1264  N1286   1.157   .     T
C1265  N1287   1.157   .     T
C1266  O1298   1.221   .     D
C1266  H1277   1.074   .     S
C1267  H1278   1.074   .     S
C1267  O1290   1.221   .     D
C1268  N1288   1.157   .     T
C1269  N1280   1.157   .     T
C1270  C1272   1.410   .     S
C1270  O1296   1.288   .     A
C1270  O1294   1.278   .     A
C1271  O1297   1.288   .     A
C1271  O1295   1.278   .     A
C1271  C1273   1.410   .     S
C1273  C1322   1.355   .     S
C1273  C1310   1.457   .     S
C1275  C952    1.383   1_565 S
C1276  C974    1.383   1_565 S
N1279  Zn1299  2.020   .     S
N1281  Zn1300  2.020   .     S
O1289  Zn1299  2.030   .     S
O1291  Zn1300  2.030   .     S
O1292  Zn1300  2.018   .     S
O1293  Zn1299  2.018   .     S
O1294  Zn1299  1.997   .     S
O1295  Zn1300  1.997   .     S
O1296  Zn1300  2.003   .     S
O1297  Zn1299  2.003   .     S
C1301  O1342   1.294   .     A
C1301  C1304   1.450   .     S
C1301  O1339   1.293   .     A
C1302  C1304   1.413   .     A
C1302  C1315   1.455   .     S
C1303  C1325   1.413   .     A
C1303  C1312   1.450   .     S
C1303  C1326   1.413   .     A
C1304  C1324   1.413   .     A
C1305  C1316   1.484   .     S
C1305  N1331   1.380   .     A
C1306  N1329   1.380   .     A
C1306  C1317   1.484   .     S
C1306  C408    1.429   1_556 S
C1307  N1329   1.363   .     A
C1307  C1318   1.442   .     S
C1307  C405    1.429   1_556 S
C1308  C1319   1.442   .     S
C1308  N1331   1.363   .     A
C1309  N1332   1.157   .     T
C1309  C1222   1.457   1_655 S
C1310  N1333   1.157   .     T
C1311  N1334   1.157   .     T
C1311  C1324   1.457   .     S
C1312  O1341   1.293   .     A
C1312  O1343   1.294   .     A
C1313  C1325   1.457   .     S
C1313  N1335   1.157   .     T
C1314  C1326   1.455   .     S
C1314  N1336   1.157   .     T
C1315  N1337   1.157   .     T
C1316  O1348   1.221   .     D
C1316  H1327   1.074   .     S
C1317  H1328   1.074   .     S
C1317  O1340   1.221   .     D
C1318  N1338   1.157   .     T
C1319  N1330   1.157   .     T
C1320  C1322   1.410   .     S
C1320  O1346   1.288   .     A
C1320  O1344   1.278   .     A
C1321  O1347   1.288   .     A
C1321  O1345   1.278   .     A
C1321  C1323   1.410   .     S
C1323  C1222   1.355   1_655 S
C1323  C1210   1.457   1_655 S
C1325  C1002   1.383   1_565 S
C1326  C1024   1.383   1_565 S
N1329  Zn1349  2.020   .     S
N1331  Zn1350  2.020   .     S
O1339  Zn1349  2.030   .     S
O1341  Zn1350  2.030   .     S
O1342  Zn1350  2.018   .     S
O1343  Zn1349  2.018   .     S
O1344  Zn1349  1.997   .     S
O1345  Zn1350  1.997   .     S
O1346  Zn1350  2.003   .     S
O1347  Zn1349  2.003   .     S
