data_str_m3_o1_o10_pcu_sym.190
_audit_creation_date              2020-01-03
_audit_creation_method            'Materials Studio'
_symmetry_space_group_name_H-M    'P1'
_symmetry_Int_Tables_number       1
_symmetry_cell_setting            triclinic
loop_
_symmetry_equiv_pos_as_xyz
  x,y,z
_cell_length_a                    26.0468
_cell_length_b                    32.1412
_cell_length_c                    29.8629
_cell_angle_alpha                 90.3330
_cell_angle_beta                  99.0022
_cell_angle_gamma                 94.0066
loop_
_atom_site_label
_atom_site_type_symbol
_atom_site_fract_x
_atom_site_fract_y
_atom_site_fract_z
_atom_site_U_iso_or_equiv
_atom_site_adp_type
_atom_site_occupancy
C1     C     0.16704   0.08676   0.16662   0.00000  Uiso   1.00
C2     C     0.16629   0.24657   0.16672   0.00000  Uiso   1.00
C3     C     0.06722   0.16608   0.15481   0.00000  Uiso   1.00
C4     C     0.26611   0.16725   0.17852   0.00000  Uiso   1.00
C5     C     0.01218   0.15971   0.14974   0.00000  Uiso   1.00
C6     C     0.32115   0.17362   0.18359   0.00000  Uiso   1.00
C7     C     0.16417   0.02086   0.12556   0.00000  Uiso   1.00
C8     C     0.16916   0.31248   0.20777   0.00000  Uiso   1.00
C9     C     0.16307   0.31159   0.12553   0.00000  Uiso   1.00
C10    C     0.17027   0.02175   0.20780   0.00000  Uiso   1.00
C11    C     0.16594   0.29077   0.16670   0.00000  Uiso   1.00
C12    C     0.16739   0.04256   0.16664   0.00000  Uiso   1.00
C13    C     0.19838   0.19509   0.02845   0.00000  Uiso   1.00
C14    C     0.13494   0.13825   0.30488   0.00000  Uiso   1.00
C15    C     0.19828   0.19504   0.31399   0.00000  Uiso   1.00
C16    C     0.13506   0.13829   0.01934   0.00000  Uiso   1.00
H17    H     0.16276   0.03655   0.09352   0.00000  Uiso   1.00
H18    H     0.17057   0.29679   0.23982   0.00000  Uiso   1.00
H19    H     0.16004   0.29518   0.09335   0.00000  Uiso   1.00
H20    H     0.17330   0.03815   0.23998   0.00000  Uiso   1.00
N21    N     0.16665   0.16666   0.28573   0.00000  Uiso   1.00
N22    N     0.16668   0.16668   0.04760   0.00000  Uiso   1.00
O23    O     0.16666   0.10558   0.20487   0.00000  Uiso   1.00
O24    O     0.16667   0.22775   0.12846   0.00000  Uiso   1.00
O25    O     0.16666   0.10559   0.12843   0.00000  Uiso   1.00
O26    O     0.16667   0.22774   0.20490   0.00000  Uiso   1.00
O27    O     0.09058   0.16666   0.19595   0.00000  Uiso   1.00
O28    O     0.24275   0.16667   0.13739   0.00000  Uiso   1.00
O29    O     0.09058   0.16667   0.11950   0.00000  Uiso   1.00
O30    O     0.24275   0.16666   0.21383   0.00000  Uiso   1.00
Zn31   Zn    0.16667   0.16666   0.21771   0.00000  Uiso   1.00
Zn32   Zn    0.16667   0.16667   0.11563   0.00000  Uiso   1.00
C33    C     0.32032   0.12996   0.11288   0.00000  Uiso   1.00
C34    C     0.31125   0.14296   0.06768   0.00000  Uiso   1.00
C35    C     0.28436   0.11596   0.03366   0.00000  Uiso   1.00
C36    C     0.26752   0.07553   0.04439   0.00000  Uiso   1.00
C37    C     0.27765   0.06201   0.08911   0.00000  Uiso   1.00
C38    C     0.30355   0.08918   0.12337   0.00000  Uiso   1.00
H39    H     0.32492   0.17393   0.05884   0.00000  Uiso   1.00
H40    H     0.27707   0.12627   0.33228   0.00000  Uiso   1.00
H41    H     0.24701   0.05458   0.01801   0.00000  Uiso   1.00
H42    H     0.26525   0.03051   0.09727   0.00000  Uiso   1.00
H43    H     0.31032   0.07862   0.15804   0.00000  Uiso   1.00
C44    C     0.01301   0.20342   0.22040   0.00000  Uiso   1.00
C45    C     0.02969   0.24420   0.20984   0.00000  Uiso   1.00
C46    C     0.05559   0.27142   0.24405   0.00000  Uiso   1.00
C47    C     0.06582   0.25795   0.28879   0.00000  Uiso   1.00
C48    C     0.04907   0.21751   0.29958   0.00000  Uiso   1.00
C49    C     0.02217   0.19047   0.26562   0.00000  Uiso   1.00
H50    H     0.02284   0.25473   0.17517   0.00000  Uiso   1.00
H51    H     0.06793   0.30293   0.23585   0.00000  Uiso   1.00
H52    H     0.08633   0.27895   0.31513   0.00000  Uiso   1.00
H53    H     0.05644   0.20725   0.00098   0.00000  Uiso   1.00
H54    H     0.00857   0.15949   0.27451   0.00000  Uiso   1.00
I55    I     0.24965   0.23982   0.07018   0.00000  Uiso   1.00
I56    I     0.08368   0.09352   0.26315   0.00000  Uiso   1.00
I57    I     0.24830   0.23995   0.28685   0.00000  Uiso   1.00
I58    I     0.08505   0.09337   0.04648   0.00000  Uiso   1.00
C59    C     0.50038   0.08676   0.16662   0.00000  Uiso   1.00
C60    C     0.49962   0.24657   0.16672   0.00000  Uiso   1.00
C61    C     0.40056   0.16608   0.15481   0.00000  Uiso   1.00
C62    C     0.59944   0.16725   0.17852   0.00000  Uiso   1.00
C63    C     0.34551   0.15971   0.14974   0.00000  Uiso   1.00
C64    C     0.65448   0.17362   0.18359   0.00000  Uiso   1.00
C65    C     0.49751   0.02086   0.12556   0.00000  Uiso   1.00
C66    C     0.50250   0.31248   0.20777   0.00000  Uiso   1.00
C67    C     0.49640   0.31159   0.12553   0.00000  Uiso   1.00
C68    C     0.50360   0.02175   0.20780   0.00000  Uiso   1.00
C69    C     0.49928   0.29077   0.16670   0.00000  Uiso   1.00
C70    C     0.50073   0.04256   0.16664   0.00000  Uiso   1.00
C71    C     0.53172   0.19509   0.02845   0.00000  Uiso   1.00
C72    C     0.46828   0.13825   0.30488   0.00000  Uiso   1.00
C73    C     0.53161   0.19504   0.31399   0.00000  Uiso   1.00
C74    C     0.46839   0.13829   0.01934   0.00000  Uiso   1.00
H75    H     0.49610   0.03655   0.09352   0.00000  Uiso   1.00
H76    H     0.50391   0.29679   0.23982   0.00000  Uiso   1.00
H77    H     0.49338   0.29518   0.09335   0.00000  Uiso   1.00
H78    H     0.50663   0.03815   0.23998   0.00000  Uiso   1.00
N79    N     0.49999   0.16666   0.28573   0.00000  Uiso   1.00
N80    N     0.50001   0.16668   0.04760   0.00000  Uiso   1.00
O81    O     0.50000   0.10558   0.20487   0.00000  Uiso   1.00
O82    O     0.50000   0.22775   0.12846   0.00000  Uiso   1.00
O83    O     0.50000   0.10559   0.12843   0.00000  Uiso   1.00
O84    O     0.50000   0.22774   0.20490   0.00000  Uiso   1.00
O85    O     0.42392   0.16666   0.19595   0.00000  Uiso   1.00
O86    O     0.57608   0.16667   0.13739   0.00000  Uiso   1.00
O87    O     0.42392   0.16667   0.11950   0.00000  Uiso   1.00
O88    O     0.57608   0.16666   0.21383   0.00000  Uiso   1.00
Zn89   Zn    0.50000   0.16666   0.21771   0.00000  Uiso   1.00
Zn90   Zn    0.50000   0.16667   0.11563   0.00000  Uiso   1.00
C91    C     0.65365   0.12996   0.11288   0.00000  Uiso   1.00
C92    C     0.64458   0.14296   0.06768   0.00000  Uiso   1.00
C93    C     0.61770   0.11596   0.03366   0.00000  Uiso   1.00
C94    C     0.60085   0.07553   0.04439   0.00000  Uiso   1.00
C95    C     0.61099   0.06201   0.08911   0.00000  Uiso   1.00
C96    C     0.63688   0.08918   0.12337   0.00000  Uiso   1.00
H97    H     0.65825   0.17393   0.05884   0.00000  Uiso   1.00
H98    H     0.61040   0.12627   0.33228   0.00000  Uiso   1.00
H99    H     0.58035   0.05458   0.01801   0.00000  Uiso   1.00
H100   H     0.59858   0.03051   0.09727   0.00000  Uiso   1.00
H101   H     0.64366   0.07862   0.15804   0.00000  Uiso   1.00
C102   C     0.34634   0.20342   0.22040   0.00000  Uiso   1.00
C103   C     0.36302   0.24420   0.20984   0.00000  Uiso   1.00
C104   C     0.38892   0.27142   0.24405   0.00000  Uiso   1.00
C105   C     0.39915   0.25795   0.28879   0.00000  Uiso   1.00
C106   C     0.38240   0.21751   0.29958   0.00000  Uiso   1.00
C107   C     0.35550   0.19047   0.26562   0.00000  Uiso   1.00
H108   H     0.35617   0.25473   0.17517   0.00000  Uiso   1.00
H109   H     0.40126   0.30293   0.23585   0.00000  Uiso   1.00
H110   H     0.41966   0.27895   0.31513   0.00000  Uiso   1.00
H111   H     0.38978   0.20725   0.00098   0.00000  Uiso   1.00
H112   H     0.34191   0.15949   0.27451   0.00000  Uiso   1.00
I113   I     0.58298   0.23982   0.07018   0.00000  Uiso   1.00
I114   I     0.41701   0.09352   0.26315   0.00000  Uiso   1.00
I115   I     0.58163   0.23995   0.28685   0.00000  Uiso   1.00
I116   I     0.41839   0.09337   0.04648   0.00000  Uiso   1.00
C117   C     0.83371   0.08676   0.16662   0.00000  Uiso   1.00
C118   C     0.83296   0.24657   0.16672   0.00000  Uiso   1.00
C119   C     0.73389   0.16608   0.15481   0.00000  Uiso   1.00
C120   C     0.93278   0.16725   0.17852   0.00000  Uiso   1.00
C121   C     0.67885   0.15971   0.14974   0.00000  Uiso   1.00
C122   C     0.98782   0.17362   0.18359   0.00000  Uiso   1.00
C123   C     0.83084   0.02086   0.12556   0.00000  Uiso   1.00
C124   C     0.83583   0.31248   0.20777   0.00000  Uiso   1.00
C125   C     0.82974   0.31159   0.12553   0.00000  Uiso   1.00
C126   C     0.83694   0.02175   0.20780   0.00000  Uiso   1.00
C127   C     0.83261   0.29077   0.16670   0.00000  Uiso   1.00
C128   C     0.83406   0.04256   0.16664   0.00000  Uiso   1.00
C129   C     0.86505   0.19509   0.02845   0.00000  Uiso   1.00
C130   C     0.80161   0.13825   0.30488   0.00000  Uiso   1.00
C131   C     0.86494   0.19504   0.31399   0.00000  Uiso   1.00
C132   C     0.80172   0.13829   0.01934   0.00000  Uiso   1.00
H133   H     0.82943   0.03655   0.09352   0.00000  Uiso   1.00
H134   H     0.83724   0.29679   0.23982   0.00000  Uiso   1.00
H135   H     0.82671   0.29518   0.09335   0.00000  Uiso   1.00
H136   H     0.83997   0.03815   0.23998   0.00000  Uiso   1.00
N137   N     0.83332   0.16666   0.28573   0.00000  Uiso   1.00
N138   N     0.83335   0.16668   0.04760   0.00000  Uiso   1.00
O139   O     0.83333   0.10558   0.20487   0.00000  Uiso   1.00
O140   O     0.83334   0.22775   0.12846   0.00000  Uiso   1.00
O141   O     0.83333   0.10559   0.12843   0.00000  Uiso   1.00
O142   O     0.83334   0.22774   0.20490   0.00000  Uiso   1.00
O143   O     0.75725   0.16666   0.19595   0.00000  Uiso   1.00
O144   O     0.90942   0.16667   0.13739   0.00000  Uiso   1.00
O145   O     0.75725   0.16667   0.11950   0.00000  Uiso   1.00
O146   O     0.90942   0.16666   0.21383   0.00000  Uiso   1.00
Zn147  Zn    0.83333   0.16666   0.21771   0.00000  Uiso   1.00
Zn148  Zn    0.83333   0.16667   0.11563   0.00000  Uiso   1.00
C149   C     0.98698   0.12996   0.11288   0.00000  Uiso   1.00
C150   C     0.97792   0.14296   0.06768   0.00000  Uiso   1.00
C151   C     0.95103   0.11596   0.03366   0.00000  Uiso   1.00
C152   C     0.93418   0.07553   0.04439   0.00000  Uiso   1.00
C153   C     0.94432   0.06201   0.08911   0.00000  Uiso   1.00
C154   C     0.97021   0.08918   0.12337   0.00000  Uiso   1.00
H155   H     0.99158   0.17393   0.05884   0.00000  Uiso   1.00
H156   H     0.94373   0.12627   0.33228   0.00000  Uiso   1.00
H157   H     0.91368   0.05458   0.01801   0.00000  Uiso   1.00
H158   H     0.93192   0.03051   0.09727   0.00000  Uiso   1.00
H159   H     0.97699   0.07862   0.15804   0.00000  Uiso   1.00
C160   C     0.67967   0.20342   0.22040   0.00000  Uiso   1.00
C161   C     0.69635   0.24420   0.20984   0.00000  Uiso   1.00
C162   C     0.72225   0.27142   0.24405   0.00000  Uiso   1.00
C163   C     0.73248   0.25795   0.28879   0.00000  Uiso   1.00
C164   C     0.71573   0.21751   0.29958   0.00000  Uiso   1.00
C165   C     0.68884   0.19047   0.26562   0.00000  Uiso   1.00
H166   H     0.68951   0.25473   0.17517   0.00000  Uiso   1.00
H167   H     0.73459   0.30293   0.23585   0.00000  Uiso   1.00
H168   H     0.75300   0.27895   0.31513   0.00000  Uiso   1.00
H169   H     0.72311   0.20725   0.00098   0.00000  Uiso   1.00
H170   H     0.67524   0.15949   0.27451   0.00000  Uiso   1.00
I171   I     0.91631   0.23982   0.07018   0.00000  Uiso   1.00
I172   I     0.75034   0.09352   0.26315   0.00000  Uiso   1.00
I173   I     0.91496   0.23995   0.28685   0.00000  Uiso   1.00
I174   I     0.75172   0.09337   0.04648   0.00000  Uiso   1.00
C175   C     0.16704   0.42009   0.16662   0.00000  Uiso   1.00
C176   C     0.16629   0.57991   0.16672   0.00000  Uiso   1.00
C177   C     0.06722   0.49941   0.15481   0.00000  Uiso   1.00
C178   C     0.26611   0.50059   0.17852   0.00000  Uiso   1.00
C179   C     0.01218   0.49304   0.14974   0.00000  Uiso   1.00
C180   C     0.32115   0.50695   0.18359   0.00000  Uiso   1.00
C181   C     0.16417   0.35419   0.12556   0.00000  Uiso   1.00
C182   C     0.16916   0.64581   0.20777   0.00000  Uiso   1.00
C183   C     0.16307   0.64492   0.12553   0.00000  Uiso   1.00
C184   C     0.17027   0.35508   0.20780   0.00000  Uiso   1.00
C185   C     0.16594   0.62411   0.16670   0.00000  Uiso   1.00
C186   C     0.16739   0.37589   0.16664   0.00000  Uiso   1.00
C187   C     0.19838   0.52842   0.02845   0.00000  Uiso   1.00
C188   C     0.13494   0.47158   0.30488   0.00000  Uiso   1.00
C189   C     0.19828   0.52838   0.31399   0.00000  Uiso   1.00
C190   C     0.13506   0.47162   0.01934   0.00000  Uiso   1.00
H191   H     0.16276   0.36988   0.09352   0.00000  Uiso   1.00
H192   H     0.17057   0.63012   0.23982   0.00000  Uiso   1.00
H193   H     0.16004   0.62851   0.09335   0.00000  Uiso   1.00
H194   H     0.17330   0.37149   0.23998   0.00000  Uiso   1.00
N195   N     0.16665   0.49999   0.28573   0.00000  Uiso   1.00
N196   N     0.16668   0.50001   0.04760   0.00000  Uiso   1.00
O197   O     0.16666   0.43892   0.20487   0.00000  Uiso   1.00
O198   O     0.16667   0.56108   0.12846   0.00000  Uiso   1.00
O199   O     0.16666   0.43893   0.12843   0.00000  Uiso   1.00
O200   O     0.16667   0.56107   0.20490   0.00000  Uiso   1.00
O201   O     0.09058   0.50000   0.19595   0.00000  Uiso   1.00
O202   O     0.24275   0.50000   0.13739   0.00000  Uiso   1.00
O203   O     0.09058   0.50000   0.11950   0.00000  Uiso   1.00
O204   O     0.24275   0.50000   0.21383   0.00000  Uiso   1.00
Zn205  Zn    0.16667   0.49999   0.21771   0.00000  Uiso   1.00
Zn206  Zn    0.16667   0.50001   0.11563   0.00000  Uiso   1.00
C207   C     0.32032   0.46329   0.11288   0.00000  Uiso   1.00
C208   C     0.31125   0.47629   0.06768   0.00000  Uiso   1.00
C209   C     0.28436   0.44930   0.03366   0.00000  Uiso   1.00
C210   C     0.26752   0.40886   0.04439   0.00000  Uiso   1.00
C211   C     0.27765   0.39534   0.08911   0.00000  Uiso   1.00
C212   C     0.30355   0.42252   0.12337   0.00000  Uiso   1.00
H213   H     0.32492   0.50726   0.05884   0.00000  Uiso   1.00
H214   H     0.27707   0.45960   0.33228   0.00000  Uiso   1.00
H215   H     0.24701   0.38791   0.01801   0.00000  Uiso   1.00
H216   H     0.26525   0.36384   0.09727   0.00000  Uiso   1.00
H217   H     0.31032   0.41195   0.15804   0.00000  Uiso   1.00
C218   C     0.01301   0.53675   0.22040   0.00000  Uiso   1.00
C219   C     0.02969   0.57753   0.20984   0.00000  Uiso   1.00
C220   C     0.05559   0.60476   0.24405   0.00000  Uiso   1.00
C221   C     0.06582   0.59128   0.28879   0.00000  Uiso   1.00
C222   C     0.04907   0.55085   0.29958   0.00000  Uiso   1.00
C223   C     0.02217   0.52380   0.26562   0.00000  Uiso   1.00
H224   H     0.02284   0.58806   0.17517   0.00000  Uiso   1.00
H225   H     0.06793   0.63626   0.23585   0.00000  Uiso   1.00
H226   H     0.08633   0.61228   0.31513   0.00000  Uiso   1.00
H227   H     0.05644   0.54058   0.00098   0.00000  Uiso   1.00
H228   H     0.00857   0.49282   0.27451   0.00000  Uiso   1.00
I229   I     0.24965   0.57315   0.07018   0.00000  Uiso   1.00
I230   I     0.08368   0.42685   0.26315   0.00000  Uiso   1.00
I231   I     0.24830   0.57328   0.28685   0.00000  Uiso   1.00
I232   I     0.08505   0.42671   0.04648   0.00000  Uiso   1.00
C233   C     0.50038   0.42009   0.16662   0.00000  Uiso   1.00
C234   C     0.49962   0.57991   0.16672   0.00000  Uiso   1.00
C235   C     0.40056   0.49941   0.15481   0.00000  Uiso   1.00
C236   C     0.59944   0.50059   0.17852   0.00000  Uiso   1.00
C237   C     0.34551   0.49304   0.14974   0.00000  Uiso   1.00
C238   C     0.65448   0.50695   0.18359   0.00000  Uiso   1.00
C239   C     0.49751   0.35419   0.12556   0.00000  Uiso   1.00
C240   C     0.50250   0.64581   0.20777   0.00000  Uiso   1.00
C241   C     0.49640   0.64492   0.12553   0.00000  Uiso   1.00
C242   C     0.50360   0.35508   0.20780   0.00000  Uiso   1.00
C243   C     0.49928   0.62411   0.16670   0.00000  Uiso   1.00
C244   C     0.50073   0.37589   0.16664   0.00000  Uiso   1.00
C245   C     0.53172   0.52842   0.02845   0.00000  Uiso   1.00
C246   C     0.46828   0.47158   0.30488   0.00000  Uiso   1.00
C247   C     0.53161   0.52838   0.31399   0.00000  Uiso   1.00
C248   C     0.46839   0.47162   0.01934   0.00000  Uiso   1.00
H249   H     0.49610   0.36988   0.09352   0.00000  Uiso   1.00
H250   H     0.50391   0.63012   0.23982   0.00000  Uiso   1.00
H251   H     0.49338   0.62851   0.09335   0.00000  Uiso   1.00
H252   H     0.50663   0.37149   0.23998   0.00000  Uiso   1.00
N253   N     0.49999   0.49999   0.28573   0.00000  Uiso   1.00
N254   N     0.50001   0.50001   0.04760   0.00000  Uiso   1.00
O255   O     0.50000   0.43892   0.20487   0.00000  Uiso   1.00
O256   O     0.50000   0.56108   0.12846   0.00000  Uiso   1.00
O257   O     0.50000   0.43893   0.12843   0.00000  Uiso   1.00
O258   O     0.50000   0.56107   0.20490   0.00000  Uiso   1.00
O259   O     0.42392   0.50000   0.19595   0.00000  Uiso   1.00
O260   O     0.57608   0.50000   0.13739   0.00000  Uiso   1.00
O261   O     0.42392   0.50000   0.11950   0.00000  Uiso   1.00
O262   O     0.57608   0.50000   0.21383   0.00000  Uiso   1.00
Zn263  Zn    0.50000   0.49999   0.21771   0.00000  Uiso   1.00
Zn264  Zn    0.50000   0.50001   0.11563   0.00000  Uiso   1.00
C265   C     0.65365   0.46329   0.11288   0.00000  Uiso   1.00
C266   C     0.64458   0.47629   0.06768   0.00000  Uiso   1.00
C267   C     0.61770   0.44930   0.03366   0.00000  Uiso   1.00
C268   C     0.60085   0.40886   0.04439   0.00000  Uiso   1.00
C269   C     0.61099   0.39534   0.08911   0.00000  Uiso   1.00
C270   C     0.63688   0.42252   0.12337   0.00000  Uiso   1.00
H271   H     0.65825   0.50726   0.05884   0.00000  Uiso   1.00
H272   H     0.61040   0.45960   0.33228   0.00000  Uiso   1.00
H273   H     0.58035   0.38791   0.01801   0.00000  Uiso   1.00
H274   H     0.59858   0.36384   0.09727   0.00000  Uiso   1.00
H275   H     0.64366   0.41195   0.15804   0.00000  Uiso   1.00
C276   C     0.34634   0.53675   0.22040   0.00000  Uiso   1.00
C277   C     0.36302   0.57753   0.20984   0.00000  Uiso   1.00
C278   C     0.38892   0.60476   0.24405   0.00000  Uiso   1.00
C279   C     0.39915   0.59128   0.28879   0.00000  Uiso   1.00
C280   C     0.38240   0.55085   0.29958   0.00000  Uiso   1.00
C281   C     0.35550   0.52380   0.26562   0.00000  Uiso   1.00
H282   H     0.35617   0.58806   0.17517   0.00000  Uiso   1.00
H283   H     0.40126   0.63626   0.23585   0.00000  Uiso   1.00
H284   H     0.41966   0.61228   0.31513   0.00000  Uiso   1.00
H285   H     0.38978   0.54058   0.00098   0.00000  Uiso   1.00
H286   H     0.34191   0.49282   0.27451   0.00000  Uiso   1.00
I287   I     0.58298   0.57315   0.07018   0.00000  Uiso   1.00
I288   I     0.41701   0.42685   0.26315   0.00000  Uiso   1.00
I289   I     0.58163   0.57328   0.28685   0.00000  Uiso   1.00
I290   I     0.41839   0.42671   0.04648   0.00000  Uiso   1.00
C291   C     0.83371   0.42009   0.16662   0.00000  Uiso   1.00
C292   C     0.83296   0.57991   0.16672   0.00000  Uiso   1.00
C293   C     0.73389   0.49941   0.15481   0.00000  Uiso   1.00
C294   C     0.93278   0.50059   0.17852   0.00000  Uiso   1.00
C295   C     0.67885   0.49304   0.14974   0.00000  Uiso   1.00
C296   C     0.98782   0.50695   0.18359   0.00000  Uiso   1.00
C297   C     0.83084   0.35419   0.12556   0.00000  Uiso   1.00
C298   C     0.83583   0.64581   0.20777   0.00000  Uiso   1.00
C299   C     0.82974   0.64492   0.12553   0.00000  Uiso   1.00
C300   C     0.83694   0.35508   0.20780   0.00000  Uiso   1.00
C301   C     0.83261   0.62411   0.16670   0.00000  Uiso   1.00
C302   C     0.83406   0.37589   0.16664   0.00000  Uiso   1.00
C303   C     0.86505   0.52842   0.02845   0.00000  Uiso   1.00
C304   C     0.80161   0.47158   0.30488   0.00000  Uiso   1.00
C305   C     0.86494   0.52838   0.31399   0.00000  Uiso   1.00
C306   C     0.80172   0.47162   0.01934   0.00000  Uiso   1.00
H307   H     0.82943   0.36988   0.09352   0.00000  Uiso   1.00
H308   H     0.83724   0.63012   0.23982   0.00000  Uiso   1.00
H309   H     0.82671   0.62851   0.09335   0.00000  Uiso   1.00
H310   H     0.83997   0.37149   0.23998   0.00000  Uiso   1.00
N311   N     0.83332   0.49999   0.28573   0.00000  Uiso   1.00
N312   N     0.83335   0.50001   0.04760   0.00000  Uiso   1.00
O313   O     0.83333   0.43892   0.20487   0.00000  Uiso   1.00
O314   O     0.83334   0.56108   0.12846   0.00000  Uiso   1.00
O315   O     0.83333   0.43893   0.12843   0.00000  Uiso   1.00
O316   O     0.83334   0.56107   0.20490   0.00000  Uiso   1.00
O317   O     0.75725   0.50000   0.19595   0.00000  Uiso   1.00
O318   O     0.90942   0.50000   0.13739   0.00000  Uiso   1.00
O319   O     0.75725   0.50000   0.11950   0.00000  Uiso   1.00
O320   O     0.90942   0.50000   0.21383   0.00000  Uiso   1.00
Zn321  Zn    0.83333   0.49999   0.21771   0.00000  Uiso   1.00
Zn322  Zn    0.83333   0.50001   0.11563   0.00000  Uiso   1.00
C323   C     0.98698   0.46329   0.11288   0.00000  Uiso   1.00
C324   C     0.97792   0.47629   0.06768   0.00000  Uiso   1.00
C325   C     0.95103   0.44930   0.03366   0.00000  Uiso   1.00
C326   C     0.93418   0.40886   0.04439   0.00000  Uiso   1.00
C327   C     0.94432   0.39534   0.08911   0.00000  Uiso   1.00
C328   C     0.97021   0.42252   0.12337   0.00000  Uiso   1.00
H329   H     0.99158   0.50726   0.05884   0.00000  Uiso   1.00
H330   H     0.94373   0.45960   0.33228   0.00000  Uiso   1.00
H331   H     0.91368   0.38791   0.01801   0.00000  Uiso   1.00
H332   H     0.93192   0.36384   0.09727   0.00000  Uiso   1.00
H333   H     0.97699   0.41195   0.15804   0.00000  Uiso   1.00
C334   C     0.67967   0.53675   0.22040   0.00000  Uiso   1.00
C335   C     0.69635   0.57753   0.20984   0.00000  Uiso   1.00
C336   C     0.72225   0.60476   0.24405   0.00000  Uiso   1.00
C337   C     0.73248   0.59128   0.28879   0.00000  Uiso   1.00
C338   C     0.71573   0.55085   0.29958   0.00000  Uiso   1.00
C339   C     0.68884   0.52380   0.26562   0.00000  Uiso   1.00
H340   H     0.68951   0.58806   0.17517   0.00000  Uiso   1.00
H341   H     0.73459   0.63626   0.23585   0.00000  Uiso   1.00
H342   H     0.75300   0.61228   0.31513   0.00000  Uiso   1.00
H343   H     0.72311   0.54058   0.00098   0.00000  Uiso   1.00
H344   H     0.67524   0.49282   0.27451   0.00000  Uiso   1.00
I345   I     0.91631   0.57315   0.07018   0.00000  Uiso   1.00
I346   I     0.75034   0.42685   0.26315   0.00000  Uiso   1.00
I347   I     0.91496   0.57328   0.28685   0.00000  Uiso   1.00
I348   I     0.75172   0.42671   0.04648   0.00000  Uiso   1.00
C349   C     0.16704   0.75343   0.16662   0.00000  Uiso   1.00
C350   C     0.16629   0.91324   0.16672   0.00000  Uiso   1.00
C351   C     0.06722   0.83274   0.15481   0.00000  Uiso   1.00
C352   C     0.26611   0.83392   0.17852   0.00000  Uiso   1.00
C353   C     0.01218   0.82637   0.14974   0.00000  Uiso   1.00
C354   C     0.32115   0.84029   0.18359   0.00000  Uiso   1.00
C355   C     0.16417   0.68752   0.12556   0.00000  Uiso   1.00
C356   C     0.16916   0.97914   0.20777   0.00000  Uiso   1.00
C357   C     0.16307   0.97825   0.12553   0.00000  Uiso   1.00
C358   C     0.17027   0.68841   0.20780   0.00000  Uiso   1.00
C359   C     0.16594   0.95744   0.16670   0.00000  Uiso   1.00
C360   C     0.16739   0.70923   0.16664   0.00000  Uiso   1.00
C361   C     0.19838   0.86175   0.02845   0.00000  Uiso   1.00
C362   C     0.13494   0.80492   0.30488   0.00000  Uiso   1.00
C363   C     0.19828   0.86171   0.31399   0.00000  Uiso   1.00
C364   C     0.13506   0.80496   0.01934   0.00000  Uiso   1.00
H365   H     0.16276   0.70321   0.09352   0.00000  Uiso   1.00
H366   H     0.17057   0.96345   0.23982   0.00000  Uiso   1.00
H367   H     0.16004   0.96185   0.09335   0.00000  Uiso   1.00
H368   H     0.17330   0.70482   0.23998   0.00000  Uiso   1.00
N369   N     0.16665   0.83332   0.28573   0.00000  Uiso   1.00
N370   N     0.16668   0.83334   0.04760   0.00000  Uiso   1.00
O371   O     0.16666   0.77225   0.20487   0.00000  Uiso   1.00
O372   O     0.16667   0.89442   0.12846   0.00000  Uiso   1.00
O373   O     0.16666   0.77226   0.12843   0.00000  Uiso   1.00
O374   O     0.16667   0.89441   0.20490   0.00000  Uiso   1.00
O375   O     0.09058   0.83333   0.19595   0.00000  Uiso   1.00
O376   O     0.24275   0.83334   0.13739   0.00000  Uiso   1.00
O377   O     0.09058   0.83334   0.11950   0.00000  Uiso   1.00
O378   O     0.24275   0.83333   0.21383   0.00000  Uiso   1.00
Zn379  Zn    0.16667   0.83333   0.21771   0.00000  Uiso   1.00
Zn380  Zn    0.16667   0.83334   0.11563   0.00000  Uiso   1.00
C381   C     0.32032   0.79662   0.11288   0.00000  Uiso   1.00
C382   C     0.31125   0.80963   0.06768   0.00000  Uiso   1.00
C383   C     0.28436   0.78263   0.03366   0.00000  Uiso   1.00
C384   C     0.26752   0.74220   0.04439   0.00000  Uiso   1.00
C385   C     0.27765   0.72868   0.08911   0.00000  Uiso   1.00
C386   C     0.30355   0.75585   0.12337   0.00000  Uiso   1.00
H387   H     0.32492   0.84060   0.05884   0.00000  Uiso   1.00
H388   H     0.27707   0.79293   0.33228   0.00000  Uiso   1.00
H389   H     0.24701   0.72124   0.01801   0.00000  Uiso   1.00
H390   H     0.26525   0.69718   0.09727   0.00000  Uiso   1.00
H391   H     0.31032   0.74528   0.15804   0.00000  Uiso   1.00
C392   C     0.01301   0.87009   0.22040   0.00000  Uiso   1.00
C393   C     0.02969   0.91087   0.20984   0.00000  Uiso   1.00
C394   C     0.05559   0.93809   0.24405   0.00000  Uiso   1.00
C395   C     0.06582   0.92462   0.28879   0.00000  Uiso   1.00
C396   C     0.04907   0.88418   0.29958   0.00000  Uiso   1.00
C397   C     0.02217   0.85713   0.26562   0.00000  Uiso   1.00
H398   H     0.02284   0.92139   0.17517   0.00000  Uiso   1.00
H399   H     0.06793   0.96959   0.23585   0.00000  Uiso   1.00
H400   H     0.08633   0.94561   0.31513   0.00000  Uiso   1.00
H401   H     0.05644   0.87391   0.00098   0.00000  Uiso   1.00
H402   H     0.00857   0.82616   0.27451   0.00000  Uiso   1.00
I403   I     0.24965   0.90649   0.07018   0.00000  Uiso   1.00
I404   I     0.08368   0.76019   0.26315   0.00000  Uiso   1.00
I405   I     0.24830   0.90661   0.28685   0.00000  Uiso   1.00
I406   I     0.08505   0.76004   0.04648   0.00000  Uiso   1.00
C407   C     0.50038   0.75343   0.16662   0.00000  Uiso   1.00
C408   C     0.49962   0.91324   0.16672   0.00000  Uiso   1.00
C409   C     0.40056   0.83274   0.15481   0.00000  Uiso   1.00
C410   C     0.59944   0.83392   0.17852   0.00000  Uiso   1.00
C411   C     0.34551   0.82637   0.14974   0.00000  Uiso   1.00
C412   C     0.65448   0.84029   0.18359   0.00000  Uiso   1.00
C413   C     0.49751   0.68752   0.12556   0.00000  Uiso   1.00
C414   C     0.50250   0.97914   0.20777   0.00000  Uiso   1.00
C415   C     0.49640   0.97825   0.12553   0.00000  Uiso   1.00
C416   C     0.50360   0.68841   0.20780   0.00000  Uiso   1.00
C417   C     0.49928   0.95744   0.16670   0.00000  Uiso   1.00
C418   C     0.50073   0.70923   0.16664   0.00000  Uiso   1.00
C419   C     0.53172   0.86175   0.02845   0.00000  Uiso   1.00
C420   C     0.46828   0.80492   0.30488   0.00000  Uiso   1.00
C421   C     0.53161   0.86171   0.31399   0.00000  Uiso   1.00
C422   C     0.46839   0.80496   0.01934   0.00000  Uiso   1.00
H423   H     0.49610   0.70321   0.09352   0.00000  Uiso   1.00
H424   H     0.50391   0.96345   0.23982   0.00000  Uiso   1.00
H425   H     0.49338   0.96185   0.09335   0.00000  Uiso   1.00
H426   H     0.50663   0.70482   0.23998   0.00000  Uiso   1.00
N427   N     0.49999   0.83332   0.28573   0.00000  Uiso   1.00
N428   N     0.50001   0.83334   0.04760   0.00000  Uiso   1.00
O429   O     0.50000   0.77225   0.20487   0.00000  Uiso   1.00
O430   O     0.50000   0.89442   0.12846   0.00000  Uiso   1.00
O431   O     0.50000   0.77226   0.12843   0.00000  Uiso   1.00
O432   O     0.50000   0.89441   0.20490   0.00000  Uiso   1.00
O433   O     0.42392   0.83333   0.19595   0.00000  Uiso   1.00
O434   O     0.57608   0.83334   0.13739   0.00000  Uiso   1.00
O435   O     0.42392   0.83334   0.11950   0.00000  Uiso   1.00
O436   O     0.57608   0.83333   0.21383   0.00000  Uiso   1.00
Zn437  Zn    0.50000   0.83333   0.21771   0.00000  Uiso   1.00
Zn438  Zn    0.50000   0.83334   0.11563   0.00000  Uiso   1.00
C439   C     0.65365   0.79662   0.11288   0.00000  Uiso   1.00
C440   C     0.64458   0.80963   0.06768   0.00000  Uiso   1.00
C441   C     0.61770   0.78263   0.03366   0.00000  Uiso   1.00
C442   C     0.60085   0.74220   0.04439   0.00000  Uiso   1.00
C443   C     0.61099   0.72868   0.08911   0.00000  Uiso   1.00
C444   C     0.63688   0.75585   0.12337   0.00000  Uiso   1.00
H445   H     0.65825   0.84060   0.05884   0.00000  Uiso   1.00
H446   H     0.61040   0.79293   0.33228   0.00000  Uiso   1.00
H447   H     0.58035   0.72124   0.01801   0.00000  Uiso   1.00
H448   H     0.59858   0.69718   0.09727   0.00000  Uiso   1.00
H449   H     0.64366   0.74528   0.15804   0.00000  Uiso   1.00
C450   C     0.34634   0.87009   0.22040   0.00000  Uiso   1.00
C451   C     0.36302   0.91087   0.20984   0.00000  Uiso   1.00
C452   C     0.38892   0.93809   0.24405   0.00000  Uiso   1.00
C453   C     0.39915   0.92462   0.28879   0.00000  Uiso   1.00
C454   C     0.38240   0.88418   0.29958   0.00000  Uiso   1.00
C455   C     0.35550   0.85713   0.26562   0.00000  Uiso   1.00
H456   H     0.35617   0.92139   0.17517   0.00000  Uiso   1.00
H457   H     0.40126   0.96959   0.23585   0.00000  Uiso   1.00
H458   H     0.41966   0.94561   0.31513   0.00000  Uiso   1.00
H459   H     0.38978   0.87391   0.00098   0.00000  Uiso   1.00
H460   H     0.34191   0.82616   0.27451   0.00000  Uiso   1.00
I461   I     0.58298   0.90649   0.07018   0.00000  Uiso   1.00
I462   I     0.41701   0.76019   0.26315   0.00000  Uiso   1.00
I463   I     0.58163   0.90661   0.28685   0.00000  Uiso   1.00
I464   I     0.41839   0.76004   0.04648   0.00000  Uiso   1.00
C465   C     0.83371   0.75343   0.16662   0.00000  Uiso   1.00
C466   C     0.83296   0.91324   0.16672   0.00000  Uiso   1.00
C467   C     0.73389   0.83274   0.15481   0.00000  Uiso   1.00
C468   C     0.93278   0.83392   0.17852   0.00000  Uiso   1.00
C469   C     0.67885   0.82637   0.14974   0.00000  Uiso   1.00
C470   C     0.98782   0.84029   0.18359   0.00000  Uiso   1.00
C471   C     0.83084   0.68752   0.12556   0.00000  Uiso   1.00
C472   C     0.83583   0.97914   0.20777   0.00000  Uiso   1.00
C473   C     0.82974   0.97825   0.12553   0.00000  Uiso   1.00
C474   C     0.83694   0.68841   0.20780   0.00000  Uiso   1.00
C475   C     0.83261   0.95744   0.16670   0.00000  Uiso   1.00
C476   C     0.83406   0.70923   0.16664   0.00000  Uiso   1.00
C477   C     0.86505   0.86175   0.02845   0.00000  Uiso   1.00
C478   C     0.80161   0.80492   0.30488   0.00000  Uiso   1.00
C479   C     0.86494   0.86171   0.31399   0.00000  Uiso   1.00
C480   C     0.80172   0.80496   0.01934   0.00000  Uiso   1.00
H481   H     0.82943   0.70321   0.09352   0.00000  Uiso   1.00
H482   H     0.83724   0.96345   0.23982   0.00000  Uiso   1.00
H483   H     0.82671   0.96185   0.09335   0.00000  Uiso   1.00
H484   H     0.83997   0.70482   0.23998   0.00000  Uiso   1.00
N485   N     0.83332   0.83332   0.28573   0.00000  Uiso   1.00
N486   N     0.83335   0.83334   0.04760   0.00000  Uiso   1.00
O487   O     0.83333   0.77225   0.20487   0.00000  Uiso   1.00
O488   O     0.83334   0.89442   0.12846   0.00000  Uiso   1.00
O489   O     0.83333   0.77226   0.12843   0.00000  Uiso   1.00
O490   O     0.83334   0.89441   0.20490   0.00000  Uiso   1.00
O491   O     0.75725   0.83333   0.19595   0.00000  Uiso   1.00
O492   O     0.90942   0.83334   0.13739   0.00000  Uiso   1.00
O493   O     0.75725   0.83334   0.11950   0.00000  Uiso   1.00
O494   O     0.90942   0.83333   0.21383   0.00000  Uiso   1.00
Zn495  Zn    0.83333   0.83333   0.21771   0.00000  Uiso   1.00
Zn496  Zn    0.83333   0.83334   0.11563   0.00000  Uiso   1.00
C497   C     0.98698   0.79662   0.11288   0.00000  Uiso   1.00
C498   C     0.97792   0.80963   0.06768   0.00000  Uiso   1.00
C499   C     0.95103   0.78263   0.03366   0.00000  Uiso   1.00
C500   C     0.93418   0.74220   0.04439   0.00000  Uiso   1.00
C501   C     0.94432   0.72868   0.08911   0.00000  Uiso   1.00
C502   C     0.97021   0.75585   0.12337   0.00000  Uiso   1.00
H503   H     0.99158   0.84060   0.05884   0.00000  Uiso   1.00
H504   H     0.94373   0.79293   0.33228   0.00000  Uiso   1.00
H505   H     0.91368   0.72124   0.01801   0.00000  Uiso   1.00
H506   H     0.93192   0.69718   0.09727   0.00000  Uiso   1.00
H507   H     0.97699   0.74528   0.15804   0.00000  Uiso   1.00
C508   C     0.67967   0.87009   0.22040   0.00000  Uiso   1.00
C509   C     0.69635   0.91087   0.20984   0.00000  Uiso   1.00
C510   C     0.72225   0.93809   0.24405   0.00000  Uiso   1.00
C511   C     0.73248   0.92462   0.28879   0.00000  Uiso   1.00
C512   C     0.71573   0.88418   0.29958   0.00000  Uiso   1.00
C513   C     0.68884   0.85713   0.26562   0.00000  Uiso   1.00
H514   H     0.68951   0.92139   0.17517   0.00000  Uiso   1.00
H515   H     0.73459   0.96959   0.23585   0.00000  Uiso   1.00
H516   H     0.75300   0.94561   0.31513   0.00000  Uiso   1.00
H517   H     0.72311   0.87391   0.00098   0.00000  Uiso   1.00
H518   H     0.67524   0.82616   0.27451   0.00000  Uiso   1.00
I519   I     0.91631   0.90649   0.07018   0.00000  Uiso   1.00
I520   I     0.75034   0.76019   0.26315   0.00000  Uiso   1.00
I521   I     0.91496   0.90661   0.28685   0.00000  Uiso   1.00
I522   I     0.75172   0.76004   0.04648   0.00000  Uiso   1.00
C523   C     0.16704   0.08676   0.49995   0.00000  Uiso   1.00
C524   C     0.16629   0.24657   0.50005   0.00000  Uiso   1.00
C525   C     0.06722   0.16608   0.48814   0.00000  Uiso   1.00
C526   C     0.26611   0.16725   0.51186   0.00000  Uiso   1.00
C527   C     0.01218   0.15971   0.48307   0.00000  Uiso   1.00
C528   C     0.32115   0.17362   0.51692   0.00000  Uiso   1.00
C529   C     0.16417   0.02086   0.45890   0.00000  Uiso   1.00
C530   C     0.16916   0.31248   0.54110   0.00000  Uiso   1.00
C531   C     0.16307   0.31159   0.45887   0.00000  Uiso   1.00
C532   C     0.17027   0.02175   0.54113   0.00000  Uiso   1.00
C533   C     0.16594   0.29077   0.50003   0.00000  Uiso   1.00
C534   C     0.16739   0.04256   0.49997   0.00000  Uiso   1.00
C535   C     0.19838   0.19509   0.36179   0.00000  Uiso   1.00
C536   C     0.13494   0.13825   0.63821   0.00000  Uiso   1.00
C537   C     0.19828   0.19504   0.64733   0.00000  Uiso   1.00
C538   C     0.13506   0.13829   0.35267   0.00000  Uiso   1.00
H539   H     0.16276   0.03655   0.42685   0.00000  Uiso   1.00
H540   H     0.17057   0.29679   0.57315   0.00000  Uiso   1.00
H541   H     0.16004   0.29518   0.42669   0.00000  Uiso   1.00
H542   H     0.17330   0.03815   0.57332   0.00000  Uiso   1.00
N543   N     0.16665   0.16666   0.61907   0.00000  Uiso   1.00
N544   N     0.16668   0.16668   0.38093   0.00000  Uiso   1.00
O545   O     0.16666   0.10558   0.53821   0.00000  Uiso   1.00
O546   O     0.16667   0.22775   0.46179   0.00000  Uiso   1.00
O547   O     0.16666   0.10559   0.46176   0.00000  Uiso   1.00
O548   O     0.16667   0.22774   0.53824   0.00000  Uiso   1.00
O549   O     0.09058   0.16666   0.52928   0.00000  Uiso   1.00
O550   O     0.24275   0.16667   0.47072   0.00000  Uiso   1.00
O551   O     0.09058   0.16667   0.45284   0.00000  Uiso   1.00
O552   O     0.24275   0.16666   0.54716   0.00000  Uiso   1.00
Zn553  Zn    0.16667   0.16666   0.55104   0.00000  Uiso   1.00
Zn554  Zn    0.16667   0.16667   0.44896   0.00000  Uiso   1.00
C555   C     0.32032   0.12996   0.44622   0.00000  Uiso   1.00
C556   C     0.31125   0.14296   0.40101   0.00000  Uiso   1.00
C557   C     0.28436   0.11596   0.36700   0.00000  Uiso   1.00
C558   C     0.26752   0.07553   0.37773   0.00000  Uiso   1.00
C559   C     0.27765   0.06201   0.42245   0.00000  Uiso   1.00
C560   C     0.30355   0.08918   0.45671   0.00000  Uiso   1.00
H561   H     0.32492   0.17393   0.39217   0.00000  Uiso   1.00
H562   H     0.27707   0.12627   0.66561   0.00000  Uiso   1.00
H563   H     0.24701   0.05458   0.35134   0.00000  Uiso   1.00
H564   H     0.26525   0.03051   0.43061   0.00000  Uiso   1.00
H565   H     0.31032   0.07862   0.49137   0.00000  Uiso   1.00
C566   C     0.01301   0.20342   0.55373   0.00000  Uiso   1.00
C567   C     0.02969   0.24420   0.54318   0.00000  Uiso   1.00
C568   C     0.05559   0.27142   0.57739   0.00000  Uiso   1.00
C569   C     0.06582   0.25795   0.62212   0.00000  Uiso   1.00
C570   C     0.04907   0.21751   0.63292   0.00000  Uiso   1.00
C571   C     0.02217   0.19047   0.59895   0.00000  Uiso   1.00
H572   H     0.02284   0.25473   0.50850   0.00000  Uiso   1.00
H573   H     0.06793   0.30293   0.56918   0.00000  Uiso   1.00
H574   H     0.08633   0.27895   0.64846   0.00000  Uiso   1.00
H575   H     0.05644   0.20725   0.33431   0.00000  Uiso   1.00
H576   H     0.00857   0.15949   0.60784   0.00000  Uiso   1.00
I577   I     0.24965   0.23982   0.40352   0.00000  Uiso   1.00
I578   I     0.08368   0.09352   0.59648   0.00000  Uiso   1.00
I579   I     0.24830   0.23995   0.62019   0.00000  Uiso   1.00
I580   I     0.08505   0.09337   0.37981   0.00000  Uiso   1.00
C581   C     0.50038   0.08676   0.49995   0.00000  Uiso   1.00
C582   C     0.49962   0.24657   0.50005   0.00000  Uiso   1.00
C583   C     0.40056   0.16608   0.48814   0.00000  Uiso   1.00
C584   C     0.59944   0.16725   0.51186   0.00000  Uiso   1.00
C585   C     0.34551   0.15971   0.48307   0.00000  Uiso   1.00
C586   C     0.65448   0.17362   0.51692   0.00000  Uiso   1.00
C587   C     0.49751   0.02086   0.45890   0.00000  Uiso   1.00
C588   C     0.50250   0.31248   0.54110   0.00000  Uiso   1.00
C589   C     0.49640   0.31159   0.45887   0.00000  Uiso   1.00
C590   C     0.50360   0.02175   0.54113   0.00000  Uiso   1.00
C591   C     0.49928   0.29077   0.50003   0.00000  Uiso   1.00
C592   C     0.50073   0.04256   0.49997   0.00000  Uiso   1.00
C593   C     0.53172   0.19509   0.36179   0.00000  Uiso   1.00
C594   C     0.46828   0.13825   0.63821   0.00000  Uiso   1.00
C595   C     0.53161   0.19504   0.64733   0.00000  Uiso   1.00
C596   C     0.46839   0.13829   0.35267   0.00000  Uiso   1.00
H597   H     0.49610   0.03655   0.42685   0.00000  Uiso   1.00
H598   H     0.50391   0.29679   0.57315   0.00000  Uiso   1.00
H599   H     0.49338   0.29518   0.42669   0.00000  Uiso   1.00
H600   H     0.50663   0.03815   0.57332   0.00000  Uiso   1.00
N601   N     0.49999   0.16666   0.61907   0.00000  Uiso   1.00
N602   N     0.50001   0.16668   0.38093   0.00000  Uiso   1.00
O603   O     0.50000   0.10558   0.53821   0.00000  Uiso   1.00
O604   O     0.50000   0.22775   0.46179   0.00000  Uiso   1.00
O605   O     0.50000   0.10559   0.46176   0.00000  Uiso   1.00
O606   O     0.50000   0.22774   0.53824   0.00000  Uiso   1.00
O607   O     0.42392   0.16666   0.52928   0.00000  Uiso   1.00
O608   O     0.57608   0.16667   0.47072   0.00000  Uiso   1.00
O609   O     0.42392   0.16667   0.45284   0.00000  Uiso   1.00
O610   O     0.57608   0.16666   0.54716   0.00000  Uiso   1.00
Zn611  Zn    0.50000   0.16666   0.55104   0.00000  Uiso   1.00
Zn612  Zn    0.50000   0.16667   0.44896   0.00000  Uiso   1.00
C613   C     0.65365   0.12996   0.44622   0.00000  Uiso   1.00
C614   C     0.64458   0.14296   0.40101   0.00000  Uiso   1.00
C615   C     0.61770   0.11596   0.36700   0.00000  Uiso   1.00
C616   C     0.60085   0.07553   0.37773   0.00000  Uiso   1.00
C617   C     0.61099   0.06201   0.42245   0.00000  Uiso   1.00
C618   C     0.63688   0.08918   0.45671   0.00000  Uiso   1.00
H619   H     0.65825   0.17393   0.39217   0.00000  Uiso   1.00
H620   H     0.61040   0.12627   0.66561   0.00000  Uiso   1.00
H621   H     0.58035   0.05458   0.35134   0.00000  Uiso   1.00
H622   H     0.59858   0.03051   0.43061   0.00000  Uiso   1.00
H623   H     0.64366   0.07862   0.49137   0.00000  Uiso   1.00
C624   C     0.34634   0.20342   0.55373   0.00000  Uiso   1.00
C625   C     0.36302   0.24420   0.54318   0.00000  Uiso   1.00
C626   C     0.38892   0.27142   0.57739   0.00000  Uiso   1.00
C627   C     0.39915   0.25795   0.62212   0.00000  Uiso   1.00
C628   C     0.38240   0.21751   0.63292   0.00000  Uiso   1.00
C629   C     0.35550   0.19047   0.59895   0.00000  Uiso   1.00
H630   H     0.35617   0.25473   0.50850   0.00000  Uiso   1.00
H631   H     0.40126   0.30293   0.56918   0.00000  Uiso   1.00
H632   H     0.41966   0.27895   0.64846   0.00000  Uiso   1.00
H633   H     0.38978   0.20725   0.33431   0.00000  Uiso   1.00
H634   H     0.34191   0.15949   0.60784   0.00000  Uiso   1.00
I635   I     0.58298   0.23982   0.40352   0.00000  Uiso   1.00
I636   I     0.41701   0.09352   0.59648   0.00000  Uiso   1.00
I637   I     0.58163   0.23995   0.62019   0.00000  Uiso   1.00
I638   I     0.41839   0.09337   0.37981   0.00000  Uiso   1.00
C639   C     0.83371   0.08676   0.49995   0.00000  Uiso   1.00
C640   C     0.83296   0.24657   0.50005   0.00000  Uiso   1.00
C641   C     0.73389   0.16608   0.48814   0.00000  Uiso   1.00
C642   C     0.93278   0.16725   0.51186   0.00000  Uiso   1.00
C643   C     0.67885   0.15971   0.48307   0.00000  Uiso   1.00
C644   C     0.98782   0.17362   0.51692   0.00000  Uiso   1.00
C645   C     0.83084   0.02086   0.45890   0.00000  Uiso   1.00
C646   C     0.83583   0.31248   0.54110   0.00000  Uiso   1.00
C647   C     0.82974   0.31159   0.45887   0.00000  Uiso   1.00
C648   C     0.83694   0.02175   0.54113   0.00000  Uiso   1.00
C649   C     0.83261   0.29077   0.50003   0.00000  Uiso   1.00
C650   C     0.83406   0.04256   0.49997   0.00000  Uiso   1.00
C651   C     0.86505   0.19509   0.36179   0.00000  Uiso   1.00
C652   C     0.80161   0.13825   0.63821   0.00000  Uiso   1.00
C653   C     0.86494   0.19504   0.64733   0.00000  Uiso   1.00
C654   C     0.80172   0.13829   0.35267   0.00000  Uiso   1.00
H655   H     0.82943   0.03655   0.42685   0.00000  Uiso   1.00
H656   H     0.83724   0.29679   0.57315   0.00000  Uiso   1.00
H657   H     0.82671   0.29518   0.42669   0.00000  Uiso   1.00
H658   H     0.83997   0.03815   0.57332   0.00000  Uiso   1.00
N659   N     0.83332   0.16666   0.61907   0.00000  Uiso   1.00
N660   N     0.83335   0.16668   0.38093   0.00000  Uiso   1.00
O661   O     0.83333   0.10558   0.53821   0.00000  Uiso   1.00
O662   O     0.83334   0.22775   0.46179   0.00000  Uiso   1.00
O663   O     0.83333   0.10559   0.46176   0.00000  Uiso   1.00
O664   O     0.83334   0.22774   0.53824   0.00000  Uiso   1.00
O665   O     0.75725   0.16666   0.52928   0.00000  Uiso   1.00
O666   O     0.90942   0.16667   0.47072   0.00000  Uiso   1.00
O667   O     0.75725   0.16667   0.45284   0.00000  Uiso   1.00
O668   O     0.90942   0.16666   0.54716   0.00000  Uiso   1.00
Zn669  Zn    0.83333   0.16666   0.55104   0.00000  Uiso   1.00
Zn670  Zn    0.83333   0.16667   0.44896   0.00000  Uiso   1.00
C671   C     0.98698   0.12996   0.44622   0.00000  Uiso   1.00
C672   C     0.97792   0.14296   0.40101   0.00000  Uiso   1.00
C673   C     0.95103   0.11596   0.36700   0.00000  Uiso   1.00
C674   C     0.93418   0.07553   0.37773   0.00000  Uiso   1.00
C675   C     0.94432   0.06201   0.42245   0.00000  Uiso   1.00
C676   C     0.97021   0.08918   0.45671   0.00000  Uiso   1.00
H677   H     0.99158   0.17393   0.39217   0.00000  Uiso   1.00
H678   H     0.94373   0.12627   0.66561   0.00000  Uiso   1.00
H679   H     0.91368   0.05458   0.35134   0.00000  Uiso   1.00
H680   H     0.93192   0.03051   0.43061   0.00000  Uiso   1.00
H681   H     0.97699   0.07862   0.49137   0.00000  Uiso   1.00
C682   C     0.67967   0.20342   0.55373   0.00000  Uiso   1.00
C683   C     0.69635   0.24420   0.54318   0.00000  Uiso   1.00
C684   C     0.72225   0.27142   0.57739   0.00000  Uiso   1.00
C685   C     0.73248   0.25795   0.62212   0.00000  Uiso   1.00
C686   C     0.71573   0.21751   0.63292   0.00000  Uiso   1.00
C687   C     0.68884   0.19047   0.59895   0.00000  Uiso   1.00
H688   H     0.68951   0.25473   0.50850   0.00000  Uiso   1.00
H689   H     0.73459   0.30293   0.56918   0.00000  Uiso   1.00
H690   H     0.75300   0.27895   0.64846   0.00000  Uiso   1.00
H691   H     0.72311   0.20725   0.33431   0.00000  Uiso   1.00
H692   H     0.67524   0.15949   0.60784   0.00000  Uiso   1.00
I693   I     0.91631   0.23982   0.40352   0.00000  Uiso   1.00
I694   I     0.75034   0.09352   0.59648   0.00000  Uiso   1.00
I695   I     0.91496   0.23995   0.62019   0.00000  Uiso   1.00
I696   I     0.75172   0.09337   0.37981   0.00000  Uiso   1.00
C697   C     0.16704   0.42009   0.49995   0.00000  Uiso   1.00
C698   C     0.16629   0.57991   0.50005   0.00000  Uiso   1.00
C699   C     0.06722   0.49941   0.48814   0.00000  Uiso   1.00
C700   C     0.26611   0.50059   0.51186   0.00000  Uiso   1.00
C701   C     0.01218   0.49304   0.48307   0.00000  Uiso   1.00
C702   C     0.32115   0.50695   0.51692   0.00000  Uiso   1.00
C703   C     0.16417   0.35419   0.45890   0.00000  Uiso   1.00
C704   C     0.16916   0.64581   0.54110   0.00000  Uiso   1.00
C705   C     0.16307   0.64492   0.45887   0.00000  Uiso   1.00
C706   C     0.17027   0.35508   0.54113   0.00000  Uiso   1.00
C707   C     0.16594   0.62411   0.50003   0.00000  Uiso   1.00
C708   C     0.16739   0.37589   0.49997   0.00000  Uiso   1.00
C709   C     0.19838   0.52842   0.36179   0.00000  Uiso   1.00
C710   C     0.13494   0.47158   0.63821   0.00000  Uiso   1.00
C711   C     0.19828   0.52838   0.64733   0.00000  Uiso   1.00
C712   C     0.13506   0.47162   0.35267   0.00000  Uiso   1.00
H713   H     0.16276   0.36988   0.42685   0.00000  Uiso   1.00
H714   H     0.17057   0.63012   0.57315   0.00000  Uiso   1.00
H715   H     0.16004   0.62851   0.42669   0.00000  Uiso   1.00
H716   H     0.17330   0.37149   0.57332   0.00000  Uiso   1.00
N717   N     0.16665   0.49999   0.61907   0.00000  Uiso   1.00
N718   N     0.16668   0.50001   0.38093   0.00000  Uiso   1.00
O719   O     0.16666   0.43892   0.53821   0.00000  Uiso   1.00
O720   O     0.16667   0.56108   0.46179   0.00000  Uiso   1.00
O721   O     0.16666   0.43893   0.46176   0.00000  Uiso   1.00
O722   O     0.16667   0.56107   0.53824   0.00000  Uiso   1.00
O723   O     0.09058   0.50000   0.52928   0.00000  Uiso   1.00
O724   O     0.24275   0.50000   0.47072   0.00000  Uiso   1.00
O725   O     0.09058   0.50000   0.45284   0.00000  Uiso   1.00
O726   O     0.24275   0.50000   0.54716   0.00000  Uiso   1.00
Zn727  Zn    0.16667   0.49999   0.55104   0.00000  Uiso   1.00
Zn728  Zn    0.16667   0.50001   0.44896   0.00000  Uiso   1.00
C729   C     0.32032   0.46329   0.44622   0.00000  Uiso   1.00
C730   C     0.31125   0.47629   0.40101   0.00000  Uiso   1.00
C731   C     0.28436   0.44930   0.36700   0.00000  Uiso   1.00
C732   C     0.26752   0.40886   0.37773   0.00000  Uiso   1.00
C733   C     0.27765   0.39534   0.42245   0.00000  Uiso   1.00
C734   C     0.30355   0.42252   0.45671   0.00000  Uiso   1.00
H735   H     0.32492   0.50726   0.39217   0.00000  Uiso   1.00
H736   H     0.27707   0.45960   0.66561   0.00000  Uiso   1.00
H737   H     0.24701   0.38791   0.35134   0.00000  Uiso   1.00
H738   H     0.26525   0.36384   0.43061   0.00000  Uiso   1.00
H739   H     0.31032   0.41195   0.49137   0.00000  Uiso   1.00
C740   C     0.01301   0.53675   0.55373   0.00000  Uiso   1.00
C741   C     0.02969   0.57753   0.54318   0.00000  Uiso   1.00
C742   C     0.05559   0.60476   0.57739   0.00000  Uiso   1.00
C743   C     0.06582   0.59128   0.62212   0.00000  Uiso   1.00
C744   C     0.04907   0.55085   0.63292   0.00000  Uiso   1.00
C745   C     0.02217   0.52380   0.59895   0.00000  Uiso   1.00
H746   H     0.02284   0.58806   0.50850   0.00000  Uiso   1.00
H747   H     0.06793   0.63626   0.56918   0.00000  Uiso   1.00
H748   H     0.08633   0.61228   0.64846   0.00000  Uiso   1.00
H749   H     0.05644   0.54058   0.33431   0.00000  Uiso   1.00
H750   H     0.00857   0.49282   0.60784   0.00000  Uiso   1.00
I751   I     0.24965   0.57315   0.40352   0.00000  Uiso   1.00
I752   I     0.08368   0.42685   0.59648   0.00000  Uiso   1.00
I753   I     0.24830   0.57328   0.62019   0.00000  Uiso   1.00
I754   I     0.08505   0.42671   0.37981   0.00000  Uiso   1.00
C755   C     0.50038   0.42009   0.49995   0.00000  Uiso   1.00
C756   C     0.49962   0.57991   0.50005   0.00000  Uiso   1.00
C757   C     0.40056   0.49941   0.48814   0.00000  Uiso   1.00
C758   C     0.59944   0.50059   0.51186   0.00000  Uiso   1.00
C759   C     0.34551   0.49304   0.48307   0.00000  Uiso   1.00
C760   C     0.65448   0.50695   0.51692   0.00000  Uiso   1.00
C761   C     0.49751   0.35419   0.45890   0.00000  Uiso   1.00
C762   C     0.50250   0.64581   0.54110   0.00000  Uiso   1.00
C763   C     0.49640   0.64492   0.45887   0.00000  Uiso   1.00
C764   C     0.50360   0.35508   0.54113   0.00000  Uiso   1.00
C765   C     0.49928   0.62411   0.50003   0.00000  Uiso   1.00
C766   C     0.50073   0.37589   0.49997   0.00000  Uiso   1.00
C767   C     0.53172   0.52842   0.36179   0.00000  Uiso   1.00
C768   C     0.46828   0.47158   0.63821   0.00000  Uiso   1.00
C769   C     0.53161   0.52838   0.64733   0.00000  Uiso   1.00
C770   C     0.46839   0.47162   0.35267   0.00000  Uiso   1.00
H771   H     0.49610   0.36988   0.42685   0.00000  Uiso   1.00
H772   H     0.50391   0.63012   0.57315   0.00000  Uiso   1.00
H773   H     0.49338   0.62851   0.42669   0.00000  Uiso   1.00
H774   H     0.50663   0.37149   0.57332   0.00000  Uiso   1.00
N775   N     0.49999   0.49999   0.61907   0.00000  Uiso   1.00
N776   N     0.50001   0.50001   0.38093   0.00000  Uiso   1.00
O777   O     0.50000   0.43892   0.53821   0.00000  Uiso   1.00
O778   O     0.50000   0.56108   0.46179   0.00000  Uiso   1.00
O779   O     0.50000   0.43893   0.46176   0.00000  Uiso   1.00
O780   O     0.50000   0.56107   0.53824   0.00000  Uiso   1.00
O781   O     0.42392   0.50000   0.52928   0.00000  Uiso   1.00
O782   O     0.57608   0.50000   0.47072   0.00000  Uiso   1.00
O783   O     0.42392   0.50000   0.45284   0.00000  Uiso   1.00
O784   O     0.57608   0.50000   0.54716   0.00000  Uiso   1.00
Zn785  Zn    0.50000   0.49999   0.55104   0.00000  Uiso   1.00
Zn786  Zn    0.50000   0.50001   0.44896   0.00000  Uiso   1.00
C787   C     0.65365   0.46329   0.44622   0.00000  Uiso   1.00
C788   C     0.64458   0.47629   0.40101   0.00000  Uiso   1.00
C789   C     0.61770   0.44930   0.36700   0.00000  Uiso   1.00
C790   C     0.60085   0.40886   0.37773   0.00000  Uiso   1.00
C791   C     0.61099   0.39534   0.42245   0.00000  Uiso   1.00
C792   C     0.63688   0.42252   0.45671   0.00000  Uiso   1.00
H793   H     0.65825   0.50726   0.39217   0.00000  Uiso   1.00
H794   H     0.61040   0.45960   0.66561   0.00000  Uiso   1.00
H795   H     0.58035   0.38791   0.35134   0.00000  Uiso   1.00
H796   H     0.59858   0.36384   0.43061   0.00000  Uiso   1.00
H797   H     0.64366   0.41195   0.49137   0.00000  Uiso   1.00
C798   C     0.34634   0.53675   0.55373   0.00000  Uiso   1.00
C799   C     0.36302   0.57753   0.54318   0.00000  Uiso   1.00
C800   C     0.38892   0.60476   0.57739   0.00000  Uiso   1.00
C801   C     0.39915   0.59128   0.62212   0.00000  Uiso   1.00
C802   C     0.38240   0.55085   0.63292   0.00000  Uiso   1.00
C803   C     0.35550   0.52380   0.59895   0.00000  Uiso   1.00
H804   H     0.35617   0.58806   0.50850   0.00000  Uiso   1.00
H805   H     0.40126   0.63626   0.56918   0.00000  Uiso   1.00
H806   H     0.41966   0.61228   0.64846   0.00000  Uiso   1.00
H807   H     0.38978   0.54058   0.33431   0.00000  Uiso   1.00
H808   H     0.34191   0.49282   0.60784   0.00000  Uiso   1.00
I809   I     0.58298   0.57315   0.40352   0.00000  Uiso   1.00
I810   I     0.41701   0.42685   0.59648   0.00000  Uiso   1.00
I811   I     0.58163   0.57328   0.62019   0.00000  Uiso   1.00
I812   I     0.41839   0.42671   0.37981   0.00000  Uiso   1.00
C813   C     0.83371   0.42009   0.49995   0.00000  Uiso   1.00
C814   C     0.83296   0.57991   0.50005   0.00000  Uiso   1.00
C815   C     0.73389   0.49941   0.48814   0.00000  Uiso   1.00
C816   C     0.93278   0.50059   0.51186   0.00000  Uiso   1.00
C817   C     0.67885   0.49304   0.48307   0.00000  Uiso   1.00
C818   C     0.98782   0.50695   0.51692   0.00000  Uiso   1.00
C819   C     0.83084   0.35419   0.45890   0.00000  Uiso   1.00
C820   C     0.83583   0.64581   0.54110   0.00000  Uiso   1.00
C821   C     0.82974   0.64492   0.45887   0.00000  Uiso   1.00
C822   C     0.83694   0.35508   0.54113   0.00000  Uiso   1.00
C823   C     0.83261   0.62411   0.50003   0.00000  Uiso   1.00
C824   C     0.83406   0.37589   0.49997   0.00000  Uiso   1.00
C825   C     0.86505   0.52842   0.36179   0.00000  Uiso   1.00
C826   C     0.80161   0.47158   0.63821   0.00000  Uiso   1.00
C827   C     0.86494   0.52838   0.64733   0.00000  Uiso   1.00
C828   C     0.80172   0.47162   0.35267   0.00000  Uiso   1.00
H829   H     0.82943   0.36988   0.42685   0.00000  Uiso   1.00
H830   H     0.83724   0.63012   0.57315   0.00000  Uiso   1.00
H831   H     0.82671   0.62851   0.42669   0.00000  Uiso   1.00
H832   H     0.83997   0.37149   0.57332   0.00000  Uiso   1.00
N833   N     0.83332   0.49999   0.61907   0.00000  Uiso   1.00
N834   N     0.83335   0.50001   0.38093   0.00000  Uiso   1.00
O835   O     0.83333   0.43892   0.53821   0.00000  Uiso   1.00
O836   O     0.83334   0.56108   0.46179   0.00000  Uiso   1.00
O837   O     0.83333   0.43893   0.46176   0.00000  Uiso   1.00
O838   O     0.83334   0.56107   0.53824   0.00000  Uiso   1.00
O839   O     0.75725   0.50000   0.52928   0.00000  Uiso   1.00
O840   O     0.90942   0.50000   0.47072   0.00000  Uiso   1.00
O841   O     0.75725   0.50000   0.45284   0.00000  Uiso   1.00
O842   O     0.90942   0.50000   0.54716   0.00000  Uiso   1.00
Zn843  Zn    0.83333   0.49999   0.55104   0.00000  Uiso   1.00
Zn844  Zn    0.83333   0.50001   0.44896   0.00000  Uiso   1.00
C845   C     0.98698   0.46329   0.44622   0.00000  Uiso   1.00
C846   C     0.97792   0.47629   0.40101   0.00000  Uiso   1.00
C847   C     0.95103   0.44930   0.36700   0.00000  Uiso   1.00
C848   C     0.93418   0.40886   0.37773   0.00000  Uiso   1.00
C849   C     0.94432   0.39534   0.42245   0.00000  Uiso   1.00
C850   C     0.97021   0.42252   0.45671   0.00000  Uiso   1.00
H851   H     0.99158   0.50726   0.39217   0.00000  Uiso   1.00
H852   H     0.94373   0.45960   0.66561   0.00000  Uiso   1.00
H853   H     0.91368   0.38791   0.35134   0.00000  Uiso   1.00
H854   H     0.93192   0.36384   0.43061   0.00000  Uiso   1.00
H855   H     0.97699   0.41195   0.49137   0.00000  Uiso   1.00
C856   C     0.67967   0.53675   0.55373   0.00000  Uiso   1.00
C857   C     0.69635   0.57753   0.54318   0.00000  Uiso   1.00
C858   C     0.72225   0.60476   0.57739   0.00000  Uiso   1.00
C859   C     0.73248   0.59128   0.62212   0.00000  Uiso   1.00
C860   C     0.71573   0.55085   0.63292   0.00000  Uiso   1.00
C861   C     0.68884   0.52380   0.59895   0.00000  Uiso   1.00
H862   H     0.68951   0.58806   0.50850   0.00000  Uiso   1.00
H863   H     0.73459   0.63626   0.56918   0.00000  Uiso   1.00
H864   H     0.75300   0.61228   0.64846   0.00000  Uiso   1.00
H865   H     0.72311   0.54058   0.33431   0.00000  Uiso   1.00
H866   H     0.67524   0.49282   0.60784   0.00000  Uiso   1.00
I867   I     0.91631   0.57315   0.40352   0.00000  Uiso   1.00
I868   I     0.75034   0.42685   0.59648   0.00000  Uiso   1.00
I869   I     0.91496   0.57328   0.62019   0.00000  Uiso   1.00
I870   I     0.75172   0.42671   0.37981   0.00000  Uiso   1.00
C871   C     0.16704   0.75343   0.49995   0.00000  Uiso   1.00
C872   C     0.16629   0.91324   0.50005   0.00000  Uiso   1.00
C873   C     0.06722   0.83274   0.48814   0.00000  Uiso   1.00
C874   C     0.26611   0.83392   0.51186   0.00000  Uiso   1.00
C875   C     0.01218   0.82637   0.48307   0.00000  Uiso   1.00
C876   C     0.32115   0.84029   0.51692   0.00000  Uiso   1.00
C877   C     0.16417   0.68752   0.45890   0.00000  Uiso   1.00
C878   C     0.16916   0.97914   0.54110   0.00000  Uiso   1.00
C879   C     0.16307   0.97825   0.45887   0.00000  Uiso   1.00
C880   C     0.17027   0.68841   0.54113   0.00000  Uiso   1.00
C881   C     0.16594   0.95744   0.50003   0.00000  Uiso   1.00
C882   C     0.16739   0.70923   0.49997   0.00000  Uiso   1.00
C883   C     0.19838   0.86175   0.36179   0.00000  Uiso   1.00
C884   C     0.13494   0.80492   0.63821   0.00000  Uiso   1.00
C885   C     0.19828   0.86171   0.64733   0.00000  Uiso   1.00
C886   C     0.13506   0.80496   0.35267   0.00000  Uiso   1.00
H887   H     0.16276   0.70321   0.42685   0.00000  Uiso   1.00
H888   H     0.17057   0.96345   0.57315   0.00000  Uiso   1.00
H889   H     0.16004   0.96185   0.42669   0.00000  Uiso   1.00
H890   H     0.17330   0.70482   0.57332   0.00000  Uiso   1.00
N891   N     0.16665   0.83332   0.61907   0.00000  Uiso   1.00
N892   N     0.16668   0.83334   0.38093   0.00000  Uiso   1.00
O893   O     0.16666   0.77225   0.53821   0.00000  Uiso   1.00
O894   O     0.16667   0.89442   0.46179   0.00000  Uiso   1.00
O895   O     0.16666   0.77226   0.46176   0.00000  Uiso   1.00
O896   O     0.16667   0.89441   0.53824   0.00000  Uiso   1.00
O897   O     0.09058   0.83333   0.52928   0.00000  Uiso   1.00
O898   O     0.24275   0.83334   0.47072   0.00000  Uiso   1.00
O899   O     0.09058   0.83334   0.45284   0.00000  Uiso   1.00
O900   O     0.24275   0.83333   0.54716   0.00000  Uiso   1.00
Zn901  Zn    0.16667   0.83333   0.55104   0.00000  Uiso   1.00
Zn902  Zn    0.16667   0.83334   0.44896   0.00000  Uiso   1.00
C903   C     0.32032   0.79662   0.44622   0.00000  Uiso   1.00
C904   C     0.31125   0.80963   0.40101   0.00000  Uiso   1.00
C905   C     0.28436   0.78263   0.36700   0.00000  Uiso   1.00
C906   C     0.26752   0.74220   0.37773   0.00000  Uiso   1.00
C907   C     0.27765   0.72868   0.42245   0.00000  Uiso   1.00
C908   C     0.30355   0.75585   0.45671   0.00000  Uiso   1.00
H909   H     0.32492   0.84060   0.39217   0.00000  Uiso   1.00
H910   H     0.27707   0.79293   0.66561   0.00000  Uiso   1.00
H911   H     0.24701   0.72124   0.35134   0.00000  Uiso   1.00
H912   H     0.26525   0.69718   0.43061   0.00000  Uiso   1.00
H913   H     0.31032   0.74528   0.49137   0.00000  Uiso   1.00
C914   C     0.01301   0.87009   0.55373   0.00000  Uiso   1.00
C915   C     0.02969   0.91087   0.54318   0.00000  Uiso   1.00
C916   C     0.05559   0.93809   0.57739   0.00000  Uiso   1.00
C917   C     0.06582   0.92462   0.62212   0.00000  Uiso   1.00
C918   C     0.04907   0.88418   0.63292   0.00000  Uiso   1.00
C919   C     0.02217   0.85713   0.59895   0.00000  Uiso   1.00
H920   H     0.02284   0.92139   0.50850   0.00000  Uiso   1.00
H921   H     0.06793   0.96959   0.56918   0.00000  Uiso   1.00
H922   H     0.08633   0.94561   0.64846   0.00000  Uiso   1.00
H923   H     0.05644   0.87391   0.33431   0.00000  Uiso   1.00
H924   H     0.00857   0.82616   0.60784   0.00000  Uiso   1.00
I925   I     0.24965   0.90649   0.40352   0.00000  Uiso   1.00
I926   I     0.08368   0.76019   0.59648   0.00000  Uiso   1.00
I927   I     0.24830   0.90661   0.62019   0.00000  Uiso   1.00
I928   I     0.08505   0.76004   0.37981   0.00000  Uiso   1.00
C929   C     0.50038   0.75343   0.49995   0.00000  Uiso   1.00
C930   C     0.49962   0.91324   0.50005   0.00000  Uiso   1.00
C931   C     0.40056   0.83274   0.48814   0.00000  Uiso   1.00
C932   C     0.59944   0.83392   0.51186   0.00000  Uiso   1.00
C933   C     0.34551   0.82637   0.48307   0.00000  Uiso   1.00
C934   C     0.65448   0.84029   0.51692   0.00000  Uiso   1.00
C935   C     0.49751   0.68752   0.45890   0.00000  Uiso   1.00
C936   C     0.50250   0.97914   0.54110   0.00000  Uiso   1.00
C937   C     0.49640   0.97825   0.45887   0.00000  Uiso   1.00
C938   C     0.50360   0.68841   0.54113   0.00000  Uiso   1.00
C939   C     0.49928   0.95744   0.50003   0.00000  Uiso   1.00
C940   C     0.50073   0.70923   0.49997   0.00000  Uiso   1.00
C941   C     0.53172   0.86175   0.36179   0.00000  Uiso   1.00
C942   C     0.46828   0.80492   0.63821   0.00000  Uiso   1.00
C943   C     0.53161   0.86171   0.64733   0.00000  Uiso   1.00
C944   C     0.46839   0.80496   0.35267   0.00000  Uiso   1.00
H945   H     0.49610   0.70321   0.42685   0.00000  Uiso   1.00
H946   H     0.50391   0.96345   0.57315   0.00000  Uiso   1.00
H947   H     0.49338   0.96185   0.42669   0.00000  Uiso   1.00
H948   H     0.50663   0.70482   0.57332   0.00000  Uiso   1.00
N949   N     0.49999   0.83332   0.61907   0.00000  Uiso   1.00
N950   N     0.50001   0.83334   0.38093   0.00000  Uiso   1.00
O951   O     0.50000   0.77225   0.53821   0.00000  Uiso   1.00
O952   O     0.50000   0.89442   0.46179   0.00000  Uiso   1.00
O953   O     0.50000   0.77226   0.46176   0.00000  Uiso   1.00
O954   O     0.50000   0.89441   0.53824   0.00000  Uiso   1.00
O955   O     0.42392   0.83333   0.52928   0.00000  Uiso   1.00
O956   O     0.57608   0.83334   0.47072   0.00000  Uiso   1.00
O957   O     0.42392   0.83334   0.45284   0.00000  Uiso   1.00
O958   O     0.57608   0.83333   0.54716   0.00000  Uiso   1.00
Zn959  Zn    0.50000   0.83333   0.55104   0.00000  Uiso   1.00
Zn960  Zn    0.50000   0.83334   0.44896   0.00000  Uiso   1.00
C961   C     0.65365   0.79662   0.44622   0.00000  Uiso   1.00
C962   C     0.64458   0.80963   0.40101   0.00000  Uiso   1.00
C963   C     0.61770   0.78263   0.36700   0.00000  Uiso   1.00
C964   C     0.60085   0.74220   0.37773   0.00000  Uiso   1.00
C965   C     0.61099   0.72868   0.42245   0.00000  Uiso   1.00
C966   C     0.63688   0.75585   0.45671   0.00000  Uiso   1.00
H967   H     0.65825   0.84060   0.39217   0.00000  Uiso   1.00
H968   H     0.61040   0.79293   0.66561   0.00000  Uiso   1.00
H969   H     0.58035   0.72124   0.35134   0.00000  Uiso   1.00
H970   H     0.59858   0.69718   0.43061   0.00000  Uiso   1.00
H971   H     0.64366   0.74528   0.49137   0.00000  Uiso   1.00
C972   C     0.34634   0.87009   0.55373   0.00000  Uiso   1.00
C973   C     0.36302   0.91087   0.54318   0.00000  Uiso   1.00
C974   C     0.38892   0.93809   0.57739   0.00000  Uiso   1.00
C975   C     0.39915   0.92462   0.62212   0.00000  Uiso   1.00
C976   C     0.38240   0.88418   0.63292   0.00000  Uiso   1.00
C977   C     0.35550   0.85713   0.59895   0.00000  Uiso   1.00
H978   H     0.35617   0.92139   0.50850   0.00000  Uiso   1.00
H979   H     0.40126   0.96959   0.56918   0.00000  Uiso   1.00
H980   H     0.41966   0.94561   0.64846   0.00000  Uiso   1.00
H981   H     0.38978   0.87391   0.33431   0.00000  Uiso   1.00
H982   H     0.34191   0.82616   0.60784   0.00000  Uiso   1.00
I983   I     0.58298   0.90649   0.40352   0.00000  Uiso   1.00
I984   I     0.41701   0.76019   0.59648   0.00000  Uiso   1.00
I985   I     0.58163   0.90661   0.62019   0.00000  Uiso   1.00
I986   I     0.41839   0.76004   0.37981   0.00000  Uiso   1.00
C987   C     0.83371   0.75343   0.49995   0.00000  Uiso   1.00
C988   C     0.83296   0.91324   0.50005   0.00000  Uiso   1.00
C989   C     0.73389   0.83274   0.48814   0.00000  Uiso   1.00
C990   C     0.93278   0.83392   0.51186   0.00000  Uiso   1.00
C991   C     0.67885   0.82637   0.48307   0.00000  Uiso   1.00
C992   C     0.98782   0.84029   0.51692   0.00000  Uiso   1.00
C993   C     0.83084   0.68752   0.45890   0.00000  Uiso   1.00
C994   C     0.83583   0.97914   0.54110   0.00000  Uiso   1.00
C995   C     0.82974   0.97825   0.45887   0.00000  Uiso   1.00
C996   C     0.83694   0.68841   0.54113   0.00000  Uiso   1.00
C997   C     0.83261   0.95744   0.50003   0.00000  Uiso   1.00
C998   C     0.83406   0.70923   0.49997   0.00000  Uiso   1.00
C999   C     0.86505   0.86175   0.36179   0.00000  Uiso   1.00
C1000  C     0.80161   0.80492   0.63821   0.00000  Uiso   1.00
C1001  C     0.86494   0.86171   0.64733   0.00000  Uiso   1.00
C1002  C     0.80172   0.80496   0.35267   0.00000  Uiso   1.00
H1003  H     0.82943   0.70321   0.42685   0.00000  Uiso   1.00
H1004  H     0.83724   0.96345   0.57315   0.00000  Uiso   1.00
H1005  H     0.82671   0.96185   0.42669   0.00000  Uiso   1.00
H1006  H     0.83997   0.70482   0.57332   0.00000  Uiso   1.00
N1007  N     0.83332   0.83332   0.61907   0.00000  Uiso   1.00
N1008  N     0.83335   0.83334   0.38093   0.00000  Uiso   1.00
O1009  O     0.83333   0.77225   0.53821   0.00000  Uiso   1.00
O1010  O     0.83334   0.89442   0.46179   0.00000  Uiso   1.00
O1011  O     0.83333   0.77226   0.46176   0.00000  Uiso   1.00
O1012  O     0.83334   0.89441   0.53824   0.00000  Uiso   1.00
O1013  O     0.75725   0.83333   0.52928   0.00000  Uiso   1.00
O1014  O     0.90942   0.83334   0.47072   0.00000  Uiso   1.00
O1015  O     0.75725   0.83334   0.45284   0.00000  Uiso   1.00
O1016  O     0.90942   0.83333   0.54716   0.00000  Uiso   1.00
Zn1017 Zn    0.83333   0.83333   0.55104   0.00000  Uiso   1.00
Zn1018 Zn    0.83333   0.83334   0.44896   0.00000  Uiso   1.00
C1019  C     0.98698   0.79662   0.44622   0.00000  Uiso   1.00
C1020  C     0.97792   0.80963   0.40101   0.00000  Uiso   1.00
C1021  C     0.95103   0.78263   0.36700   0.00000  Uiso   1.00
C1022  C     0.93418   0.74220   0.37773   0.00000  Uiso   1.00
C1023  C     0.94432   0.72868   0.42245   0.00000  Uiso   1.00
C1024  C     0.97021   0.75585   0.45671   0.00000  Uiso   1.00
H1025  H     0.99158   0.84060   0.39217   0.00000  Uiso   1.00
H1026  H     0.94373   0.79293   0.66561   0.00000  Uiso   1.00
H1027  H     0.91368   0.72124   0.35134   0.00000  Uiso   1.00
H1028  H     0.93192   0.69718   0.43061   0.00000  Uiso   1.00
H1029  H     0.97699   0.74528   0.49137   0.00000  Uiso   1.00
C1030  C     0.67967   0.87009   0.55373   0.00000  Uiso   1.00
C1031  C     0.69635   0.91087   0.54318   0.00000  Uiso   1.00
C1032  C     0.72225   0.93809   0.57739   0.00000  Uiso   1.00
C1033  C     0.73248   0.92462   0.62212   0.00000  Uiso   1.00
C1034  C     0.71573   0.88418   0.63292   0.00000  Uiso   1.00
C1035  C     0.68884   0.85713   0.59895   0.00000  Uiso   1.00
H1036  H     0.68951   0.92139   0.50850   0.00000  Uiso   1.00
H1037  H     0.73459   0.96959   0.56918   0.00000  Uiso   1.00
H1038  H     0.75300   0.94561   0.64846   0.00000  Uiso   1.00
H1039  H     0.72311   0.87391   0.33431   0.00000  Uiso   1.00
H1040  H     0.67524   0.82616   0.60784   0.00000  Uiso   1.00
I1041  I     0.91631   0.90649   0.40352   0.00000  Uiso   1.00
I1042  I     0.75034   0.76019   0.59648   0.00000  Uiso   1.00
I1043  I     0.91496   0.90661   0.62019   0.00000  Uiso   1.00
I1044  I     0.75172   0.76004   0.37981   0.00000  Uiso   1.00
C1045  C     0.16704   0.08676   0.83328   0.00000  Uiso   1.00
C1046  C     0.16629   0.24657   0.83338   0.00000  Uiso   1.00
C1047  C     0.06722   0.16608   0.82148   0.00000  Uiso   1.00
C1048  C     0.26611   0.16725   0.84519   0.00000  Uiso   1.00
C1049  C     0.01218   0.15971   0.81641   0.00000  Uiso   1.00
C1050  C     0.32115   0.17362   0.85026   0.00000  Uiso   1.00
C1051  C     0.16417   0.02086   0.79223   0.00000  Uiso   1.00
C1052  C     0.16916   0.31248   0.87444   0.00000  Uiso   1.00
C1053  C     0.16307   0.31159   0.79220   0.00000  Uiso   1.00
C1054  C     0.17027   0.02175   0.87447   0.00000  Uiso   1.00
C1055  C     0.16594   0.29077   0.83336   0.00000  Uiso   1.00
C1056  C     0.16739   0.04256   0.83330   0.00000  Uiso   1.00
C1057  C     0.19838   0.19509   0.69512   0.00000  Uiso   1.00
C1058  C     0.13494   0.13825   0.97154   0.00000  Uiso   1.00
C1059  C     0.19828   0.19504   0.98066   0.00000  Uiso   1.00
C1060  C     0.13506   0.13829   0.68601   0.00000  Uiso   1.00
H1061  H     0.16276   0.03655   0.76018   0.00000  Uiso   1.00
H1062  H     0.17057   0.29679   0.90648   0.00000  Uiso   1.00
H1063  H     0.16004   0.29518   0.76002   0.00000  Uiso   1.00
H1064  H     0.17330   0.03815   0.90665   0.00000  Uiso   1.00
N1065  N     0.16665   0.16666   0.95240   0.00000  Uiso   1.00
N1066  N     0.16668   0.16668   0.71427   0.00000  Uiso   1.00
O1067  O     0.16666   0.10558   0.87154   0.00000  Uiso   1.00
O1068  O     0.16667   0.22775   0.79513   0.00000  Uiso   1.00
O1069  O     0.16666   0.10559   0.79510   0.00000  Uiso   1.00
O1070  O     0.16667   0.22774   0.87157   0.00000  Uiso   1.00
O1071  O     0.09058   0.16666   0.86261   0.00000  Uiso   1.00
O1072  O     0.24275   0.16667   0.80405   0.00000  Uiso   1.00
O1073  O     0.09058   0.16667   0.78617   0.00000  Uiso   1.00
O1074  O     0.24275   0.16666   0.88050   0.00000  Uiso   1.00
Zn1075 Zn    0.16667   0.16666   0.88437   0.00000  Uiso   1.00
Zn1076 Zn    0.16667   0.16667   0.78229   0.00000  Uiso   1.00
C1077  C     0.32032   0.12996   0.77955   0.00000  Uiso   1.00
C1078  C     0.31125   0.14296   0.73434   0.00000  Uiso   1.00
C1079  C     0.28436   0.11596   0.70033   0.00000  Uiso   1.00
C1080  C     0.26752   0.07553   0.71106   0.00000  Uiso   1.00
C1081  C     0.27765   0.06201   0.75578   0.00000  Uiso   1.00
C1082  C     0.30355   0.08918   0.79004   0.00000  Uiso   1.00
H1083  H     0.32492   0.17393   0.72551   0.00000  Uiso   1.00
H1084  H     0.27707   0.12627   0.99894   0.00000  Uiso   1.00
H1085  H     0.24701   0.05458   0.68467   0.00000  Uiso   1.00
H1086  H     0.26525   0.03051   0.76394   0.00000  Uiso   1.00
H1087  H     0.31032   0.07862   0.82471   0.00000  Uiso   1.00
C1088  C     0.01301   0.20342   0.88707   0.00000  Uiso   1.00
C1089  C     0.02969   0.24420   0.87651   0.00000  Uiso   1.00
C1090  C     0.05559   0.27142   0.91072   0.00000  Uiso   1.00
C1091  C     0.06582   0.25795   0.95545   0.00000  Uiso   1.00
C1092  C     0.04907   0.21751   0.96625   0.00000  Uiso   1.00
C1093  C     0.02217   0.19047   0.93229   0.00000  Uiso   1.00
H1094  H     0.02284   0.25473   0.84183   0.00000  Uiso   1.00
H1095  H     0.06793   0.30293   0.90251   0.00000  Uiso   1.00
H1096  H     0.08633   0.27895   0.98180   0.00000  Uiso   1.00
H1097  H     0.05644   0.20725   0.66764   0.00000  Uiso   1.00
H1098  H     0.00857   0.15949   0.94118   0.00000  Uiso   1.00
I1099  I     0.24965   0.23982   0.73685   0.00000  Uiso   1.00
I1100  I     0.08368   0.09352   0.92981   0.00000  Uiso   1.00
I1101  I     0.24830   0.23995   0.95352   0.00000  Uiso   1.00
I1102  I     0.08505   0.09337   0.71315   0.00000  Uiso   1.00
C1103  C     0.50038   0.08676   0.83328   0.00000  Uiso   1.00
C1104  C     0.49962   0.24657   0.83338   0.00000  Uiso   1.00
C1105  C     0.40056   0.16608   0.82148   0.00000  Uiso   1.00
C1106  C     0.59944   0.16725   0.84519   0.00000  Uiso   1.00
C1107  C     0.34551   0.15971   0.81641   0.00000  Uiso   1.00
C1108  C     0.65448   0.17362   0.85026   0.00000  Uiso   1.00
C1109  C     0.49751   0.02086   0.79223   0.00000  Uiso   1.00
C1110  C     0.50250   0.31248   0.87444   0.00000  Uiso   1.00
C1111  C     0.49640   0.31159   0.79220   0.00000  Uiso   1.00
C1112  C     0.50360   0.02175   0.87447   0.00000  Uiso   1.00
C1113  C     0.49928   0.29077   0.83336   0.00000  Uiso   1.00
C1114  C     0.50073   0.04256   0.83330   0.00000  Uiso   1.00
C1115  C     0.53172   0.19509   0.69512   0.00000  Uiso   1.00
C1116  C     0.46828   0.13825   0.97154   0.00000  Uiso   1.00
C1117  C     0.53161   0.19504   0.98066   0.00000  Uiso   1.00
C1118  C     0.46839   0.13829   0.68601   0.00000  Uiso   1.00
H1119  H     0.49610   0.03655   0.76018   0.00000  Uiso   1.00
H1120  H     0.50391   0.29679   0.90648   0.00000  Uiso   1.00
H1121  H     0.49338   0.29518   0.76002   0.00000  Uiso   1.00
H1122  H     0.50663   0.03815   0.90665   0.00000  Uiso   1.00
N1123  N     0.49999   0.16666   0.95240   0.00000  Uiso   1.00
N1124  N     0.50001   0.16668   0.71427   0.00000  Uiso   1.00
O1125  O     0.50000   0.10558   0.87154   0.00000  Uiso   1.00
O1126  O     0.50000   0.22775   0.79513   0.00000  Uiso   1.00
O1127  O     0.50000   0.10559   0.79510   0.00000  Uiso   1.00
O1128  O     0.50000   0.22774   0.87157   0.00000  Uiso   1.00
O1129  O     0.42392   0.16666   0.86261   0.00000  Uiso   1.00
O1130  O     0.57608   0.16667   0.80405   0.00000  Uiso   1.00
O1131  O     0.42392   0.16667   0.78617   0.00000  Uiso   1.00
O1132  O     0.57608   0.16666   0.88050   0.00000  Uiso   1.00
Zn1133 Zn    0.50000   0.16666   0.88437   0.00000  Uiso   1.00
Zn1134 Zn    0.50000   0.16667   0.78229   0.00000  Uiso   1.00
C1135  C     0.65365   0.12996   0.77955   0.00000  Uiso   1.00
C1136  C     0.64458   0.14296   0.73434   0.00000  Uiso   1.00
C1137  C     0.61770   0.11596   0.70033   0.00000  Uiso   1.00
C1138  C     0.60085   0.07553   0.71106   0.00000  Uiso   1.00
C1139  C     0.61099   0.06201   0.75578   0.00000  Uiso   1.00
C1140  C     0.63688   0.08918   0.79004   0.00000  Uiso   1.00
H1141  H     0.65825   0.17393   0.72551   0.00000  Uiso   1.00
H1142  H     0.61040   0.12627   0.99894   0.00000  Uiso   1.00
H1143  H     0.58035   0.05458   0.68467   0.00000  Uiso   1.00
H1144  H     0.59858   0.03051   0.76394   0.00000  Uiso   1.00
H1145  H     0.64366   0.07862   0.82471   0.00000  Uiso   1.00
C1146  C     0.34634   0.20342   0.88707   0.00000  Uiso   1.00
C1147  C     0.36302   0.24420   0.87651   0.00000  Uiso   1.00
C1148  C     0.38892   0.27142   0.91072   0.00000  Uiso   1.00
C1149  C     0.39915   0.25795   0.95545   0.00000  Uiso   1.00
C1150  C     0.38240   0.21751   0.96625   0.00000  Uiso   1.00
C1151  C     0.35550   0.19047   0.93229   0.00000  Uiso   1.00
H1152  H     0.35617   0.25473   0.84183   0.00000  Uiso   1.00
H1153  H     0.40126   0.30293   0.90251   0.00000  Uiso   1.00
H1154  H     0.41966   0.27895   0.98180   0.00000  Uiso   1.00
H1155  H     0.38978   0.20725   0.66764   0.00000  Uiso   1.00
H1156  H     0.34191   0.15949   0.94118   0.00000  Uiso   1.00
I1157  I     0.58298   0.23982   0.73685   0.00000  Uiso   1.00
I1158  I     0.41701   0.09352   0.92981   0.00000  Uiso   1.00
I1159  I     0.58163   0.23995   0.95352   0.00000  Uiso   1.00
I1160  I     0.41839   0.09337   0.71315   0.00000  Uiso   1.00
C1161  C     0.83371   0.08676   0.83328   0.00000  Uiso   1.00
C1162  C     0.83296   0.24657   0.83338   0.00000  Uiso   1.00
C1163  C     0.73389   0.16608   0.82148   0.00000  Uiso   1.00
C1164  C     0.93278   0.16725   0.84519   0.00000  Uiso   1.00
C1165  C     0.67885   0.15971   0.81641   0.00000  Uiso   1.00
C1166  C     0.98782   0.17362   0.85026   0.00000  Uiso   1.00
C1167  C     0.83084   0.02086   0.79223   0.00000  Uiso   1.00
C1168  C     0.83583   0.31248   0.87444   0.00000  Uiso   1.00
C1169  C     0.82974   0.31159   0.79220   0.00000  Uiso   1.00
C1170  C     0.83694   0.02175   0.87447   0.00000  Uiso   1.00
C1171  C     0.83261   0.29077   0.83336   0.00000  Uiso   1.00
C1172  C     0.83406   0.04256   0.83330   0.00000  Uiso   1.00
C1173  C     0.86505   0.19509   0.69512   0.00000  Uiso   1.00
C1174  C     0.80161   0.13825   0.97154   0.00000  Uiso   1.00
C1175  C     0.86494   0.19504   0.98066   0.00000  Uiso   1.00
C1176  C     0.80172   0.13829   0.68601   0.00000  Uiso   1.00
H1177  H     0.82943   0.03655   0.76018   0.00000  Uiso   1.00
H1178  H     0.83724   0.29679   0.90648   0.00000  Uiso   1.00
H1179  H     0.82671   0.29518   0.76002   0.00000  Uiso   1.00
H1180  H     0.83997   0.03815   0.90665   0.00000  Uiso   1.00
N1181  N     0.83332   0.16666   0.95240   0.00000  Uiso   1.00
N1182  N     0.83335   0.16668   0.71427   0.00000  Uiso   1.00
O1183  O     0.83333   0.10558   0.87154   0.00000  Uiso   1.00
O1184  O     0.83334   0.22775   0.79513   0.00000  Uiso   1.00
O1185  O     0.83333   0.10559   0.79510   0.00000  Uiso   1.00
O1186  O     0.83334   0.22774   0.87157   0.00000  Uiso   1.00
O1187  O     0.75725   0.16666   0.86261   0.00000  Uiso   1.00
O1188  O     0.90942   0.16667   0.80405   0.00000  Uiso   1.00
O1189  O     0.75725   0.16667   0.78617   0.00000  Uiso   1.00
O1190  O     0.90942   0.16666   0.88050   0.00000  Uiso   1.00
Zn1191 Zn    0.83333   0.16666   0.88437   0.00000  Uiso   1.00
Zn1192 Zn    0.83333   0.16667   0.78229   0.00000  Uiso   1.00
C1193  C     0.98698   0.12996   0.77955   0.00000  Uiso   1.00
C1194  C     0.97792   0.14296   0.73434   0.00000  Uiso   1.00
C1195  C     0.95103   0.11596   0.70033   0.00000  Uiso   1.00
C1196  C     0.93418   0.07553   0.71106   0.00000  Uiso   1.00
C1197  C     0.94432   0.06201   0.75578   0.00000  Uiso   1.00
C1198  C     0.97021   0.08918   0.79004   0.00000  Uiso   1.00
H1199  H     0.99158   0.17393   0.72551   0.00000  Uiso   1.00
H1200  H     0.94373   0.12627   0.99894   0.00000  Uiso   1.00
H1201  H     0.91368   0.05458   0.68467   0.00000  Uiso   1.00
H1202  H     0.93192   0.03051   0.76394   0.00000  Uiso   1.00
H1203  H     0.97699   0.07862   0.82471   0.00000  Uiso   1.00
C1204  C     0.67967   0.20342   0.88707   0.00000  Uiso   1.00
C1205  C     0.69635   0.24420   0.87651   0.00000  Uiso   1.00
C1206  C     0.72225   0.27142   0.91072   0.00000  Uiso   1.00
C1207  C     0.73248   0.25795   0.95545   0.00000  Uiso   1.00
C1208  C     0.71573   0.21751   0.96625   0.00000  Uiso   1.00
C1209  C     0.68884   0.19047   0.93229   0.00000  Uiso   1.00
H1210  H     0.68951   0.25473   0.84183   0.00000  Uiso   1.00
H1211  H     0.73459   0.30293   0.90251   0.00000  Uiso   1.00
H1212  H     0.75300   0.27895   0.98180   0.00000  Uiso   1.00
H1213  H     0.72311   0.20725   0.66764   0.00000  Uiso   1.00
H1214  H     0.67524   0.15949   0.94118   0.00000  Uiso   1.00
I1215  I     0.91631   0.23982   0.73685   0.00000  Uiso   1.00
I1216  I     0.75034   0.09352   0.92981   0.00000  Uiso   1.00
I1217  I     0.91496   0.23995   0.95352   0.00000  Uiso   1.00
I1218  I     0.75172   0.09337   0.71315   0.00000  Uiso   1.00
C1219  C     0.16704   0.42009   0.83328   0.00000  Uiso   1.00
C1220  C     0.16629   0.57991   0.83338   0.00000  Uiso   1.00
C1221  C     0.06722   0.49941   0.82148   0.00000  Uiso   1.00
C1222  C     0.26611   0.50059   0.84519   0.00000  Uiso   1.00
C1223  C     0.01218   0.49304   0.81641   0.00000  Uiso   1.00
C1224  C     0.32115   0.50695   0.85026   0.00000  Uiso   1.00
C1225  C     0.16417   0.35419   0.79223   0.00000  Uiso   1.00
C1226  C     0.16916   0.64581   0.87444   0.00000  Uiso   1.00
C1227  C     0.16307   0.64492   0.79220   0.00000  Uiso   1.00
C1228  C     0.17027   0.35508   0.87447   0.00000  Uiso   1.00
C1229  C     0.16594   0.62411   0.83336   0.00000  Uiso   1.00
C1230  C     0.16739   0.37589   0.83330   0.00000  Uiso   1.00
C1231  C     0.19838   0.52842   0.69512   0.00000  Uiso   1.00
C1232  C     0.13494   0.47158   0.97154   0.00000  Uiso   1.00
C1233  C     0.19828   0.52838   0.98066   0.00000  Uiso   1.00
C1234  C     0.13506   0.47162   0.68601   0.00000  Uiso   1.00
H1235  H     0.16276   0.36988   0.76018   0.00000  Uiso   1.00
H1236  H     0.17057   0.63012   0.90648   0.00000  Uiso   1.00
H1237  H     0.16004   0.62851   0.76002   0.00000  Uiso   1.00
H1238  H     0.17330   0.37149   0.90665   0.00000  Uiso   1.00
N1239  N     0.16665   0.49999   0.95240   0.00000  Uiso   1.00
N1240  N     0.16668   0.50001   0.71427   0.00000  Uiso   1.00
O1241  O     0.16666   0.43892   0.87154   0.00000  Uiso   1.00
O1242  O     0.16667   0.56108   0.79513   0.00000  Uiso   1.00
O1243  O     0.16666   0.43893   0.79510   0.00000  Uiso   1.00
O1244  O     0.16667   0.56107   0.87157   0.00000  Uiso   1.00
O1245  O     0.09058   0.50000   0.86261   0.00000  Uiso   1.00
O1246  O     0.24275   0.50000   0.80405   0.00000  Uiso   1.00
O1247  O     0.09058   0.50000   0.78617   0.00000  Uiso   1.00
O1248  O     0.24275   0.50000   0.88050   0.00000  Uiso   1.00
Zn1249 Zn    0.16667   0.49999   0.88437   0.00000  Uiso   1.00
Zn1250 Zn    0.16667   0.50001   0.78229   0.00000  Uiso   1.00
C1251  C     0.32032   0.46329   0.77955   0.00000  Uiso   1.00
C1252  C     0.31125   0.47629   0.73434   0.00000  Uiso   1.00
C1253  C     0.28436   0.44930   0.70033   0.00000  Uiso   1.00
C1254  C     0.26752   0.40886   0.71106   0.00000  Uiso   1.00
C1255  C     0.27765   0.39534   0.75578   0.00000  Uiso   1.00
C1256  C     0.30355   0.42252   0.79004   0.00000  Uiso   1.00
H1257  H     0.32492   0.50726   0.72551   0.00000  Uiso   1.00
H1258  H     0.27707   0.45960   0.99894   0.00000  Uiso   1.00
H1259  H     0.24701   0.38791   0.68467   0.00000  Uiso   1.00
H1260  H     0.26525   0.36384   0.76394   0.00000  Uiso   1.00
H1261  H     0.31032   0.41195   0.82471   0.00000  Uiso   1.00
C1262  C     0.01301   0.53675   0.88707   0.00000  Uiso   1.00
C1263  C     0.02969   0.57753   0.87651   0.00000  Uiso   1.00
C1264  C     0.05559   0.60476   0.91072   0.00000  Uiso   1.00
C1265  C     0.06582   0.59128   0.95545   0.00000  Uiso   1.00
C1266  C     0.04907   0.55085   0.96625   0.00000  Uiso   1.00
C1267  C     0.02217   0.52380   0.93229   0.00000  Uiso   1.00
H1268  H     0.02284   0.58806   0.84183   0.00000  Uiso   1.00
H1269  H     0.06793   0.63626   0.90251   0.00000  Uiso   1.00
H1270  H     0.08633   0.61228   0.98180   0.00000  Uiso   1.00
H1271  H     0.05644   0.54058   0.66764   0.00000  Uiso   1.00
H1272  H     0.00857   0.49282   0.94118   0.00000  Uiso   1.00
I1273  I     0.24965   0.57315   0.73685   0.00000  Uiso   1.00
I1274  I     0.08368   0.42685   0.92981   0.00000  Uiso   1.00
I1275  I     0.24830   0.57328   0.95352   0.00000  Uiso   1.00
I1276  I     0.08505   0.42671   0.71315   0.00000  Uiso   1.00
C1277  C     0.50038   0.42009   0.83328   0.00000  Uiso   1.00
C1278  C     0.49962   0.57991   0.83338   0.00000  Uiso   1.00
C1279  C     0.40056   0.49941   0.82148   0.00000  Uiso   1.00
C1280  C     0.59944   0.50059   0.84519   0.00000  Uiso   1.00
C1281  C     0.34551   0.49304   0.81641   0.00000  Uiso   1.00
C1282  C     0.65448   0.50695   0.85026   0.00000  Uiso   1.00
C1283  C     0.49751   0.35419   0.79223   0.00000  Uiso   1.00
C1284  C     0.50250   0.64581   0.87444   0.00000  Uiso   1.00
C1285  C     0.49640   0.64492   0.79220   0.00000  Uiso   1.00
C1286  C     0.50360   0.35508   0.87447   0.00000  Uiso   1.00
C1287  C     0.49928   0.62411   0.83336   0.00000  Uiso   1.00
C1288  C     0.50073   0.37589   0.83330   0.00000  Uiso   1.00
C1289  C     0.53172   0.52842   0.69512   0.00000  Uiso   1.00
C1290  C     0.46828   0.47158   0.97154   0.00000  Uiso   1.00
C1291  C     0.53161   0.52838   0.98066   0.00000  Uiso   1.00
C1292  C     0.46839   0.47162   0.68601   0.00000  Uiso   1.00
H1293  H     0.49610   0.36988   0.76018   0.00000  Uiso   1.00
H1294  H     0.50391   0.63012   0.90648   0.00000  Uiso   1.00
H1295  H     0.49338   0.62851   0.76002   0.00000  Uiso   1.00
H1296  H     0.50663   0.37149   0.90665   0.00000  Uiso   1.00
N1297  N     0.49999   0.49999   0.95240   0.00000  Uiso   1.00
N1298  N     0.50001   0.50001   0.71427   0.00000  Uiso   1.00
O1299  O     0.50000   0.43892   0.87154   0.00000  Uiso   1.00
O1300  O     0.50000   0.56108   0.79513   0.00000  Uiso   1.00
O1301  O     0.50000   0.43893   0.79510   0.00000  Uiso   1.00
O1302  O     0.50000   0.56107   0.87157   0.00000  Uiso   1.00
O1303  O     0.42392   0.50000   0.86261   0.00000  Uiso   1.00
O1304  O     0.57608   0.50000   0.80405   0.00000  Uiso   1.00
O1305  O     0.42392   0.50000   0.78617   0.00000  Uiso   1.00
O1306  O     0.57608   0.50000   0.88050   0.00000  Uiso   1.00
Zn1307 Zn    0.50000   0.49999   0.88437   0.00000  Uiso   1.00
Zn1308 Zn    0.50000   0.50001   0.78229   0.00000  Uiso   1.00
C1309  C     0.65365   0.46329   0.77955   0.00000  Uiso   1.00
C1310  C     0.64458   0.47629   0.73434   0.00000  Uiso   1.00
C1311  C     0.61770   0.44930   0.70033   0.00000  Uiso   1.00
C1312  C     0.60085   0.40886   0.71106   0.00000  Uiso   1.00
C1313  C     0.61099   0.39534   0.75578   0.00000  Uiso   1.00
C1314  C     0.63688   0.42252   0.79004   0.00000  Uiso   1.00
H1315  H     0.65825   0.50726   0.72551   0.00000  Uiso   1.00
H1316  H     0.61040   0.45960   0.99894   0.00000  Uiso   1.00
H1317  H     0.58035   0.38791   0.68467   0.00000  Uiso   1.00
H1318  H     0.59858   0.36384   0.76394   0.00000  Uiso   1.00
H1319  H     0.64366   0.41195   0.82471   0.00000  Uiso   1.00
C1320  C     0.34634   0.53675   0.88707   0.00000  Uiso   1.00
C1321  C     0.36302   0.57753   0.87651   0.00000  Uiso   1.00
C1322  C     0.38892   0.60476   0.91072   0.00000  Uiso   1.00
C1323  C     0.39915   0.59128   0.95545   0.00000  Uiso   1.00
C1324  C     0.38240   0.55085   0.96625   0.00000  Uiso   1.00
C1325  C     0.35550   0.52380   0.93229   0.00000  Uiso   1.00
H1326  H     0.35617   0.58806   0.84183   0.00000  Uiso   1.00
H1327  H     0.40126   0.63626   0.90251   0.00000  Uiso   1.00
H1328  H     0.41966   0.61228   0.98180   0.00000  Uiso   1.00
H1329  H     0.38978   0.54058   0.66764   0.00000  Uiso   1.00
H1330  H     0.34191   0.49282   0.94118   0.00000  Uiso   1.00
I1331  I     0.58298   0.57315   0.73685   0.00000  Uiso   1.00
I1332  I     0.41701   0.42685   0.92981   0.00000  Uiso   1.00
I1333  I     0.58163   0.57328   0.95352   0.00000  Uiso   1.00
I1334  I     0.41839   0.42671   0.71315   0.00000  Uiso   1.00
C1335  C     0.83371   0.42009   0.83328   0.00000  Uiso   1.00
C1336  C     0.83296   0.57991   0.83338   0.00000  Uiso   1.00
C1337  C     0.73389   0.49941   0.82148   0.00000  Uiso   1.00
C1338  C     0.93278   0.50059   0.84519   0.00000  Uiso   1.00
C1339  C     0.67885   0.49304   0.81641   0.00000  Uiso   1.00
C1340  C     0.98782   0.50695   0.85026   0.00000  Uiso   1.00
C1341  C     0.83084   0.35419   0.79223   0.00000  Uiso   1.00
C1342  C     0.83583   0.64581   0.87444   0.00000  Uiso   1.00
C1343  C     0.82974   0.64492   0.79220   0.00000  Uiso   1.00
C1344  C     0.83694   0.35508   0.87447   0.00000  Uiso   1.00
C1345  C     0.83261   0.62411   0.83336   0.00000  Uiso   1.00
C1346  C     0.83406   0.37589   0.83330   0.00000  Uiso   1.00
C1347  C     0.86505   0.52842   0.69512   0.00000  Uiso   1.00
C1348  C     0.80161   0.47158   0.97154   0.00000  Uiso   1.00
C1349  C     0.86494   0.52838   0.98066   0.00000  Uiso   1.00
C1350  C     0.80172   0.47162   0.68601   0.00000  Uiso   1.00
H1351  H     0.82943   0.36988   0.76018   0.00000  Uiso   1.00
H1352  H     0.83724   0.63012   0.90648   0.00000  Uiso   1.00
H1353  H     0.82671   0.62851   0.76002   0.00000  Uiso   1.00
H1354  H     0.83997   0.37149   0.90665   0.00000  Uiso   1.00
N1355  N     0.83332   0.49999   0.95240   0.00000  Uiso   1.00
N1356  N     0.83335   0.50001   0.71427   0.00000  Uiso   1.00
O1357  O     0.83333   0.43892   0.87154   0.00000  Uiso   1.00
O1358  O     0.83334   0.56108   0.79513   0.00000  Uiso   1.00
O1359  O     0.83333   0.43893   0.79510   0.00000  Uiso   1.00
O1360  O     0.83334   0.56107   0.87157   0.00000  Uiso   1.00
O1361  O     0.75725   0.50000   0.86261   0.00000  Uiso   1.00
O1362  O     0.90942   0.50000   0.80405   0.00000  Uiso   1.00
O1363  O     0.75725   0.50000   0.78617   0.00000  Uiso   1.00
O1364  O     0.90942   0.50000   0.88050   0.00000  Uiso   1.00
Zn1365 Zn    0.83333   0.49999   0.88437   0.00000  Uiso   1.00
Zn1366 Zn    0.83333   0.50001   0.78229   0.00000  Uiso   1.00
C1367  C     0.98698   0.46329   0.77955   0.00000  Uiso   1.00
C1368  C     0.97792   0.47629   0.73434   0.00000  Uiso   1.00
C1369  C     0.95103   0.44930   0.70033   0.00000  Uiso   1.00
C1370  C     0.93418   0.40886   0.71106   0.00000  Uiso   1.00
C1371  C     0.94432   0.39534   0.75578   0.00000  Uiso   1.00
C1372  C     0.97021   0.42252   0.79004   0.00000  Uiso   1.00
H1373  H     0.99158   0.50726   0.72551   0.00000  Uiso   1.00
H1374  H     0.94373   0.45960   0.99894   0.00000  Uiso   1.00
H1375  H     0.91368   0.38791   0.68467   0.00000  Uiso   1.00
H1376  H     0.93192   0.36384   0.76394   0.00000  Uiso   1.00
H1377  H     0.97699   0.41195   0.82471   0.00000  Uiso   1.00
C1378  C     0.67967   0.53675   0.88707   0.00000  Uiso   1.00
C1379  C     0.69635   0.57753   0.87651   0.00000  Uiso   1.00
C1380  C     0.72225   0.60476   0.91072   0.00000  Uiso   1.00
C1381  C     0.73248   0.59128   0.95545   0.00000  Uiso   1.00
C1382  C     0.71573   0.55085   0.96625   0.00000  Uiso   1.00
C1383  C     0.68884   0.52380   0.93229   0.00000  Uiso   1.00
H1384  H     0.68951   0.58806   0.84183   0.00000  Uiso   1.00
H1385  H     0.73459   0.63626   0.90251   0.00000  Uiso   1.00
H1386  H     0.75300   0.61228   0.98180   0.00000  Uiso   1.00
H1387  H     0.72311   0.54058   0.66764   0.00000  Uiso   1.00
H1388  H     0.67524   0.49282   0.94118   0.00000  Uiso   1.00
I1389  I     0.91631   0.57315   0.73685   0.00000  Uiso   1.00
I1390  I     0.75034   0.42685   0.92981   0.00000  Uiso   1.00
I1391  I     0.91496   0.57328   0.95352   0.00000  Uiso   1.00
I1392  I     0.75172   0.42671   0.71315   0.00000  Uiso   1.00
C1393  C     0.16704   0.75343   0.83328   0.00000  Uiso   1.00
C1394  C     0.16629   0.91324   0.83338   0.00000  Uiso   1.00
C1395  C     0.06722   0.83274   0.82148   0.00000  Uiso   1.00
C1396  C     0.26611   0.83392   0.84519   0.00000  Uiso   1.00
C1397  C     0.01218   0.82637   0.81641   0.00000  Uiso   1.00
C1398  C     0.32115   0.84029   0.85026   0.00000  Uiso   1.00
C1399  C     0.16417   0.68752   0.79223   0.00000  Uiso   1.00
C1400  C     0.16916   0.97914   0.87444   0.00000  Uiso   1.00
C1401  C     0.16307   0.97825   0.79220   0.00000  Uiso   1.00
C1402  C     0.17027   0.68841   0.87447   0.00000  Uiso   1.00
C1403  C     0.16594   0.95744   0.83336   0.00000  Uiso   1.00
C1404  C     0.16739   0.70923   0.83330   0.00000  Uiso   1.00
C1405  C     0.19838   0.86175   0.69512   0.00000  Uiso   1.00
C1406  C     0.13494   0.80492   0.97154   0.00000  Uiso   1.00
C1407  C     0.19828   0.86171   0.98066   0.00000  Uiso   1.00
C1408  C     0.13506   0.80496   0.68601   0.00000  Uiso   1.00
H1409  H     0.16276   0.70321   0.76018   0.00000  Uiso   1.00
H1410  H     0.17057   0.96345   0.90648   0.00000  Uiso   1.00
H1411  H     0.16004   0.96185   0.76002   0.00000  Uiso   1.00
H1412  H     0.17330   0.70482   0.90665   0.00000  Uiso   1.00
N1413  N     0.16665   0.83332   0.95240   0.00000  Uiso   1.00
N1414  N     0.16668   0.83334   0.71427   0.00000  Uiso   1.00
O1415  O     0.16666   0.77225   0.87154   0.00000  Uiso   1.00
O1416  O     0.16667   0.89442   0.79513   0.00000  Uiso   1.00
O1417  O     0.16666   0.77226   0.79510   0.00000  Uiso   1.00
O1418  O     0.16667   0.89441   0.87157   0.00000  Uiso   1.00
O1419  O     0.09058   0.83333   0.86261   0.00000  Uiso   1.00
O1420  O     0.24275   0.83334   0.80405   0.00000  Uiso   1.00
O1421  O     0.09058   0.83334   0.78617   0.00000  Uiso   1.00
O1422  O     0.24275   0.83333   0.88050   0.00000  Uiso   1.00
Zn1423 Zn    0.16667   0.83333   0.88437   0.00000  Uiso   1.00
Zn1424 Zn    0.16667   0.83334   0.78229   0.00000  Uiso   1.00
C1425  C     0.32032   0.79662   0.77955   0.00000  Uiso   1.00
C1426  C     0.31125   0.80963   0.73434   0.00000  Uiso   1.00
C1427  C     0.28436   0.78263   0.70033   0.00000  Uiso   1.00
C1428  C     0.26752   0.74220   0.71106   0.00000  Uiso   1.00
C1429  C     0.27765   0.72868   0.75578   0.00000  Uiso   1.00
C1430  C     0.30355   0.75585   0.79004   0.00000  Uiso   1.00
H1431  H     0.32492   0.84060   0.72551   0.00000  Uiso   1.00
H1432  H     0.27707   0.79293   0.99894   0.00000  Uiso   1.00
H1433  H     0.24701   0.72124   0.68467   0.00000  Uiso   1.00
H1434  H     0.26525   0.69718   0.76394   0.00000  Uiso   1.00
H1435  H     0.31032   0.74528   0.82471   0.00000  Uiso   1.00
C1436  C     0.01301   0.87009   0.88707   0.00000  Uiso   1.00
C1437  C     0.02969   0.91087   0.87651   0.00000  Uiso   1.00
C1438  C     0.05559   0.93809   0.91072   0.00000  Uiso   1.00
C1439  C     0.06582   0.92462   0.95545   0.00000  Uiso   1.00
C1440  C     0.04907   0.88418   0.96625   0.00000  Uiso   1.00
C1441  C     0.02217   0.85713   0.93229   0.00000  Uiso   1.00
H1442  H     0.02284   0.92139   0.84183   0.00000  Uiso   1.00
H1443  H     0.06793   0.96959   0.90251   0.00000  Uiso   1.00
H1444  H     0.08633   0.94561   0.98180   0.00000  Uiso   1.00
H1445  H     0.05644   0.87391   0.66764   0.00000  Uiso   1.00
H1446  H     0.00857   0.82616   0.94118   0.00000  Uiso   1.00
I1447  I     0.24965   0.90649   0.73685   0.00000  Uiso   1.00
I1448  I     0.08368   0.76019   0.92981   0.00000  Uiso   1.00
I1449  I     0.24830   0.90661   0.95352   0.00000  Uiso   1.00
I1450  I     0.08505   0.76004   0.71315   0.00000  Uiso   1.00
C1451  C     0.50038   0.75343   0.83328   0.00000  Uiso   1.00
C1452  C     0.49962   0.91324   0.83338   0.00000  Uiso   1.00
C1453  C     0.40056   0.83274   0.82148   0.00000  Uiso   1.00
C1454  C     0.59944   0.83392   0.84519   0.00000  Uiso   1.00
C1455  C     0.34551   0.82637   0.81641   0.00000  Uiso   1.00
C1456  C     0.65448   0.84029   0.85026   0.00000  Uiso   1.00
C1457  C     0.49751   0.68752   0.79223   0.00000  Uiso   1.00
C1458  C     0.50250   0.97914   0.87444   0.00000  Uiso   1.00
C1459  C     0.49640   0.97825   0.79220   0.00000  Uiso   1.00
C1460  C     0.50360   0.68841   0.87447   0.00000  Uiso   1.00
C1461  C     0.49928   0.95744   0.83336   0.00000  Uiso   1.00
C1462  C     0.50073   0.70923   0.83330   0.00000  Uiso   1.00
C1463  C     0.53172   0.86175   0.69512   0.00000  Uiso   1.00
C1464  C     0.46828   0.80492   0.97154   0.00000  Uiso   1.00
C1465  C     0.53161   0.86171   0.98066   0.00000  Uiso   1.00
C1466  C     0.46839   0.80496   0.68601   0.00000  Uiso   1.00
H1467  H     0.49610   0.70321   0.76018   0.00000  Uiso   1.00
H1468  H     0.50391   0.96345   0.90648   0.00000  Uiso   1.00
H1469  H     0.49338   0.96185   0.76002   0.00000  Uiso   1.00
H1470  H     0.50663   0.70482   0.90665   0.00000  Uiso   1.00
N1471  N     0.49999   0.83332   0.95240   0.00000  Uiso   1.00
N1472  N     0.50001   0.83334   0.71427   0.00000  Uiso   1.00
O1473  O     0.50000   0.77225   0.87154   0.00000  Uiso   1.00
O1474  O     0.50000   0.89442   0.79513   0.00000  Uiso   1.00
O1475  O     0.50000   0.77226   0.79510   0.00000  Uiso   1.00
O1476  O     0.50000   0.89441   0.87157   0.00000  Uiso   1.00
O1477  O     0.42392   0.83333   0.86261   0.00000  Uiso   1.00
O1478  O     0.57608   0.83334   0.80405   0.00000  Uiso   1.00
O1479  O     0.42392   0.83334   0.78617   0.00000  Uiso   1.00
O1480  O     0.57608   0.83333   0.88050   0.00000  Uiso   1.00
Zn1481 Zn    0.50000   0.83333   0.88437   0.00000  Uiso   1.00
Zn1482 Zn    0.50000   0.83334   0.78229   0.00000  Uiso   1.00
C1483  C     0.65365   0.79662   0.77955   0.00000  Uiso   1.00
C1484  C     0.64458   0.80963   0.73434   0.00000  Uiso   1.00
C1485  C     0.61770   0.78263   0.70033   0.00000  Uiso   1.00
C1486  C     0.60085   0.74220   0.71106   0.00000  Uiso   1.00
C1487  C     0.61099   0.72868   0.75578   0.00000  Uiso   1.00
C1488  C     0.63688   0.75585   0.79004   0.00000  Uiso   1.00
H1489  H     0.65825   0.84060   0.72551   0.00000  Uiso   1.00
H1490  H     0.61040   0.79293   0.99894   0.00000  Uiso   1.00
H1491  H     0.58035   0.72124   0.68467   0.00000  Uiso   1.00
H1492  H     0.59858   0.69718   0.76394   0.00000  Uiso   1.00
H1493  H     0.64366   0.74528   0.82471   0.00000  Uiso   1.00
C1494  C     0.34634   0.87009   0.88707   0.00000  Uiso   1.00
C1495  C     0.36302   0.91087   0.87651   0.00000  Uiso   1.00
C1496  C     0.38892   0.93809   0.91072   0.00000  Uiso   1.00
C1497  C     0.39915   0.92462   0.95545   0.00000  Uiso   1.00
C1498  C     0.38240   0.88418   0.96625   0.00000  Uiso   1.00
C1499  C     0.35550   0.85713   0.93229   0.00000  Uiso   1.00
H1500  H     0.35617   0.92139   0.84183   0.00000  Uiso   1.00
H1501  H     0.40126   0.96959   0.90251   0.00000  Uiso   1.00
H1502  H     0.41966   0.94561   0.98180   0.00000  Uiso   1.00
H1503  H     0.38978   0.87391   0.66764   0.00000  Uiso   1.00
H1504  H     0.34191   0.82616   0.94118   0.00000  Uiso   1.00
I1505  I     0.58298   0.90649   0.73685   0.00000  Uiso   1.00
I1506  I     0.41701   0.76019   0.92981   0.00000  Uiso   1.00
I1507  I     0.58163   0.90661   0.95352   0.00000  Uiso   1.00
I1508  I     0.41839   0.76004   0.71315   0.00000  Uiso   1.00
C1509  C     0.83371   0.75343   0.83328   0.00000  Uiso   1.00
C1510  C     0.83296   0.91324   0.83338   0.00000  Uiso   1.00
C1511  C     0.73389   0.83274   0.82148   0.00000  Uiso   1.00
C1512  C     0.93278   0.83392   0.84519   0.00000  Uiso   1.00
C1513  C     0.67885   0.82637   0.81641   0.00000  Uiso   1.00
C1514  C     0.98782   0.84029   0.85026   0.00000  Uiso   1.00
C1515  C     0.83084   0.68752   0.79223   0.00000  Uiso   1.00
C1516  C     0.83583   0.97914   0.87444   0.00000  Uiso   1.00
C1517  C     0.82974   0.97825   0.79220   0.00000  Uiso   1.00
C1518  C     0.83694   0.68841   0.87447   0.00000  Uiso   1.00
C1519  C     0.83261   0.95744   0.83336   0.00000  Uiso   1.00
C1520  C     0.83406   0.70923   0.83330   0.00000  Uiso   1.00
C1521  C     0.86505   0.86175   0.69512   0.00000  Uiso   1.00
C1522  C     0.80161   0.80492   0.97154   0.00000  Uiso   1.00
C1523  C     0.86494   0.86171   0.98066   0.00000  Uiso   1.00
C1524  C     0.80172   0.80496   0.68601   0.00000  Uiso   1.00
H1525  H     0.82943   0.70321   0.76018   0.00000  Uiso   1.00
H1526  H     0.83724   0.96345   0.90648   0.00000  Uiso   1.00
H1527  H     0.82671   0.96185   0.76002   0.00000  Uiso   1.00
H1528  H     0.83997   0.70482   0.90665   0.00000  Uiso   1.00
N1529  N     0.83332   0.83332   0.95240   0.00000  Uiso   1.00
N1530  N     0.83335   0.83334   0.71427   0.00000  Uiso   1.00
O1531  O     0.83333   0.77225   0.87154   0.00000  Uiso   1.00
O1532  O     0.83334   0.89442   0.79513   0.00000  Uiso   1.00
O1533  O     0.83333   0.77226   0.79510   0.00000  Uiso   1.00
O1534  O     0.83334   0.89441   0.87157   0.00000  Uiso   1.00
O1535  O     0.75725   0.83333   0.86261   0.00000  Uiso   1.00
O1536  O     0.90942   0.83334   0.80405   0.00000  Uiso   1.00
O1537  O     0.75725   0.83334   0.78617   0.00000  Uiso   1.00
O1538  O     0.90942   0.83333   0.88050   0.00000  Uiso   1.00
Zn1539 Zn    0.83333   0.83333   0.88437   0.00000  Uiso   1.00
Zn1540 Zn    0.83333   0.83334   0.78229   0.00000  Uiso   1.00
C1541  C     0.98698   0.79662   0.77955   0.00000  Uiso   1.00
C1542  C     0.97792   0.80963   0.73434   0.00000  Uiso   1.00
C1543  C     0.95103   0.78263   0.70033   0.00000  Uiso   1.00
C1544  C     0.93418   0.74220   0.71106   0.00000  Uiso   1.00
C1545  C     0.94432   0.72868   0.75578   0.00000  Uiso   1.00
C1546  C     0.97021   0.75585   0.79004   0.00000  Uiso   1.00
H1547  H     0.99158   0.84060   0.72551   0.00000  Uiso   1.00
H1548  H     0.94373   0.79293   0.99894   0.00000  Uiso   1.00
H1549  H     0.91368   0.72124   0.68467   0.00000  Uiso   1.00
H1550  H     0.93192   0.69718   0.76394   0.00000  Uiso   1.00
H1551  H     0.97699   0.74528   0.82471   0.00000  Uiso   1.00
C1552  C     0.67967   0.87009   0.88707   0.00000  Uiso   1.00
C1553  C     0.69635   0.91087   0.87651   0.00000  Uiso   1.00
C1554  C     0.72225   0.93809   0.91072   0.00000  Uiso   1.00
C1555  C     0.73248   0.92462   0.95545   0.00000  Uiso   1.00
C1556  C     0.71573   0.88418   0.96625   0.00000  Uiso   1.00
C1557  C     0.68884   0.85713   0.93229   0.00000  Uiso   1.00
H1558  H     0.68951   0.92139   0.84183   0.00000  Uiso   1.00
H1559  H     0.73459   0.96959   0.90251   0.00000  Uiso   1.00
H1560  H     0.75300   0.94561   0.98180   0.00000  Uiso   1.00
H1561  H     0.72311   0.87391   0.66764   0.00000  Uiso   1.00
H1562  H     0.67524   0.82616   0.94118   0.00000  Uiso   1.00
I1563  I     0.91631   0.90649   0.73685   0.00000  Uiso   1.00
I1564  I     0.75034   0.76019   0.92981   0.00000  Uiso   1.00
I1565  I     0.91496   0.90661   0.95352   0.00000  Uiso   1.00
I1566  I     0.75172   0.76004   0.71315   0.00000  Uiso   1.00
loop_
_geom_bond_atom_site_label_1
_geom_bond_atom_site_label_2
_geom_bond_distance
_geom_bond_site_symmetry_2
_ccdc_geom_bond_type
C1     O25     1.293   .     A
C1     C12     1.421   .     S
C1     O23     1.291   .     A
C2     O26     1.293   .     A
C2     O24     1.291   .     A
C2     C11     1.421   .     S
C3     C5      1.418   .     S
C3     O27     1.282   .     A
C3     O29     1.297   .     A
C4     O30     1.297   .     A
C4     O28     1.282   .     A
C4     C6      1.418   .     S
C5     C122    1.364   1_455 S
C5     C149    1.493   1_455 S
C6     C63     1.364   .     S
C6     C102    1.493   .     S
C7     C12     1.396   .     A
C7     H17     1.081   .     S
C7     C357    1.368   1_545 S
C8     C11     1.396   .     A
C8     H18     1.081   .     S
C8     C184    1.368   .     S
C9     C11     1.397   .     A
C9     H19     1.083   .     S
C9     C181    1.368   .     S
C10    C12     1.397   .     A
C10    H20     1.083   .     S
C10    C356    1.368   1_545 S
C13    N22     1.375   .     A
C13    I55     2.143   .     S
C13    C1059   1.427   1_554 S
C14    I56     2.143   .     S
C14    N21     1.375   .     A
C14    C538    1.427   .     S
C15    I57     2.126   .     S
C15    N21     1.375   .     A
C15    C535    1.427   .     S
C16    I58     2.126   .     S
C16    N22     1.375   .     A
C16    C1058   1.427   1_554 S
N21    Zn31    2.032   .     S
N22    Zn32    2.032   .     S
O23    Zn31    1.998   .     S
O24    Zn32    1.998   .     S
O25    Zn32    2.002   .     S
O26    Zn31    2.002   .     S
O27    Zn31    1.987   .     S
O28    Zn32    1.987   .     S
O29    Zn32    2.003   .     S
O30    Zn31    2.003   .     S
C33    C34     1.405   .     A
C33    C38     1.405   .     A
C33    C63     1.493   .     S
C34    H39     1.082   .     S
C34    C35     1.399   .     A
C35    C36     1.398   .     A
C35    H1084   1.083   1_554 S
C36    H41     1.082   .     S
C36    C37     1.398   .     A
C37    C38     1.398   .     A
C37    H42     1.082   .     S
C38    H43     1.083   .     S
H40    C557    1.083   .     S
C44    C49     1.405   .     A
C44    C45     1.405   .     A
C44    C122    1.493   1_455 S
C45    C46     1.398   .     A
C45    H50     1.083   .     S
C46    C47     1.398   .     A
C46    H51     1.082   .     S
C47    H52     1.082   .     S
C47    C48     1.398   .     A
C48    C49     1.399   .     A
C48    H575    1.083   .     S
C49    H54     1.082   .     S
H53    C1092   1.083   1_554 S
C59    O83     1.293   .     A
C59    C70     1.421   .     S
C59    O81     1.291   .     A
C60    O84     1.293   .     A
C60    O82     1.291   .     A
C60    C69     1.421   .     S
C61    C63     1.418   .     S
C61    O85     1.282   .     A
C61    O87     1.297   .     A
C62    O88     1.297   .     A
C62    O86     1.282   .     A
C62    C64     1.418   .     S
C64    C121    1.364   .     S
C64    C160    1.493   .     S
C65    C70     1.396   .     A
C65    H75     1.081   .     S
C65    C415    1.368   1_545 S
C66    C69     1.396   .     A
C66    H76     1.081   .     S
C66    C242    1.368   .     S
C67    C69     1.397   .     A
C67    H77     1.083   .     S
C67    C239    1.368   .     S
C68    C70     1.397   .     A
C68    H78     1.083   .     S
C68    C414    1.368   1_545 S
C71    N80     1.375   .     A
C71    I113    2.143   .     S
C71    C1117   1.427   1_554 S
C72    I114    2.143   .     S
C72    N79     1.375   .     A
C72    C596    1.427   .     S
C73    I115    2.126   .     S
C73    N79     1.375   .     A
C73    C593    1.427   .     S
C74    I116    2.126   .     S
C74    N80     1.375   .     A
C74    C1116   1.427   1_554 S
N79    Zn89    2.032   .     S
N80    Zn90    2.032   .     S
O81    Zn89    1.998   .     S
O82    Zn90    1.998   .     S
O83    Zn90    2.002   .     S
O84    Zn89    2.002   .     S
O85    Zn89    1.987   .     S
O86    Zn90    1.987   .     S
O87    Zn90    2.003   .     S
O88    Zn89    2.003   .     S
C91    C92     1.405   .     A
C91    C96     1.405   .     A
C91    C121    1.493   .     S
C92    H97     1.082   .     S
C92    C93     1.399   .     A
C93    C94     1.398   .     A
C93    H1142   1.083   1_554 S
C94    H99     1.082   .     S
C94    C95     1.398   .     A
C95    C96     1.398   .     A
C95    H100    1.082   .     S
C96    H101    1.083   .     S
H98    C615    1.083   .     S
C102   C107    1.405   .     A
C102   C103    1.405   .     A
C103   C104    1.398   .     A
C103   H108    1.083   .     S
C104   C105    1.398   .     A
C104   H109    1.082   .     S
C105   H110    1.082   .     S
C105   C106    1.398   .     A
C106   C107    1.399   .     A
C106   H633    1.083   .     S
C107   H112    1.082   .     S
H111   C1150   1.083   1_554 S
C117   O141    1.293   .     A
C117   C128    1.421   .     S
C117   O139    1.291   .     A
C118   O142    1.293   .     A
C118   O140    1.291   .     A
C118   C127    1.421   .     S
C119   C121    1.418   .     S
C119   O143    1.282   .     A
C119   O145    1.297   .     A
C120   O146    1.297   .     A
C120   O144    1.282   .     A
C120   C122    1.418   .     S
C122   C5      1.364   1_655 S
C122   C44     1.493   1_655 S
C123   C128    1.396   .     A
C123   H133    1.081   .     S
C123   C473    1.368   1_545 S
C124   C127    1.396   .     A
C124   H134    1.081   .     S
C124   C300    1.368   .     S
C125   C127    1.397   .     A
C125   H135    1.083   .     S
C125   C297    1.368   .     S
C126   C128    1.397   .     A
C126   H136    1.083   .     S
C126   C472    1.368   1_545 S
C129   N138    1.375   .     A
C129   I171    2.143   .     S
C129   C1175   1.427   1_554 S
C130   I172    2.143   .     S
C130   N137    1.375   .     A
C130   C654    1.427   .     S
C131   I173    2.126   .     S
C131   N137    1.375   .     A
C131   C651    1.427   .     S
C132   I174    2.126   .     S
C132   N138    1.375   .     A
C132   C1174   1.427   1_554 S
N137   Zn147   2.032   .     S
N138   Zn148   2.032   .     S
O139   Zn147   1.998   .     S
O140   Zn148   1.998   .     S
O141   Zn148   2.002   .     S
O142   Zn147   2.002   .     S
O143   Zn147   1.987   .     S
O144   Zn148   1.987   .     S
O145   Zn148   2.003   .     S
O146   Zn147   2.003   .     S
C149   C150    1.405   .     A
C149   C154    1.405   .     A
C149   C5      1.493   1_655 S
C150   H155    1.082   .     S
C150   C151    1.399   .     A
C151   C152    1.398   .     A
C151   H1200   1.083   1_554 S
C152   H157    1.082   .     S
C152   C153    1.398   .     A
C153   C154    1.398   .     A
C153   H158    1.082   .     S
C154   H159    1.083   .     S
H156   C673    1.083   .     S
C160   C165    1.405   .     A
C160   C161    1.405   .     A
C161   C162    1.398   .     A
C161   H166    1.083   .     S
C162   C163    1.398   .     A
C162   H167    1.082   .     S
C163   H168    1.082   .     S
C163   C164    1.398   .     A
C164   C165    1.399   .     A
C164   H691    1.083   .     S
C165   H170    1.082   .     S
H169   C1208   1.083   1_554 S
C175   O199    1.293   .     A
C175   C186    1.421   .     S
C175   O197    1.291   .     A
C176   O200    1.293   .     A
C176   O198    1.291   .     A
C176   C185    1.421   .     S
C177   C179    1.418   .     S
C177   O201    1.282   .     A
C177   O203    1.297   .     A
C178   O204    1.297   .     A
C178   O202    1.282   .     A
C178   C180    1.418   .     S
C179   C296    1.364   1_455 S
C179   C323    1.493   1_455 S
C180   C237    1.364   .     S
C180   C276    1.493   .     S
C181   C186    1.396   .     A
C181   H191    1.081   .     S
C182   C185    1.396   .     A
C182   H192    1.081   .     S
C182   C358    1.368   .     S
C183   C185    1.397   .     A
C183   H193    1.083   .     S
C183   C355    1.368   .     S
C184   C186    1.397   .     A
C184   H194    1.083   .     S
C187   N196    1.375   .     A
C187   I229    2.143   .     S
C187   C1233   1.427   1_554 S
C188   I230    2.143   .     S
C188   N195    1.375   .     A
C188   C712    1.427   .     S
C189   I231    2.126   .     S
C189   N195    1.375   .     A
C189   C709    1.427   .     S
C190   I232    2.126   .     S
C190   N196    1.375   .     A
C190   C1232   1.427   1_554 S
N195   Zn205   2.032   .     S
N196   Zn206   2.032   .     S
O197   Zn205   1.998   .     S
O198   Zn206   1.998   .     S
O199   Zn206   2.002   .     S
O200   Zn205   2.002   .     S
O201   Zn205   1.987   .     S
O202   Zn206   1.987   .     S
O203   Zn206   2.003   .     S
O204   Zn205   2.003   .     S
C207   C208    1.405   .     A
C207   C212    1.405   .     A
C207   C237    1.493   .     S
C208   H213    1.082   .     S
C208   C209    1.399   .     A
C209   C210    1.398   .     A
C209   H1258   1.083   1_554 S
C210   H215    1.082   .     S
C210   C211    1.398   .     A
C211   C212    1.398   .     A
C211   H216    1.082   .     S
C212   H217    1.083   .     S
H214   C731    1.083   .     S
C218   C223    1.405   .     A
C218   C219    1.405   .     A
C218   C296    1.493   1_455 S
C219   C220    1.398   .     A
C219   H224    1.083   .     S
C220   C221    1.398   .     A
C220   H225    1.082   .     S
C221   H226    1.082   .     S
C221   C222    1.398   .     A
C222   C223    1.399   .     A
C222   H749    1.083   .     S
C223   H228    1.082   .     S
H227   C1266   1.083   1_554 S
C233   O257    1.293   .     A
C233   C244    1.421   .     S
C233   O255    1.291   .     A
C234   O258    1.293   .     A
C234   O256    1.291   .     A
C234   C243    1.421   .     S
C235   C237    1.418   .     S
C235   O259    1.282   .     A
C235   O261    1.297   .     A
C236   O262    1.297   .     A
C236   O260    1.282   .     A
C236   C238    1.418   .     S
C238   C295    1.364   .     S
C238   C334    1.493   .     S
C239   C244    1.396   .     A
C239   H249    1.081   .     S
C240   C243    1.396   .     A
C240   H250    1.081   .     S
C240   C416    1.368   .     S
C241   C243    1.397   .     A
C241   H251    1.083   .     S
C241   C413    1.368   .     S
C242   C244    1.397   .     A
C242   H252    1.083   .     S
C245   N254    1.375   .     A
C245   I287    2.143   .     S
C245   C1291   1.427   1_554 S
C246   I288    2.143   .     S
C246   N253    1.375   .     A
C246   C770    1.427   .     S
C247   I289    2.126   .     S
C247   N253    1.375   .     A
C247   C767    1.427   .     S
C248   I290    2.126   .     S
C248   N254    1.375   .     A
C248   C1290   1.427   1_554 S
N253   Zn263   2.032   .     S
N254   Zn264   2.032   .     S
O255   Zn263   1.998   .     S
O256   Zn264   1.998   .     S
O257   Zn264   2.002   .     S
O258   Zn263   2.002   .     S
O259   Zn263   1.987   .     S
O260   Zn264   1.987   .     S
O261   Zn264   2.003   .     S
O262   Zn263   2.003   .     S
C265   C266    1.405   .     A
C265   C270    1.405   .     A
C265   C295    1.493   .     S
C266   H271    1.082   .     S
C266   C267    1.399   .     A
C267   C268    1.398   .     A
C267   H1316   1.083   1_554 S
C268   H273    1.082   .     S
C268   C269    1.398   .     A
C269   C270    1.398   .     A
C269   H274    1.082   .     S
C270   H275    1.083   .     S
H272   C789    1.083   .     S
C276   C281    1.405   .     A
C276   C277    1.405   .     A
C277   C278    1.398   .     A
C277   H282    1.083   .     S
C278   C279    1.398   .     A
C278   H283    1.082   .     S
C279   H284    1.082   .     S
C279   C280    1.398   .     A
C280   C281    1.399   .     A
C280   H807    1.083   .     S
C281   H286    1.082   .     S
H285   C1324   1.083   1_554 S
C291   O315    1.293   .     A
C291   C302    1.421   .     S
C291   O313    1.291   .     A
C292   O316    1.293   .     A
C292   O314    1.291   .     A
C292   C301    1.421   .     S
C293   C295    1.418   .     S
C293   O317    1.282   .     A
C293   O319    1.297   .     A
C294   O320    1.297   .     A
C294   O318    1.282   .     A
C294   C296    1.418   .     S
C296   C179    1.364   1_655 S
C296   C218    1.493   1_655 S
C297   C302    1.396   .     A
C297   H307    1.081   .     S
C298   C301    1.396   .     A
C298   H308    1.081   .     S
C298   C474    1.368   .     S
C299   C301    1.397   .     A
C299   H309    1.083   .     S
C299   C471    1.368   .     S
C300   C302    1.397   .     A
C300   H310    1.083   .     S
C303   N312    1.375   .     A
C303   I345    2.143   .     S
C303   C1349   1.427   1_554 S
C304   I346    2.143   .     S
C304   N311    1.375   .     A
C304   C828    1.427   .     S
C305   I347    2.126   .     S
C305   N311    1.375   .     A
C305   C825    1.427   .     S
C306   I348    2.126   .     S
C306   N312    1.375   .     A
C306   C1348   1.427   1_554 S
N311   Zn321   2.032   .     S
N312   Zn322   2.032   .     S
O313   Zn321   1.998   .     S
O314   Zn322   1.998   .     S
O315   Zn322   2.002   .     S
O316   Zn321   2.002   .     S
O317   Zn321   1.987   .     S
O318   Zn322   1.987   .     S
O319   Zn322   2.003   .     S
O320   Zn321   2.003   .     S
C323   C324    1.405   .     A
C323   C328    1.405   .     A
C323   C179    1.493   1_655 S
C324   H329    1.082   .     S
C324   C325    1.399   .     A
C325   C326    1.398   .     A
C325   H1374   1.083   1_554 S
C326   H331    1.082   .     S
C326   C327    1.398   .     A
C327   C328    1.398   .     A
C327   H332    1.082   .     S
C328   H333    1.083   .     S
H330   C847    1.083   .     S
C334   C339    1.405   .     A
C334   C335    1.405   .     A
C335   C336    1.398   .     A
C335   H340    1.083   .     S
C336   C337    1.398   .     A
C336   H341    1.082   .     S
C337   H342    1.082   .     S
C337   C338    1.398   .     A
C338   C339    1.399   .     A
C338   H865    1.083   .     S
C339   H344    1.082   .     S
H343   C1382   1.083   1_554 S
C349   O373    1.293   .     A
C349   C360    1.421   .     S
C349   O371    1.291   .     A
C350   O374    1.293   .     A
C350   O372    1.291   .     A
C350   C359    1.421   .     S
C351   C353    1.418   .     S
C351   O375    1.282   .     A
C351   O377    1.297   .     A
C352   O378    1.297   .     A
C352   O376    1.282   .     A
C352   C354    1.418   .     S
C353   C470    1.364   1_455 S
C353   C497    1.493   1_455 S
C354   C411    1.364   .     S
C354   C450    1.493   .     S
C355   C360    1.396   .     A
C355   H365    1.081   .     S
C356   C359    1.396   .     A
C356   H366    1.081   .     S
C356   C10     1.368   1_565 S
C357   C359    1.397   .     A
C357   H367    1.083   .     S
C357   C7      1.368   1_565 S
C358   C360    1.397   .     A
C358   H368    1.083   .     S
C361   N370    1.375   .     A
C361   I403    2.143   .     S
C361   C1407   1.427   1_554 S
C362   I404    2.143   .     S
C362   N369    1.375   .     A
C362   C886    1.427   .     S
C363   I405    2.126   .     S
C363   N369    1.375   .     A
C363   C883    1.427   .     S
C364   I406    2.126   .     S
C364   N370    1.375   .     A
C364   C1406   1.427   1_554 S
N369   Zn379   2.032   .     S
N370   Zn380   2.032   .     S
O371   Zn379   1.998   .     S
O372   Zn380   1.998   .     S
O373   Zn380   2.002   .     S
O374   Zn379   2.002   .     S
O375   Zn379   1.987   .     S
O376   Zn380   1.987   .     S
O377   Zn380   2.003   .     S
O378   Zn379   2.003   .     S
C381   C382    1.405   .     A
C381   C386    1.405   .     A
C381   C411    1.493   .     S
C382   H387    1.082   .     S
C382   C383    1.399   .     A
C383   C384    1.398   .     A
C383   H1432   1.083   1_554 S
C384   H389    1.082   .     S
C384   C385    1.398   .     A
C385   C386    1.398   .     A
C385   H390    1.082   .     S
C386   H391    1.083   .     S
H388   C905    1.083   .     S
C392   C397    1.405   .     A
C392   C393    1.405   .     A
C392   C470    1.493   1_455 S
C393   C394    1.398   .     A
C393   H398    1.083   .     S
C394   C395    1.398   .     A
C394   H399    1.082   .     S
C395   H400    1.082   .     S
C395   C396    1.398   .     A
C396   C397    1.399   .     A
C396   H923    1.083   .     S
C397   H402    1.082   .     S
H401   C1440   1.083   1_554 S
C407   O431    1.293   .     A
C407   C418    1.421   .     S
C407   O429    1.291   .     A
C408   O432    1.293   .     A
C408   O430    1.291   .     A
C408   C417    1.421   .     S
C409   C411    1.418   .     S
C409   O433    1.282   .     A
C409   O435    1.297   .     A
C410   O436    1.297   .     A
C410   O434    1.282   .     A
C410   C412    1.418   .     S
C412   C469    1.364   .     S
C412   C508    1.493   .     S
C413   C418    1.396   .     A
C413   H423    1.081   .     S
C414   C417    1.396   .     A
C414   H424    1.081   .     S
C414   C68     1.368   1_565 S
C415   C417    1.397   .     A
C415   H425    1.083   .     S
C415   C65     1.368   1_565 S
C416   C418    1.397   .     A
C416   H426    1.083   .     S
C419   N428    1.375   .     A
C419   I461    2.143   .     S
C419   C1465   1.427   1_554 S
C420   I462    2.143   .     S
C420   N427    1.375   .     A
C420   C944    1.427   .     S
C421   I463    2.126   .     S
C421   N427    1.375   .     A
C421   C941    1.427   .     S
C422   I464    2.126   .     S
C422   N428    1.375   .     A
C422   C1464   1.427   1_554 S
N427   Zn437   2.032   .     S
N428   Zn438   2.032   .     S
O429   Zn437   1.998   .     S
O430   Zn438   1.998   .     S
O431   Zn438   2.002   .     S
O432   Zn437   2.002   .     S
O433   Zn437   1.987   .     S
O434   Zn438   1.987   .     S
O435   Zn438   2.003   .     S
O436   Zn437   2.003   .     S
C439   C440    1.405   .     A
C439   C444    1.405   .     A
C439   C469    1.493   .     S
C440   H445    1.082   .     S
C440   C441    1.399   .     A
C441   C442    1.398   .     A
C441   H1490   1.083   1_554 S
C442   H447    1.082   .     S
C442   C443    1.398   .     A
C443   C444    1.398   .     A
C443   H448    1.082   .     S
C444   H449    1.083   .     S
H446   C963    1.083   .     S
C450   C455    1.405   .     A
C450   C451    1.405   .     A
C451   C452    1.398   .     A
C451   H456    1.083   .     S
C452   C453    1.398   .     A
C452   H457    1.082   .     S
C453   H458    1.082   .     S
C453   C454    1.398   .     A
C454   C455    1.399   .     A
C454   H981    1.083   .     S
C455   H460    1.082   .     S
H459   C1498   1.083   1_554 S
C465   O489    1.293   .     A
C465   C476    1.421   .     S
C465   O487    1.291   .     A
C466   O490    1.293   .     A
C466   O488    1.291   .     A
C466   C475    1.421   .     S
C467   C469    1.418   .     S
C467   O491    1.282   .     A
C467   O493    1.297   .     A
C468   O494    1.297   .     A
C468   O492    1.282   .     A
C468   C470    1.418   .     S
C470   C353    1.364   1_655 S
C470   C392    1.493   1_655 S
C471   C476    1.396   .     A
C471   H481    1.081   .     S
C472   C475    1.396   .     A
C472   H482    1.081   .     S
C472   C126    1.368   1_565 S
C473   C475    1.397   .     A
C473   H483    1.083   .     S
C473   C123    1.368   1_565 S
C474   C476    1.397   .     A
C474   H484    1.083   .     S
C477   N486    1.375   .     A
C477   I519    2.143   .     S
C477   C1523   1.427   1_554 S
C478   I520    2.143   .     S
C478   N485    1.375   .     A
C478   C1002   1.427   .     S
C479   I521    2.126   .     S
C479   N485    1.375   .     A
C479   C999    1.427   .     S
C480   I522    2.126   .     S
C480   N486    1.375   .     A
C480   C1522   1.427   1_554 S
N485   Zn495   2.032   .     S
N486   Zn496   2.032   .     S
O487   Zn495   1.998   .     S
O488   Zn496   1.998   .     S
O489   Zn496   2.002   .     S
O490   Zn495   2.002   .     S
O491   Zn495   1.987   .     S
O492   Zn496   1.987   .     S
O493   Zn496   2.003   .     S
O494   Zn495   2.003   .     S
C497   C498    1.405   .     A
C497   C502    1.405   .     A
C497   C353    1.493   1_655 S
C498   H503    1.082   .     S
C498   C499    1.399   .     A
C499   C500    1.398   .     A
C499   H1548   1.083   1_554 S
C500   H505    1.082   .     S
C500   C501    1.398   .     A
C501   C502    1.398   .     A
C501   H506    1.082   .     S
C502   H507    1.083   .     S
H504   C1021   1.083   .     S
C508   C513    1.405   .     A
C508   C509    1.405   .     A
C509   C510    1.398   .     A
C509   H514    1.083   .     S
C510   C511    1.398   .     A
C510   H515    1.082   .     S
C511   H516    1.082   .     S
C511   C512    1.398   .     A
C512   C513    1.399   .     A
C512   H1039   1.083   .     S
C513   H518    1.082   .     S
H517   C1556   1.083   1_554 S
C523   O547    1.293   .     A
C523   C534    1.421   .     S
C523   O545    1.291   .     A
C524   O548    1.293   .     A
C524   O546    1.291   .     A
C524   C533    1.421   .     S
C525   C527    1.418   .     S
C525   O549    1.282   .     A
C525   O551    1.297   .     A
C526   O552    1.297   .     A
C526   O550    1.282   .     A
C526   C528    1.418   .     S
C527   C644    1.364   1_455 S
C527   C671    1.493   1_455 S
C528   C585    1.364   .     S
C528   C624    1.493   .     S
C529   C534    1.396   .     A
C529   H539    1.081   .     S
C529   C879    1.368   1_545 S
C530   C533    1.396   .     A
C530   H540    1.081   .     S
C530   C706    1.368   .     S
C531   C533    1.397   .     A
C531   H541    1.083   .     S
C531   C703    1.368   .     S
C532   C534    1.397   .     A
C532   H542    1.083   .     S
C532   C878    1.368   1_545 S
C535   N544    1.375   .     A
C535   I577    2.143   .     S
C536   I578    2.143   .     S
C536   N543    1.375   .     A
C536   C1060   1.427   .     S
C537   I579    2.126   .     S
C537   N543    1.375   .     A
C537   C1057   1.427   .     S
C538   I580    2.126   .     S
C538   N544    1.375   .     A
N543   Zn553   2.032   .     S
N544   Zn554   2.032   .     S
O545   Zn553   1.998   .     S
O546   Zn554   1.998   .     S
O547   Zn554   2.002   .     S
O548   Zn553   2.002   .     S
O549   Zn553   1.987   .     S
O550   Zn554   1.987   .     S
O551   Zn554   2.003   .     S
O552   Zn553   2.003   .     S
C555   C556    1.405   .     A
C555   C560    1.405   .     A
C555   C585    1.493   .     S
C556   H561    1.082   .     S
C556   C557    1.399   .     A
C557   C558    1.398   .     A
C558   H563    1.082   .     S
C558   C559    1.398   .     A
C559   C560    1.398   .     A
C559   H564    1.082   .     S
C560   H565    1.083   .     S
H562   C1079   1.083   .     S
C566   C571    1.405   .     A
C566   C567    1.405   .     A
C566   C644    1.493   1_455 S
C567   C568    1.398   .     A
C567   H572    1.083   .     S
C568   C569    1.398   .     A
C568   H573    1.082   .     S
C569   H574    1.082   .     S
C569   C570    1.398   .     A
C570   C571    1.399   .     A
C570   H1097   1.083   .     S
C571   H576    1.082   .     S
C581   O605    1.293   .     A
C581   C592    1.421   .     S
C581   O603    1.291   .     A
C582   O606    1.293   .     A
C582   O604    1.291   .     A
C582   C591    1.421   .     S
C583   C585    1.418   .     S
C583   O607    1.282   .     A
C583   O609    1.297   .     A
C584   O610    1.297   .     A
C584   O608    1.282   .     A
C584   C586    1.418   .     S
C586   C643    1.364   .     S
C586   C682    1.493   .     S
C587   C592    1.396   .     A
C587   H597    1.081   .     S
C587   C937    1.368   1_545 S
C588   C591    1.396   .     A
C588   H598    1.081   .     S
C588   C764    1.368   .     S
C589   C591    1.397   .     A
C589   H599    1.083   .     S
C589   C761    1.368   .     S
C590   C592    1.397   .     A
C590   H600    1.083   .     S
C590   C936    1.368   1_545 S
C593   N602    1.375   .     A
C593   I635    2.143   .     S
C594   I636    2.143   .     S
C594   N601    1.375   .     A
C594   C1118   1.427   .     S
C595   I637    2.126   .     S
C595   N601    1.375   .     A
C595   C1115   1.427   .     S
C596   I638    2.126   .     S
C596   N602    1.375   .     A
N601   Zn611   2.032   .     S
N602   Zn612   2.032   .     S
O603   Zn611   1.998   .     S
O604   Zn612   1.998   .     S
O605   Zn612   2.002   .     S
O606   Zn611   2.002   .     S
O607   Zn611   1.987   .     S
O608   Zn612   1.987   .     S
O609   Zn612   2.003   .     S
O610   Zn611   2.003   .     S
C613   C614    1.405   .     A
C613   C618    1.405   .     A
C613   C643    1.493   .     S
C614   H619    1.082   .     S
C614   C615    1.399   .     A
C615   C616    1.398   .     A
C616   H621    1.082   .     S
C616   C617    1.398   .     A
C617   C618    1.398   .     A
C617   H622    1.082   .     S
C618   H623    1.083   .     S
H620   C1137   1.083   .     S
C624   C629    1.405   .     A
C624   C625    1.405   .     A
C625   C626    1.398   .     A
C625   H630    1.083   .     S
C626   C627    1.398   .     A
C626   H631    1.082   .     S
C627   H632    1.082   .     S
C627   C628    1.398   .     A
C628   C629    1.399   .     A
C628   H1155   1.083   .     S
C629   H634    1.082   .     S
C639   O663    1.293   .     A
C639   C650    1.421   .     S
C639   O661    1.291   .     A
C640   O664    1.293   .     A
C640   O662    1.291   .     A
C640   C649    1.421   .     S
C641   C643    1.418   .     S
C641   O665    1.282   .     A
C641   O667    1.297   .     A
C642   O668    1.297   .     A
C642   O666    1.282   .     A
C642   C644    1.418   .     S
C644   C527    1.364   1_655 S
C644   C566    1.493   1_655 S
C645   C650    1.396   .     A
C645   H655    1.081   .     S
C645   C995    1.368   1_545 S
C646   C649    1.396   .     A
C646   H656    1.081   .     S
C646   C822    1.368   .     S
C647   C649    1.397   .     A
C647   H657    1.083   .     S
C647   C819    1.368   .     S
C648   C650    1.397   .     A
C648   H658    1.083   .     S
C648   C994    1.368   1_545 S
C651   N660    1.375   .     A
C651   I693    2.143   .     S
C652   I694    2.143   .     S
C652   N659    1.375   .     A
C652   C1176   1.427   .     S
C653   I695    2.126   .     S
C653   N659    1.375   .     A
C653   C1173   1.427   .     S
C654   I696    2.126   .     S
C654   N660    1.375   .     A
N659   Zn669   2.032   .     S
N660   Zn670   2.032   .     S
O661   Zn669   1.998   .     S
O662   Zn670   1.998   .     S
O663   Zn670   2.002   .     S
O664   Zn669   2.002   .     S
O665   Zn669   1.987   .     S
O666   Zn670   1.987   .     S
O667   Zn670   2.003   .     S
O668   Zn669   2.003   .     S
C671   C672    1.405   .     A
C671   C676    1.405   .     A
C671   C527    1.493   1_655 S
C672   H677    1.082   .     S
C672   C673    1.399   .     A
C673   C674    1.398   .     A
C674   H679    1.082   .     S
C674   C675    1.398   .     A
C675   C676    1.398   .     A
C675   H680    1.082   .     S
C676   H681    1.083   .     S
H678   C1195   1.083   .     S
C682   C687    1.405   .     A
C682   C683    1.405   .     A
C683   C684    1.398   .     A
C683   H688    1.083   .     S
C684   C685    1.398   .     A
C684   H689    1.082   .     S
C685   H690    1.082   .     S
C685   C686    1.398   .     A
C686   C687    1.399   .     A
C686   H1213   1.083   .     S
C687   H692    1.082   .     S
C697   O721    1.293   .     A
C697   C708    1.421   .     S
C697   O719    1.291   .     A
C698   O722    1.293   .     A
C698   O720    1.291   .     A
C698   C707    1.421   .     S
C699   C701    1.418   .     S
C699   O723    1.282   .     A
C699   O725    1.297   .     A
C700   O726    1.297   .     A
C700   O724    1.282   .     A
C700   C702    1.418   .     S
C701   C818    1.364   1_455 S
C701   C845    1.493   1_455 S
C702   C759    1.364   .     S
C702   C798    1.493   .     S
C703   C708    1.396   .     A
C703   H713    1.081   .     S
C704   C707    1.396   .     A
C704   H714    1.081   .     S
C704   C880    1.368   .     S
C705   C707    1.397   .     A
C705   H715    1.083   .     S
C705   C877    1.368   .     S
C706   C708    1.397   .     A
C706   H716    1.083   .     S
C709   N718    1.375   .     A
C709   I751    2.143   .     S
C710   I752    2.143   .     S
C710   N717    1.375   .     A
C710   C1234   1.427   .     S
C711   I753    2.126   .     S
C711   N717    1.375   .     A
C711   C1231   1.427   .     S
C712   I754    2.126   .     S
C712   N718    1.375   .     A
N717   Zn727   2.032   .     S
N718   Zn728   2.032   .     S
O719   Zn727   1.998   .     S
O720   Zn728   1.998   .     S
O721   Zn728   2.002   .     S
O722   Zn727   2.002   .     S
O723   Zn727   1.987   .     S
O724   Zn728   1.987   .     S
O725   Zn728   2.003   .     S
O726   Zn727   2.003   .     S
C729   C730    1.405   .     A
C729   C734    1.405   .     A
C729   C759    1.493   .     S
C730   H735    1.082   .     S
C730   C731    1.399   .     A
C731   C732    1.398   .     A
C732   H737    1.082   .     S
C732   C733    1.398   .     A
C733   C734    1.398   .     A
C733   H738    1.082   .     S
C734   H739    1.083   .     S
H736   C1253   1.083   .     S
C740   C745    1.405   .     A
C740   C741    1.405   .     A
C740   C818    1.493   1_455 S
C741   C742    1.398   .     A
C741   H746    1.083   .     S
C742   C743    1.398   .     A
C742   H747    1.082   .     S
C743   H748    1.082   .     S
C743   C744    1.398   .     A
C744   C745    1.399   .     A
C744   H1271   1.083   .     S
C745   H750    1.082   .     S
C755   O779    1.293   .     A
C755   C766    1.421   .     S
C755   O777    1.291   .     A
C756   O780    1.293   .     A
C756   O778    1.291   .     A
C756   C765    1.421   .     S
C757   C759    1.418   .     S
C757   O781    1.282   .     A
C757   O783    1.297   .     A
C758   O784    1.297   .     A
C758   O782    1.282   .     A
C758   C760    1.418   .     S
C760   C817    1.364   .     S
C760   C856    1.493   .     S
C761   C766    1.396   .     A
C761   H771    1.081   .     S
C762   C765    1.396   .     A
C762   H772    1.081   .     S
C762   C938    1.368   .     S
C763   C765    1.397   .     A
C763   H773    1.083   .     S
C763   C935    1.368   .     S
C764   C766    1.397   .     A
C764   H774    1.083   .     S
C767   N776    1.375   .     A
C767   I809    2.143   .     S
C768   I810    2.143   .     S
C768   N775    1.375   .     A
C768   C1292   1.427   .     S
C769   I811    2.126   .     S
C769   N775    1.375   .     A
C769   C1289   1.427   .     S
C770   I812    2.126   .     S
C770   N776    1.375   .     A
N775   Zn785   2.032   .     S
N776   Zn786   2.032   .     S
O777   Zn785   1.998   .     S
O778   Zn786   1.998   .     S
O779   Zn786   2.002   .     S
O780   Zn785   2.002   .     S
O781   Zn785   1.987   .     S
O782   Zn786   1.987   .     S
O783   Zn786   2.003   .     S
O784   Zn785   2.003   .     S
C787   C788    1.405   .     A
C787   C792    1.405   .     A
C787   C817    1.493   .     S
C788   H793    1.082   .     S
C788   C789    1.399   .     A
C789   C790    1.398   .     A
C790   H795    1.082   .     S
C790   C791    1.398   .     A
C791   C792    1.398   .     A
C791   H796    1.082   .     S
C792   H797    1.083   .     S
H794   C1311   1.083   .     S
C798   C803    1.405   .     A
C798   C799    1.405   .     A
C799   C800    1.398   .     A
C799   H804    1.083   .     S
C800   C801    1.398   .     A
C800   H805    1.082   .     S
C801   H806    1.082   .     S
C801   C802    1.398   .     A
C802   C803    1.399   .     A
C802   H1329   1.083   .     S
C803   H808    1.082   .     S
C813   O837    1.293   .     A
C813   C824    1.421   .     S
C813   O835    1.291   .     A
C814   O838    1.293   .     A
C814   O836    1.291   .     A
C814   C823    1.421   .     S
C815   C817    1.418   .     S
C815   O839    1.282   .     A
C815   O841    1.297   .     A
C816   O842    1.297   .     A
C816   O840    1.282   .     A
C816   C818    1.418   .     S
C818   C701    1.364   1_655 S
C818   C740    1.493   1_655 S
C819   C824    1.396   .     A
C819   H829    1.081   .     S
C820   C823    1.396   .     A
C820   H830    1.081   .     S
C820   C996    1.368   .     S
C821   C823    1.397   .     A
C821   H831    1.083   .     S
C821   C993    1.368   .     S
C822   C824    1.397   .     A
C822   H832    1.083   .     S
C825   N834    1.375   .     A
C825   I867    2.143   .     S
C826   I868    2.143   .     S
C826   N833    1.375   .     A
C826   C1350   1.427   .     S
C827   I869    2.126   .     S
C827   N833    1.375   .     A
C827   C1347   1.427   .     S
C828   I870    2.126   .     S
C828   N834    1.375   .     A
N833   Zn843   2.032   .     S
N834   Zn844   2.032   .     S
O835   Zn843   1.998   .     S
O836   Zn844   1.998   .     S
O837   Zn844   2.002   .     S
O838   Zn843   2.002   .     S
O839   Zn843   1.987   .     S
O840   Zn844   1.987   .     S
O841   Zn844   2.003   .     S
O842   Zn843   2.003   .     S
C845   C846    1.405   .     A
C845   C850    1.405   .     A
C845   C701    1.493   1_655 S
C846   H851    1.082   .     S
C846   C847    1.399   .     A
C847   C848    1.398   .     A
C848   H853    1.082   .     S
C848   C849    1.398   .     A
C849   C850    1.398   .     A
C849   H854    1.082   .     S
C850   H855    1.083   .     S
H852   C1369   1.083   .     S
C856   C861    1.405   .     A
C856   C857    1.405   .     A
C857   C858    1.398   .     A
C857   H862    1.083   .     S
C858   C859    1.398   .     A
C858   H863    1.082   .     S
C859   H864    1.082   .     S
C859   C860    1.398   .     A
C860   C861    1.399   .     A
C860   H1387   1.083   .     S
C861   H866    1.082   .     S
C871   O895    1.293   .     A
C871   C882    1.421   .     S
C871   O893    1.291   .     A
C872   O896    1.293   .     A
C872   O894    1.291   .     A
C872   C881    1.421   .     S
C873   C875    1.418   .     S
C873   O897    1.282   .     A
C873   O899    1.297   .     A
C874   O900    1.297   .     A
C874   O898    1.282   .     A
C874   C876    1.418   .     S
C875   C992    1.364   1_455 S
C875   C1019   1.493   1_455 S
C876   C933    1.364   .     S
C876   C972    1.493   .     S
C877   C882    1.396   .     A
C877   H887    1.081   .     S
C878   C881    1.396   .     A
C878   H888    1.081   .     S
C878   C532    1.368   1_565 S
C879   C881    1.397   .     A
C879   H889    1.083   .     S
C879   C529    1.368   1_565 S
C880   C882    1.397   .     A
C880   H890    1.083   .     S
C883   N892    1.375   .     A
C883   I925    2.143   .     S
C884   I926    2.143   .     S
C884   N891    1.375   .     A
C884   C1408   1.427   .     S
C885   I927    2.126   .     S
C885   N891    1.375   .     A
C885   C1405   1.427   .     S
C886   I928    2.126   .     S
C886   N892    1.375   .     A
N891   Zn901   2.032   .     S
N892   Zn902   2.032   .     S
O893   Zn901   1.998   .     S
O894   Zn902   1.998   .     S
O895   Zn902   2.002   .     S
O896   Zn901   2.002   .     S
O897   Zn901   1.987   .     S
O898   Zn902   1.987   .     S
O899   Zn902   2.003   .     S
O900   Zn901   2.003   .     S
C903   C904    1.405   .     A
C903   C908    1.405   .     A
C903   C933    1.493   .     S
C904   H909    1.082   .     S
C904   C905    1.399   .     A
C905   C906    1.398   .     A
C906   H911    1.082   .     S
C906   C907    1.398   .     A
C907   C908    1.398   .     A
C907   H912    1.082   .     S
C908   H913    1.083   .     S
H910   C1427   1.083   .     S
C914   C919    1.405   .     A
C914   C915    1.405   .     A
C914   C992    1.493   1_455 S
C915   C916    1.398   .     A
C915   H920    1.083   .     S
C916   C917    1.398   .     A
C916   H921    1.082   .     S
C917   H922    1.082   .     S
C917   C918    1.398   .     A
C918   C919    1.399   .     A
C918   H1445   1.083   .     S
C919   H924    1.082   .     S
C929   O953    1.293   .     A
C929   C940    1.421   .     S
C929   O951    1.291   .     A
C930   O954    1.293   .     A
C930   O952    1.291   .     A
C930   C939    1.421   .     S
C931   C933    1.418   .     S
C931   O955    1.282   .     A
C931   O957    1.297   .     A
C932   O958    1.297   .     A
C932   O956    1.282   .     A
C932   C934    1.418   .     S
C934   C991    1.364   .     S
C934   C1030   1.493   .     S
C935   C940    1.396   .     A
C935   H945    1.081   .     S
C936   C939    1.396   .     A
C936   H946    1.081   .     S
C936   C590    1.368   1_565 S
C937   C939    1.397   .     A
C937   H947    1.083   .     S
C937   C587    1.368   1_565 S
C938   C940    1.397   .     A
C938   H948    1.083   .     S
C941   N950    1.375   .     A
C941   I983    2.143   .     S
C942   I984    2.143   .     S
C942   N949    1.375   .     A
C942   C1466   1.427   .     S
C943   I985    2.126   .     S
C943   N949    1.375   .     A
C943   C1463   1.427   .     S
C944   I986    2.126   .     S
C944   N950    1.375   .     A
N949   Zn959   2.032   .     S
N950   Zn960   2.032   .     S
O951   Zn959   1.998   .     S
O952   Zn960   1.998   .     S
O953   Zn960   2.002   .     S
O954   Zn959   2.002   .     S
O955   Zn959   1.987   .     S
O956   Zn960   1.987   .     S
O957   Zn960   2.003   .     S
O958   Zn959   2.003   .     S
C961   C962    1.405   .     A
C961   C966    1.405   .     A
C961   C991    1.493   .     S
C962   H967    1.082   .     S
C962   C963    1.399   .     A
C963   C964    1.398   .     A
C964   H969    1.082   .     S
C964   C965    1.398   .     A
C965   C966    1.398   .     A
C965   H970    1.082   .     S
C966   H971    1.083   .     S
H968   C1485   1.083   .     S
C972   C977    1.405   .     A
C972   C973    1.405   .     A
C973   C974    1.398   .     A
C973   H978    1.083   .     S
C974   C975    1.398   .     A
C974   H979    1.082   .     S
C975   H980    1.082   .     S
C975   C976    1.398   .     A
C976   C977    1.399   .     A
C976   H1503   1.083   .     S
C977   H982    1.082   .     S
C987   O1011   1.293   .     A
C987   C998    1.421   .     S
C987   O1009   1.291   .     A
C988   O1012   1.293   .     A
C988   O1010   1.291   .     A
C988   C997    1.421   .     S
C989   C991    1.418   .     S
C989   O1013   1.282   .     A
C989   O1015   1.297   .     A
C990   O1016   1.297   .     A
C990   O1014   1.282   .     A
C990   C992    1.418   .     S
C992   C875    1.364   1_655 S
C992   C914    1.493   1_655 S
C993   C998    1.396   .     A
C993   H1003   1.081   .     S
C994   C997    1.396   .     A
C994   H1004   1.081   .     S
C994   C648    1.368   1_565 S
C995   C997    1.397   .     A
C995   H1005   1.083   .     S
C995   C645    1.368   1_565 S
C996   C998    1.397   .     A
C996   H1006   1.083   .     S
C999   N1008   1.375   .     A
C999   I1041   2.143   .     S
C1000  I1042   2.143   .     S
C1000  N1007   1.375   .     A
C1000  C1524   1.427   .     S
C1001  I1043   2.126   .     S
C1001  N1007   1.375   .     A
C1001  C1521   1.427   .     S
C1002  I1044   2.126   .     S
C1002  N1008   1.375   .     A
N1007  Zn1017  2.032   .     S
N1008  Zn1018  2.032   .     S
O1009  Zn1017  1.998   .     S
O1010  Zn1018  1.998   .     S
O1011  Zn1018  2.002   .     S
O1012  Zn1017  2.002   .     S
O1013  Zn1017  1.987   .     S
O1014  Zn1018  1.987   .     S
O1015  Zn1018  2.003   .     S
O1016  Zn1017  2.003   .     S
C1019  C1020   1.405   .     A
C1019  C1024   1.405   .     A
C1019  C875    1.493   1_655 S
C1020  H1025   1.082   .     S
C1020  C1021   1.399   .     A
C1021  C1022   1.398   .     A
C1022  H1027   1.082   .     S
C1022  C1023   1.398   .     A
C1023  C1024   1.398   .     A
C1023  H1028   1.082   .     S
C1024  H1029   1.083   .     S
H1026  C1543   1.083   .     S
C1030  C1035   1.405   .     A
C1030  C1031   1.405   .     A
C1031  C1032   1.398   .     A
C1031  H1036   1.083   .     S
C1032  C1033   1.398   .     A
C1032  H1037   1.082   .     S
C1033  H1038   1.082   .     S
C1033  C1034   1.398   .     A
C1034  C1035   1.399   .     A
C1034  H1561   1.083   .     S
C1035  H1040   1.082   .     S
C1045  O1069   1.293   .     A
C1045  C1056   1.421   .     S
C1045  O1067   1.291   .     A
C1046  O1070   1.293   .     A
C1046  O1068   1.291   .     A
C1046  C1055   1.421   .     S
C1047  C1049   1.418   .     S
C1047  O1071   1.282   .     A
C1047  O1073   1.297   .     A
C1048  O1074   1.297   .     A
C1048  O1072   1.282   .     A
C1048  C1050   1.418   .     S
C1049  C1166   1.364   1_455 S
C1049  C1193   1.493   1_455 S
C1050  C1107   1.364   .     S
C1050  C1146   1.493   .     S
C1051  C1056   1.396   .     A
C1051  H1061   1.081   .     S
C1051  C1401   1.368   1_545 S
C1052  C1055   1.396   .     A
C1052  H1062   1.081   .     S
C1052  C1228   1.368   .     S
C1053  C1055   1.397   .     A
C1053  H1063   1.083   .     S
C1053  C1225   1.368   .     S
C1054  C1056   1.397   .     A
C1054  H1064   1.083   .     S
C1054  C1400   1.368   1_545 S
C1057  N1066   1.375   .     A
C1057  I1099   2.143   .     S
C1058  I1100   2.143   .     S
C1058  N1065   1.375   .     A
C1058  C16     1.427   1_556 S
C1059  I1101   2.126   .     S
C1059  N1065   1.375   .     A
C1059  C13     1.427   1_556 S
C1060  I1102   2.126   .     S
C1060  N1066   1.375   .     A
N1065  Zn1075  2.032   .     S
N1066  Zn1076  2.032   .     S
O1067  Zn1075  1.998   .     S
O1068  Zn1076  1.998   .     S
O1069  Zn1076  2.002   .     S
O1070  Zn1075  2.002   .     S
O1071  Zn1075  1.987   .     S
O1072  Zn1076  1.987   .     S
O1073  Zn1076  2.003   .     S
O1074  Zn1075  2.003   .     S
C1077  C1078   1.405   .     A
C1077  C1082   1.405   .     A
C1077  C1107   1.493   .     S
C1078  H1083   1.082   .     S
C1078  C1079   1.399   .     A
C1079  C1080   1.398   .     A
C1080  H1085   1.082   .     S
C1080  C1081   1.398   .     A
C1081  C1082   1.398   .     A
C1081  H1086   1.082   .     S
C1082  H1087   1.083   .     S
H1084  C35     1.083   1_556 S
C1088  C1093   1.405   .     A
C1088  C1089   1.405   .     A
C1088  C1166   1.493   1_455 S
C1089  C1090   1.398   .     A
C1089  H1094   1.083   .     S
C1090  C1091   1.398   .     A
C1090  H1095   1.082   .     S
C1091  H1096   1.082   .     S
C1091  C1092   1.398   .     A
C1092  C1093   1.399   .     A
C1092  H53     1.083   1_556 S
C1093  H1098   1.082   .     S
C1103  O1127   1.293   .     A
C1103  C1114   1.421   .     S
C1103  O1125   1.291   .     A
C1104  O1128   1.293   .     A
C1104  O1126   1.291   .     A
C1104  C1113   1.421   .     S
C1105  C1107   1.418   .     S
C1105  O1129   1.282   .     A
C1105  O1131   1.297   .     A
C1106  O1132   1.297   .     A
C1106  O1130   1.282   .     A
C1106  C1108   1.418   .     S
C1108  C1165   1.364   .     S
C1108  C1204   1.493   .     S
C1109  C1114   1.396   .     A
C1109  H1119   1.081   .     S
C1109  C1459   1.368   1_545 S
C1110  C1113   1.396   .     A
C1110  H1120   1.081   .     S
C1110  C1286   1.368   .     S
C1111  C1113   1.397   .     A
C1111  H1121   1.083   .     S
C1111  C1283   1.368   .     S
C1112  C1114   1.397   .     A
C1112  H1122   1.083   .     S
C1112  C1458   1.368   1_545 S
C1115  N1124   1.375   .     A
C1115  I1157   2.143   .     S
C1116  I1158   2.143   .     S
C1116  N1123   1.375   .     A
C1116  C74     1.427   1_556 S
C1117  I1159   2.126   .     S
C1117  N1123   1.375   .     A
C1117  C71     1.427   1_556 S
C1118  I1160   2.126   .     S
C1118  N1124   1.375   .     A
N1123  Zn1133  2.032   .     S
N1124  Zn1134  2.032   .     S
O1125  Zn1133  1.998   .     S
O1126  Zn1134  1.998   .     S
O1127  Zn1134  2.002   .     S
O1128  Zn1133  2.002   .     S
O1129  Zn1133  1.987   .     S
O1130  Zn1134  1.987   .     S
O1131  Zn1134  2.003   .     S
O1132  Zn1133  2.003   .     S
C1135  C1136   1.405   .     A
C1135  C1140   1.405   .     A
C1135  C1165   1.493   .     S
C1136  H1141   1.082   .     S
C1136  C1137   1.399   .     A
C1137  C1138   1.398   .     A
C1138  H1143   1.082   .     S
C1138  C1139   1.398   .     A
C1139  C1140   1.398   .     A
C1139  H1144   1.082   .     S
C1140  H1145   1.083   .     S
H1142  C93     1.083   1_556 S
C1146  C1151   1.405   .     A
C1146  C1147   1.405   .     A
C1147  C1148   1.398   .     A
C1147  H1152   1.083   .     S
C1148  C1149   1.398   .     A
C1148  H1153   1.082   .     S
C1149  H1154   1.082   .     S
C1149  C1150   1.398   .     A
C1150  C1151   1.399   .     A
C1150  H111    1.083   1_556 S
C1151  H1156   1.082   .     S
C1161  O1185   1.293   .     A
C1161  C1172   1.421   .     S
C1161  O1183   1.291   .     A
C1162  O1186   1.293   .     A
C1162  O1184   1.291   .     A
C1162  C1171   1.421   .     S
C1163  C1165   1.418   .     S
C1163  O1187   1.282   .     A
C1163  O1189   1.297   .     A
C1164  O1190   1.297   .     A
C1164  O1188   1.282   .     A
C1164  C1166   1.418   .     S
C1166  C1049   1.364   1_655 S
C1166  C1088   1.493   1_655 S
C1167  C1172   1.396   .     A
C1167  H1177   1.081   .     S
C1167  C1517   1.368   1_545 S
C1168  C1171   1.396   .     A
C1168  H1178   1.081   .     S
C1168  C1344   1.368   .     S
C1169  C1171   1.397   .     A
C1169  H1179   1.083   .     S
C1169  C1341   1.368   .     S
C1170  C1172   1.397   .     A
C1170  H1180   1.083   .     S
C1170  C1516   1.368   1_545 S
C1173  N1182   1.375   .     A
C1173  I1215   2.143   .     S
C1174  I1216   2.143   .     S
C1174  N1181   1.375   .     A
C1174  C132    1.427   1_556 S
C1175  I1217   2.126   .     S
C1175  N1181   1.375   .     A
C1175  C129    1.427   1_556 S
C1176  I1218   2.126   .     S
C1176  N1182   1.375   .     A
N1181  Zn1191  2.032   .     S
N1182  Zn1192  2.032   .     S
O1183  Zn1191  1.998   .     S
O1184  Zn1192  1.998   .     S
O1185  Zn1192  2.002   .     S
O1186  Zn1191  2.002   .     S
O1187  Zn1191  1.987   .     S
O1188  Zn1192  1.987   .     S
O1189  Zn1192  2.003   .     S
O1190  Zn1191  2.003   .     S
C1193  C1194   1.405   .     A
C1193  C1198   1.405   .     A
C1193  C1049   1.493   1_655 S
C1194  H1199   1.082   .     S
C1194  C1195   1.399   .     A
C1195  C1196   1.398   .     A
C1196  H1201   1.082   .     S
C1196  C1197   1.398   .     A
C1197  C1198   1.398   .     A
C1197  H1202   1.082   .     S
C1198  H1203   1.083   .     S
H1200  C151    1.083   1_556 S
C1204  C1209   1.405   .     A
C1204  C1205   1.405   .     A
C1205  C1206   1.398   .     A
C1205  H1210   1.083   .     S
C1206  C1207   1.398   .     A
C1206  H1211   1.082   .     S
C1207  H1212   1.082   .     S
C1207  C1208   1.398   .     A
C1208  C1209   1.399   .     A
C1208  H169    1.083   1_556 S
C1209  H1214   1.082   .     S
C1219  O1243   1.293   .     A
C1219  C1230   1.421   .     S
C1219  O1241   1.291   .     A
C1220  O1244   1.293   .     A
C1220  O1242   1.291   .     A
C1220  C1229   1.421   .     S
C1221  C1223   1.418   .     S
C1221  O1245   1.282   .     A
C1221  O1247   1.297   .     A
C1222  O1248   1.297   .     A
C1222  O1246   1.282   .     A
C1222  C1224   1.418   .     S
C1223  C1340   1.364   1_455 S
C1223  C1367   1.493   1_455 S
C1224  C1281   1.364   .     S
C1224  C1320   1.493   .     S
C1225  C1230   1.396   .     A
C1225  H1235   1.081   .     S
C1226  C1229   1.396   .     A
C1226  H1236   1.081   .     S
C1226  C1402   1.368   .     S
C1227  C1229   1.397   .     A
C1227  H1237   1.083   .     S
C1227  C1399   1.368   .     S
C1228  C1230   1.397   .     A
C1228  H1238   1.083   .     S
C1231  N1240   1.375   .     A
C1231  I1273   2.143   .     S
C1232  I1274   2.143   .     S
C1232  N1239   1.375   .     A
C1232  C190    1.427   1_556 S
C1233  I1275   2.126   .     S
C1233  N1239   1.375   .     A
C1233  C187    1.427   1_556 S
C1234  I1276   2.126   .     S
C1234  N1240   1.375   .     A
N1239  Zn1249  2.032   .     S
N1240  Zn1250  2.032   .     S
O1241  Zn1249  1.998   .     S
O1242  Zn1250  1.998   .     S
O1243  Zn1250  2.002   .     S
O1244  Zn1249  2.002   .     S
O1245  Zn1249  1.987   .     S
O1246  Zn1250  1.987   .     S
O1247  Zn1250  2.003   .     S
O1248  Zn1249  2.003   .     S
C1251  C1252   1.405   .     A
C1251  C1256   1.405   .     A
C1251  C1281   1.493   .     S
C1252  H1257   1.082   .     S
C1252  C1253   1.399   .     A
C1253  C1254   1.398   .     A
C1254  H1259   1.082   .     S
C1254  C1255   1.398   .     A
C1255  C1256   1.398   .     A
C1255  H1260   1.082   .     S
C1256  H1261   1.083   .     S
H1258  C209    1.083   1_556 S
C1262  C1267   1.405   .     A
C1262  C1263   1.405   .     A
C1262  C1340   1.493   1_455 S
C1263  C1264   1.398   .     A
C1263  H1268   1.083   .     S
C1264  C1265   1.398   .     A
C1264  H1269   1.082   .     S
C1265  H1270   1.082   .     S
C1265  C1266   1.398   .     A
C1266  C1267   1.399   .     A
C1266  H227    1.083   1_556 S
C1267  H1272   1.082   .     S
C1277  O1301   1.293   .     A
C1277  C1288   1.421   .     S
C1277  O1299   1.291   .     A
C1278  O1302   1.293   .     A
C1278  O1300   1.291   .     A
C1278  C1287   1.421   .     S
C1279  C1281   1.418   .     S
C1279  O1303   1.282   .     A
C1279  O1305   1.297   .     A
C1280  O1306   1.297   .     A
C1280  O1304   1.282   .     A
C1280  C1282   1.418   .     S
C1282  C1339   1.364   .     S
C1282  C1378   1.493   .     S
C1283  C1288   1.396   .     A
C1283  H1293   1.081   .     S
C1284  C1287   1.396   .     A
C1284  H1294   1.081   .     S
C1284  C1460   1.368   .     S
C1285  C1287   1.397   .     A
C1285  H1295   1.083   .     S
C1285  C1457   1.368   .     S
C1286  C1288   1.397   .     A
C1286  H1296   1.083   .     S
C1289  N1298   1.375   .     A
C1289  I1331   2.143   .     S
C1290  I1332   2.143   .     S
C1290  N1297   1.375   .     A
C1290  C248    1.427   1_556 S
C1291  I1333   2.126   .     S
C1291  N1297   1.375   .     A
C1291  C245    1.427   1_556 S
C1292  I1334   2.126   .     S
C1292  N1298   1.375   .     A
N1297  Zn1307  2.032   .     S
N1298  Zn1308  2.032   .     S
O1299  Zn1307  1.998   .     S
O1300  Zn1308  1.998   .     S
O1301  Zn1308  2.002   .     S
O1302  Zn1307  2.002   .     S
O1303  Zn1307  1.987   .     S
O1304  Zn1308  1.987   .     S
O1305  Zn1308  2.003   .     S
O1306  Zn1307  2.003   .     S
C1309  C1310   1.405   .     A
C1309  C1314   1.405   .     A
C1309  C1339   1.493   .     S
C1310  H1315   1.082   .     S
C1310  C1311   1.399   .     A
C1311  C1312   1.398   .     A
C1312  H1317   1.082   .     S
C1312  C1313   1.398   .     A
C1313  C1314   1.398   .     A
C1313  H1318   1.082   .     S
C1314  H1319   1.083   .     S
H1316  C267    1.083   1_556 S
C1320  C1325   1.405   .     A
C1320  C1321   1.405   .     A
C1321  C1322   1.398   .     A
C1321  H1326   1.083   .     S
C1322  C1323   1.398   .     A
C1322  H1327   1.082   .     S
C1323  H1328   1.082   .     S
C1323  C1324   1.398   .     A
C1324  C1325   1.399   .     A
C1324  H285    1.083   1_556 S
C1325  H1330   1.082   .     S
C1335  O1359   1.293   .     A
C1335  C1346   1.421   .     S
C1335  O1357   1.291   .     A
C1336  O1360   1.293   .     A
C1336  O1358   1.291   .     A
C1336  C1345   1.421   .     S
C1337  C1339   1.418   .     S
C1337  O1361   1.282   .     A
C1337  O1363   1.297   .     A
C1338  O1364   1.297   .     A
C1338  O1362   1.282   .     A
C1338  C1340   1.418   .     S
C1340  C1223   1.364   1_655 S
C1340  C1262   1.493   1_655 S
C1341  C1346   1.396   .     A
C1341  H1351   1.081   .     S
C1342  C1345   1.396   .     A
C1342  H1352   1.081   .     S
C1342  C1518   1.368   .     S
C1343  C1345   1.397   .     A
C1343  H1353   1.083   .     S
C1343  C1515   1.368   .     S
C1344  C1346   1.397   .     A
C1344  H1354   1.083   .     S
C1347  N1356   1.375   .     A
C1347  I1389   2.143   .     S
C1348  I1390   2.143   .     S
C1348  N1355   1.375   .     A
C1348  C306    1.427   1_556 S
C1349  I1391   2.126   .     S
C1349  N1355   1.375   .     A
C1349  C303    1.427   1_556 S
C1350  I1392   2.126   .     S
C1350  N1356   1.375   .     A
N1355  Zn1365  2.032   .     S
N1356  Zn1366  2.032   .     S
O1357  Zn1365  1.998   .     S
O1358  Zn1366  1.998   .     S
O1359  Zn1366  2.002   .     S
O1360  Zn1365  2.002   .     S
O1361  Zn1365  1.987   .     S
O1362  Zn1366  1.987   .     S
O1363  Zn1366  2.003   .     S
O1364  Zn1365  2.003   .     S
C1367  C1368   1.405   .     A
C1367  C1372   1.405   .     A
C1367  C1223   1.493   1_655 S
C1368  H1373   1.082   .     S
C1368  C1369   1.399   .     A
C1369  C1370   1.398   .     A
C1370  H1375   1.082   .     S
C1370  C1371   1.398   .     A
C1371  C1372   1.398   .     A
C1371  H1376   1.082   .     S
C1372  H1377   1.083   .     S
H1374  C325    1.083   1_556 S
C1378  C1383   1.405   .     A
C1378  C1379   1.405   .     A
C1379  C1380   1.398   .     A
C1379  H1384   1.083   .     S
C1380  C1381   1.398   .     A
C1380  H1385   1.082   .     S
C1381  H1386   1.082   .     S
C1381  C1382   1.398   .     A
C1382  C1383   1.399   .     A
C1382  H343    1.083   1_556 S
C1383  H1388   1.082   .     S
C1393  O1417   1.293   .     A
C1393  C1404   1.421   .     S
C1393  O1415   1.291   .     A
C1394  O1418   1.293   .     A
C1394  O1416   1.291   .     A
C1394  C1403   1.421   .     S
C1395  C1397   1.418   .     S
C1395  O1419   1.282   .     A
C1395  O1421   1.297   .     A
C1396  O1422   1.297   .     A
C1396  O1420   1.282   .     A
C1396  C1398   1.418   .     S
C1397  C1514   1.364   1_455 S
C1397  C1541   1.493   1_455 S
C1398  C1455   1.364   .     S
C1398  C1494   1.493   .     S
C1399  C1404   1.396   .     A
C1399  H1409   1.081   .     S
C1400  C1403   1.396   .     A
C1400  H1410   1.081   .     S
C1400  C1054   1.368   1_565 S
C1401  C1403   1.397   .     A
C1401  H1411   1.083   .     S
C1401  C1051   1.368   1_565 S
C1402  C1404   1.397   .     A
C1402  H1412   1.083   .     S
C1405  N1414   1.375   .     A
C1405  I1447   2.143   .     S
C1406  I1448   2.143   .     S
C1406  N1413   1.375   .     A
C1406  C364    1.427   1_556 S
C1407  I1449   2.126   .     S
C1407  N1413   1.375   .     A
C1407  C361    1.427   1_556 S
C1408  I1450   2.126   .     S
C1408  N1414   1.375   .     A
N1413  Zn1423  2.032   .     S
N1414  Zn1424  2.032   .     S
O1415  Zn1423  1.998   .     S
O1416  Zn1424  1.998   .     S
O1417  Zn1424  2.002   .     S
O1418  Zn1423  2.002   .     S
O1419  Zn1423  1.987   .     S
O1420  Zn1424  1.987   .     S
O1421  Zn1424  2.003   .     S
O1422  Zn1423  2.003   .     S
C1425  C1426   1.405   .     A
C1425  C1430   1.405   .     A
C1425  C1455   1.493   .     S
C1426  H1431   1.082   .     S
C1426  C1427   1.399   .     A
C1427  C1428   1.398   .     A
C1428  H1433   1.082   .     S
C1428  C1429   1.398   .     A
C1429  C1430   1.398   .     A
C1429  H1434   1.082   .     S
C1430  H1435   1.083   .     S
H1432  C383    1.083   1_556 S
C1436  C1441   1.405   .     A
C1436  C1437   1.405   .     A
C1436  C1514   1.493   1_455 S
C1437  C1438   1.398   .     A
C1437  H1442   1.083   .     S
C1438  C1439   1.398   .     A
C1438  H1443   1.082   .     S
C1439  H1444   1.082   .     S
C1439  C1440   1.398   .     A
C1440  C1441   1.399   .     A
C1440  H401    1.083   1_556 S
C1441  H1446   1.082   .     S
C1451  O1475   1.293   .     A
C1451  C1462   1.421   .     S
C1451  O1473   1.291   .     A
C1452  O1476   1.293   .     A
C1452  O1474   1.291   .     A
C1452  C1461   1.421   .     S
C1453  C1455   1.418   .     S
C1453  O1477   1.282   .     A
C1453  O1479   1.297   .     A
C1454  O1480   1.297   .     A
C1454  O1478   1.282   .     A
C1454  C1456   1.418   .     S
C1456  C1513   1.364   .     S
C1456  C1552   1.493   .     S
C1457  C1462   1.396   .     A
C1457  H1467   1.081   .     S
C1458  C1461   1.396   .     A
C1458  H1468   1.081   .     S
C1458  C1112   1.368   1_565 S
C1459  C1461   1.397   .     A
C1459  H1469   1.083   .     S
C1459  C1109   1.368   1_565 S
C1460  C1462   1.397   .     A
C1460  H1470   1.083   .     S
C1463  N1472   1.375   .     A
C1463  I1505   2.143   .     S
C1464  I1506   2.143   .     S
C1464  N1471   1.375   .     A
C1464  C422    1.427   1_556 S
C1465  I1507   2.126   .     S
C1465  N1471   1.375   .     A
C1465  C419    1.427   1_556 S
C1466  I1508   2.126   .     S
C1466  N1472   1.375   .     A
N1471  Zn1481  2.032   .     S
N1472  Zn1482  2.032   .     S
O1473  Zn1481  1.998   .     S
O1474  Zn1482  1.998   .     S
O1475  Zn1482  2.002   .     S
O1476  Zn1481  2.002   .     S
O1477  Zn1481  1.987   .     S
O1478  Zn1482  1.987   .     S
O1479  Zn1482  2.003   .     S
O1480  Zn1481  2.003   .     S
C1483  C1484   1.405   .     A
C1483  C1488   1.405   .     A
C1483  C1513   1.493   .     S
C1484  H1489   1.082   .     S
C1484  C1485   1.399   .     A
C1485  C1486   1.398   .     A
C1486  H1491   1.082   .     S
C1486  C1487   1.398   .     A
C1487  C1488   1.398   .     A
C1487  H1492   1.082   .     S
C1488  H1493   1.083   .     S
H1490  C441    1.083   1_556 S
C1494  C1499   1.405   .     A
C1494  C1495   1.405   .     A
C1495  C1496   1.398   .     A
C1495  H1500   1.083   .     S
C1496  C1497   1.398   .     A
C1496  H1501   1.082   .     S
C1497  H1502   1.082   .     S
C1497  C1498   1.398   .     A
C1498  C1499   1.399   .     A
C1498  H459    1.083   1_556 S
C1499  H1504   1.082   .     S
C1509  O1533   1.293   .     A
C1509  C1520   1.421   .     S
C1509  O1531   1.291   .     A
C1510  O1534   1.293   .     A
C1510  O1532   1.291   .     A
C1510  C1519   1.421   .     S
C1511  C1513   1.418   .     S
C1511  O1535   1.282   .     A
C1511  O1537   1.297   .     A
C1512  O1538   1.297   .     A
C1512  O1536   1.282   .     A
C1512  C1514   1.418   .     S
C1514  C1397   1.364   1_655 S
C1514  C1436   1.493   1_655 S
C1515  C1520   1.396   .     A
C1515  H1525   1.081   .     S
C1516  C1519   1.396   .     A
C1516  H1526   1.081   .     S
C1516  C1170   1.368   1_565 S
C1517  C1519   1.397   .     A
C1517  H1527   1.083   .     S
C1517  C1167   1.368   1_565 S
C1518  C1520   1.397   .     A
C1518  H1528   1.083   .     S
C1521  N1530   1.375   .     A
C1521  I1563   2.143   .     S
C1522  I1564   2.143   .     S
C1522  N1529   1.375   .     A
C1522  C480    1.427   1_556 S
C1523  I1565   2.126   .     S
C1523  N1529   1.375   .     A
C1523  C477    1.427   1_556 S
C1524  I1566   2.126   .     S
C1524  N1530   1.375   .     A
N1529  Zn1539  2.032   .     S
N1530  Zn1540  2.032   .     S
O1531  Zn1539  1.998   .     S
O1532  Zn1540  1.998   .     S
O1533  Zn1540  2.002   .     S
O1534  Zn1539  2.002   .     S
O1535  Zn1539  1.987   .     S
O1536  Zn1540  1.987   .     S
O1537  Zn1540  2.003   .     S
O1538  Zn1539  2.003   .     S
C1541  C1542   1.405   .     A
C1541  C1546   1.405   .     A
C1541  C1397   1.493   1_655 S
C1542  H1547   1.082   .     S
C1542  C1543   1.399   .     A
C1543  C1544   1.398   .     A
C1544  H1549   1.082   .     S
C1544  C1545   1.398   .     A
C1545  C1546   1.398   .     A
C1545  H1550   1.082   .     S
C1546  H1551   1.083   .     S
H1548  C499    1.083   1_556 S
C1552  C1557   1.405   .     A
C1552  C1553   1.405   .     A
C1553  C1554   1.398   .     A
C1553  H1558   1.083   .     S
C1554  C1555   1.398   .     A
C1554  H1559   1.082   .     S
C1555  H1560   1.082   .     S
C1555  C1556   1.398   .     A
C1556  C1557   1.399   .     A
C1556  H517    1.083   1_556 S
C1557  H1562   1.082   .     S
