data_str_m3_o2_o10_pcu_sym.164
_audit_creation_date              2020-01-03
_audit_creation_method            'Materials Studio'
_symmetry_space_group_name_H-M    'P1'
_symmetry_Int_Tables_number       1
_symmetry_cell_setting            triclinic
loop_
_symmetry_equiv_pos_as_xyz
  x,y,z
_cell_length_a                    25.9393
_cell_length_b                    30.0059
_cell_length_c                    28.4489
_cell_angle_alpha                 90.8612
_cell_angle_beta                  98.5243
_cell_angle_gamma                 90.9497
loop_
_atom_site_label
_atom_site_type_symbol
_atom_site_fract_x
_atom_site_fract_y
_atom_site_fract_z
_atom_site_U_iso_or_equiv
_atom_site_adp_type
_atom_site_occupancy
C1     C     0.16886   0.16421   0.24988   0.00000  Uiso   1.00
C2     C     0.16467   0.33603   0.25009   0.00000  Uiso   1.00
C3     C     0.14677   0.21426   0.04868   0.00000  Uiso   1.00
C4     C     0.20409   0.27474   0.45304   0.00000  Uiso   1.00
C5     C     0.14545   0.21477   0.09790   0.00000  Uiso   1.00
C6     C     0.20332   0.27472   0.40348   0.00000  Uiso   1.00
C7     C     0.18785   0.28546   0.10595   0.00000  Uiso   1.00
C8     C     0.12997   0.22584   0.39249   0.00000  Uiso   1.00
C9     C     0.18782   0.28678   0.05642   0.00000  Uiso   1.00
C10    C     0.12867   0.22613   0.44181   0.00000  Uiso   1.00
C11    C     0.16703   0.25072   0.02665   0.00000  Uiso   1.00
C12    C     0.16639   0.25064   0.47331   0.00000  Uiso   1.00
C13    C     0.06717   0.25033   0.23779   0.00000  Uiso   1.00
C14    C     0.26614   0.25030   0.26231   0.00000  Uiso   1.00
C15    C     0.01323   0.25855   0.23319   0.00000  Uiso   1.00
C16    C     0.32013   0.24274   0.26740   0.00000  Uiso   1.00
C17    C     0.12517   0.04810   0.25987   0.00000  Uiso   1.00
C18    C     0.18693   0.45257   0.21627   0.00000  Uiso   1.00
C19    C     0.12636   0.09391   0.25897   0.00000  Uiso   1.00
C20    C     0.18481   0.40670   0.21574   0.00000  Uiso   1.00
C21    C     0.17076   0.11656   0.24911   0.00000  Uiso   1.00
C22    C     0.16214   0.38407   0.25043   0.00000  Uiso   1.00
C23    C     0.21537   0.09332   0.23975   0.00000  Uiso   1.00
C24    C     0.13972   0.40789   0.28547   0.00000  Uiso   1.00
C25    C     0.21405   0.04701   0.24249   0.00000  Uiso   1.00
C26    C     0.14440   0.45409   0.28682   0.00000  Uiso   1.00
C27    C     0.16914   0.02458   0.25207   0.00000  Uiso   1.00
C28    C     0.16746   0.47632   0.25215   0.00000  Uiso   1.00
H29    H     0.08970   0.03109   0.26609   0.00000  Uiso   1.00
H30    H     0.20363   0.46948   0.18853   0.00000  Uiso   1.00
H31    H     0.09218   0.11175   0.26515   0.00000  Uiso   1.00
H32    H     0.20147   0.38892   0.18835   0.00000  Uiso   1.00
H33    H     0.24781   0.02803   0.23674   0.00000  Uiso   1.00
H34    H     0.12874   0.47294   0.31411   0.00000  Uiso   1.00
H35    H     0.13128   0.18531   0.02779   0.00000  Uiso   1.00
H36    H     0.23455   0.29349   0.47544   0.00000  Uiso   1.00
H37    H     0.20441   0.31326   0.12809   0.00000  Uiso   1.00
H38    H     0.10135   0.20633   0.36914   0.00000  Uiso   1.00
N39    N     0.16667   0.24999   0.12623   0.00000  Uiso   1.00
N40    N     0.16667   0.25001   0.37377   0.00000  Uiso   1.00
O41    O     0.16667   0.18454   0.28974   0.00000  Uiso   1.00
O42    O     0.16666   0.31547   0.21026   0.00000  Uiso   1.00
O43    O     0.16667   0.18453   0.21026   0.00000  Uiso   1.00
O44    O     0.16666   0.31547   0.28974   0.00000  Uiso   1.00
O45    O     0.09058   0.25000   0.28045   0.00000  Uiso   1.00
O46    O     0.24275   0.25000   0.21955   0.00000  Uiso   1.00
O47    O     0.09058   0.24999   0.20097   0.00000  Uiso   1.00
O48    O     0.24275   0.25001   0.29903   0.00000  Uiso   1.00
Zn49   Zn    0.16667   0.25001   0.30307   0.00000  Uiso   1.00
Zn50   Zn    0.16667   0.25000   0.19693   0.00000  Uiso   1.00
C51    C     0.32669   0.29346   0.19836   0.00000  Uiso   1.00
O52    O     0.00325   0.29159   0.15767   0.00000  Uiso   1.00
O53    O     0.29802   0.32896   0.21270   0.00000  Uiso   1.00
H54    H     0.28745   0.35061   0.18615   0.00000  Uiso   1.00
C55    C     0.00640   0.20842   0.30299   0.00000  Uiso   1.00
O56    O     0.32905   0.21072   0.34339   0.00000  Uiso   1.00
O57    O     0.03518   0.17270   0.28968   0.00000  Uiso   1.00
H58    H     0.04452   0.15112   0.31656   0.00000  Uiso   1.00
C59    C     0.26352   0.11517   0.22717   0.00000  Uiso   1.00
O60    O     0.26381   0.15416   0.21559   0.00000  Uiso   1.00
O61    O     0.30875   0.09039   0.22720   0.00000  Uiso   1.00
H62    H     0.00486   0.10827   0.21635   0.00000  Uiso   1.00
C63    C     0.10884   0.38650   0.31925   0.00000  Uiso   1.00
O64    O     0.07927   0.35507   0.30622   0.00000  Uiso   1.00
O65    O     0.11193   0.40366   0.36557   0.00000  Uiso   1.00
H66    H     0.08880   0.38660   0.38511   0.00000  Uiso   1.00
C67    C     0.11952   0.17673   0.11725   0.00000  Uiso   1.00
O68    O     0.08220   0.18270   0.13803   0.00000  Uiso   1.00
O69    O     0.13617   0.13351   0.10959   0.00000  Uiso   1.00
H70    H     0.11533   0.11006   0.12440   0.00000  Uiso   1.00
C71    C     0.24271   0.30231   0.38486   0.00000  Uiso   1.00
O72    O     0.28753   0.28947   0.38785   0.00000  Uiso   1.00
O73    O     0.22978   0.34457   0.36744   0.00000  Uiso   1.00
H74    H     0.26033   0.36069   0.35631   0.00000  Uiso   1.00
H75    H     0.20345   0.31626   0.04180   0.00000  Uiso   1.00
H76    H     0.09780   0.20749   0.45478   0.00000  Uiso   1.00
C77    C     0.50219   0.16421   0.24988   0.00000  Uiso   1.00
C78    C     0.49801   0.33603   0.25009   0.00000  Uiso   1.00
C79    C     0.48010   0.21426   0.04868   0.00000  Uiso   1.00
C80    C     0.53743   0.27474   0.45304   0.00000  Uiso   1.00
C81    C     0.47878   0.21477   0.09790   0.00000  Uiso   1.00
C82    C     0.53665   0.27472   0.40348   0.00000  Uiso   1.00
C83    C     0.52119   0.28546   0.10595   0.00000  Uiso   1.00
C84    C     0.46330   0.22584   0.39249   0.00000  Uiso   1.00
C85    C     0.52116   0.28678   0.05642   0.00000  Uiso   1.00
C86    C     0.46201   0.22613   0.44181   0.00000  Uiso   1.00
C87    C     0.50036   0.25072   0.02665   0.00000  Uiso   1.00
C88    C     0.49973   0.25064   0.47331   0.00000  Uiso   1.00
C89    C     0.40050   0.25033   0.23779   0.00000  Uiso   1.00
C90    C     0.59947   0.25030   0.26231   0.00000  Uiso   1.00
C91    C     0.34657   0.25855   0.23319   0.00000  Uiso   1.00
C92    C     0.65346   0.24274   0.26740   0.00000  Uiso   1.00
C93    C     0.45850   0.04810   0.25987   0.00000  Uiso   1.00
C94    C     0.52026   0.45257   0.21627   0.00000  Uiso   1.00
C95    C     0.45969   0.09391   0.25897   0.00000  Uiso   1.00
C96    C     0.51814   0.40670   0.21574   0.00000  Uiso   1.00
C97    C     0.50409   0.11656   0.24911   0.00000  Uiso   1.00
C98    C     0.49548   0.38407   0.25043   0.00000  Uiso   1.00
C99    C     0.54871   0.09332   0.23975   0.00000  Uiso   1.00
C100   C     0.47305   0.40789   0.28547   0.00000  Uiso   1.00
C101   C     0.54738   0.04701   0.24249   0.00000  Uiso   1.00
C102   C     0.47773   0.45409   0.28682   0.00000  Uiso   1.00
C103   C     0.50247   0.02458   0.25207   0.00000  Uiso   1.00
C104   C     0.50079   0.47632   0.25215   0.00000  Uiso   1.00
H105   H     0.42303   0.03109   0.26609   0.00000  Uiso   1.00
H106   H     0.53696   0.46948   0.18853   0.00000  Uiso   1.00
H107   H     0.42551   0.11175   0.26515   0.00000  Uiso   1.00
H108   H     0.53480   0.38892   0.18835   0.00000  Uiso   1.00
H109   H     0.58114   0.02803   0.23674   0.00000  Uiso   1.00
H110   H     0.46207   0.47294   0.31411   0.00000  Uiso   1.00
H111   H     0.46461   0.18531   0.02779   0.00000  Uiso   1.00
H112   H     0.56788   0.29349   0.47544   0.00000  Uiso   1.00
H113   H     0.53775   0.31326   0.12809   0.00000  Uiso   1.00
H114   H     0.43468   0.20633   0.36914   0.00000  Uiso   1.00
N115   N     0.50000   0.24999   0.12623   0.00000  Uiso   1.00
N116   N     0.50000   0.25001   0.37377   0.00000  Uiso   1.00
O117   O     0.50000   0.18454   0.28974   0.00000  Uiso   1.00
O118   O     0.50000   0.31547   0.21026   0.00000  Uiso   1.00
O119   O     0.50000   0.18453   0.21026   0.00000  Uiso   1.00
O120   O     0.50000   0.31547   0.28974   0.00000  Uiso   1.00
O121   O     0.42392   0.25000   0.28045   0.00000  Uiso   1.00
O122   O     0.57608   0.25000   0.21955   0.00000  Uiso   1.00
O123   O     0.42392   0.24999   0.20097   0.00000  Uiso   1.00
O124   O     0.57608   0.25001   0.29903   0.00000  Uiso   1.00
Zn125  Zn    0.50000   0.25001   0.30307   0.00000  Uiso   1.00
Zn126  Zn    0.50000   0.25000   0.19693   0.00000  Uiso   1.00
C127   C     0.66003   0.29346   0.19836   0.00000  Uiso   1.00
O128   O     0.33658   0.29159   0.15767   0.00000  Uiso   1.00
O129   O     0.63136   0.32896   0.21270   0.00000  Uiso   1.00
H130   H     0.62078   0.35061   0.18615   0.00000  Uiso   1.00
C131   C     0.33974   0.20842   0.30299   0.00000  Uiso   1.00
O132   O     0.66238   0.21072   0.34339   0.00000  Uiso   1.00
O133   O     0.36851   0.17270   0.28968   0.00000  Uiso   1.00
H134   H     0.37786   0.15112   0.31656   0.00000  Uiso   1.00
C135   C     0.59686   0.11517   0.22717   0.00000  Uiso   1.00
O136   O     0.59714   0.15416   0.21559   0.00000  Uiso   1.00
O137   O     0.64209   0.09039   0.22720   0.00000  Uiso   1.00
H138   H     0.33819   0.10827   0.21635   0.00000  Uiso   1.00
C139   C     0.44218   0.38650   0.31925   0.00000  Uiso   1.00
O140   O     0.41261   0.35507   0.30622   0.00000  Uiso   1.00
O141   O     0.44526   0.40366   0.36557   0.00000  Uiso   1.00
H142   H     0.42214   0.38660   0.38511   0.00000  Uiso   1.00
C143   C     0.45286   0.17673   0.11725   0.00000  Uiso   1.00
O144   O     0.41554   0.18270   0.13803   0.00000  Uiso   1.00
O145   O     0.46950   0.13351   0.10959   0.00000  Uiso   1.00
H146   H     0.44867   0.11006   0.12440   0.00000  Uiso   1.00
C147   C     0.57604   0.30231   0.38486   0.00000  Uiso   1.00
O148   O     0.62086   0.28947   0.38785   0.00000  Uiso   1.00
O149   O     0.56311   0.34457   0.36744   0.00000  Uiso   1.00
H150   H     0.59366   0.36069   0.35631   0.00000  Uiso   1.00
H151   H     0.53678   0.31626   0.04180   0.00000  Uiso   1.00
H152   H     0.43114   0.20749   0.45478   0.00000  Uiso   1.00
C153   C     0.83553   0.16421   0.24988   0.00000  Uiso   1.00
C154   C     0.83134   0.33603   0.25009   0.00000  Uiso   1.00
C155   C     0.81344   0.21426   0.04868   0.00000  Uiso   1.00
C156   C     0.87076   0.27474   0.45304   0.00000  Uiso   1.00
C157   C     0.81211   0.21477   0.09790   0.00000  Uiso   1.00
C158   C     0.86998   0.27472   0.40348   0.00000  Uiso   1.00
C159   C     0.85452   0.28546   0.10595   0.00000  Uiso   1.00
C160   C     0.79664   0.22584   0.39249   0.00000  Uiso   1.00
C161   C     0.85449   0.28678   0.05642   0.00000  Uiso   1.00
C162   C     0.79534   0.22613   0.44181   0.00000  Uiso   1.00
C163   C     0.83369   0.25072   0.02665   0.00000  Uiso   1.00
C164   C     0.83306   0.25064   0.47331   0.00000  Uiso   1.00
C165   C     0.73383   0.25033   0.23779   0.00000  Uiso   1.00
C166   C     0.93280   0.25030   0.26231   0.00000  Uiso   1.00
C167   C     0.67990   0.25855   0.23319   0.00000  Uiso   1.00
C168   C     0.98679   0.24274   0.26740   0.00000  Uiso   1.00
C169   C     0.79183   0.04810   0.25987   0.00000  Uiso   1.00
C170   C     0.85360   0.45257   0.21627   0.00000  Uiso   1.00
C171   C     0.79303   0.09391   0.25897   0.00000  Uiso   1.00
C172   C     0.85148   0.40670   0.21574   0.00000  Uiso   1.00
C173   C     0.83742   0.11656   0.24911   0.00000  Uiso   1.00
C174   C     0.82881   0.38407   0.25043   0.00000  Uiso   1.00
C175   C     0.88204   0.09332   0.23975   0.00000  Uiso   1.00
C176   C     0.80638   0.40789   0.28547   0.00000  Uiso   1.00
C177   C     0.88071   0.04701   0.24249   0.00000  Uiso   1.00
C178   C     0.81107   0.45409   0.28682   0.00000  Uiso   1.00
C179   C     0.83581   0.02458   0.25207   0.00000  Uiso   1.00
C180   C     0.83412   0.47632   0.25215   0.00000  Uiso   1.00
H181   H     0.75636   0.03109   0.26609   0.00000  Uiso   1.00
H182   H     0.87029   0.46948   0.18853   0.00000  Uiso   1.00
H183   H     0.75885   0.11175   0.26515   0.00000  Uiso   1.00
H184   H     0.86813   0.38892   0.18835   0.00000  Uiso   1.00
H185   H     0.91448   0.02803   0.23674   0.00000  Uiso   1.00
H186   H     0.79541   0.47294   0.31411   0.00000  Uiso   1.00
H187   H     0.79794   0.18531   0.02779   0.00000  Uiso   1.00
H188   H     0.90122   0.29349   0.47544   0.00000  Uiso   1.00
H189   H     0.87108   0.31326   0.12809   0.00000  Uiso   1.00
H190   H     0.76801   0.20633   0.36914   0.00000  Uiso   1.00
N191   N     0.83333   0.24999   0.12623   0.00000  Uiso   1.00
N192   N     0.83333   0.25001   0.37377   0.00000  Uiso   1.00
O193   O     0.83334   0.18454   0.28974   0.00000  Uiso   1.00
O194   O     0.83333   0.31547   0.21026   0.00000  Uiso   1.00
O195   O     0.83334   0.18453   0.21026   0.00000  Uiso   1.00
O196   O     0.83333   0.31547   0.28974   0.00000  Uiso   1.00
O197   O     0.75725   0.25000   0.28045   0.00000  Uiso   1.00
O198   O     0.90942   0.25000   0.21955   0.00000  Uiso   1.00
O199   O     0.75725   0.24999   0.20097   0.00000  Uiso   1.00
O200   O     0.90942   0.25001   0.29903   0.00000  Uiso   1.00
Zn201  Zn    0.83333   0.25001   0.30307   0.00000  Uiso   1.00
Zn202  Zn    0.83333   0.25000   0.19693   0.00000  Uiso   1.00
C203   C     0.99336   0.29346   0.19836   0.00000  Uiso   1.00
O204   O     0.66992   0.29159   0.15767   0.00000  Uiso   1.00
O205   O     0.96469   0.32896   0.21270   0.00000  Uiso   1.00
H206   H     0.95412   0.35061   0.18615   0.00000  Uiso   1.00
C207   C     0.67307   0.20842   0.30299   0.00000  Uiso   1.00
O208   O     0.99571   0.21072   0.34339   0.00000  Uiso   1.00
O209   O     0.70184   0.17270   0.28968   0.00000  Uiso   1.00
H210   H     0.71119   0.15112   0.31656   0.00000  Uiso   1.00
C211   C     0.93019   0.11517   0.22717   0.00000  Uiso   1.00
O212   O     0.93047   0.15416   0.21559   0.00000  Uiso   1.00
O213   O     0.97542   0.09039   0.22720   0.00000  Uiso   1.00
H214   H     0.67153   0.10827   0.21635   0.00000  Uiso   1.00
C215   C     0.77551   0.38650   0.31925   0.00000  Uiso   1.00
O216   O     0.74594   0.35507   0.30622   0.00000  Uiso   1.00
O217   O     0.77860   0.40366   0.36557   0.00000  Uiso   1.00
H218   H     0.75547   0.38660   0.38511   0.00000  Uiso   1.00
C219   C     0.78619   0.17673   0.11725   0.00000  Uiso   1.00
O220   O     0.74887   0.18270   0.13803   0.00000  Uiso   1.00
O221   O     0.80284   0.13351   0.10959   0.00000  Uiso   1.00
H222   H     0.78200   0.11006   0.12440   0.00000  Uiso   1.00
C223   C     0.90937   0.30231   0.38486   0.00000  Uiso   1.00
O224   O     0.95420   0.28947   0.38785   0.00000  Uiso   1.00
O225   O     0.89645   0.34457   0.36744   0.00000  Uiso   1.00
H226   H     0.92699   0.36069   0.35631   0.00000  Uiso   1.00
H227   H     0.87012   0.31626   0.04180   0.00000  Uiso   1.00
H228   H     0.76447   0.20749   0.45478   0.00000  Uiso   1.00
C229   C     0.16886   0.66421   0.24988   0.00000  Uiso   1.00
C230   C     0.16467   0.83603   0.25009   0.00000  Uiso   1.00
C231   C     0.14677   0.71426   0.04868   0.00000  Uiso   1.00
C232   C     0.20409   0.77474   0.45304   0.00000  Uiso   1.00
C233   C     0.14545   0.71477   0.09790   0.00000  Uiso   1.00
C234   C     0.20332   0.77472   0.40348   0.00000  Uiso   1.00
C235   C     0.18785   0.78546   0.10595   0.00000  Uiso   1.00
C236   C     0.12997   0.72584   0.39249   0.00000  Uiso   1.00
C237   C     0.18782   0.78678   0.05642   0.00000  Uiso   1.00
C238   C     0.12867   0.72613   0.44181   0.00000  Uiso   1.00
C239   C     0.16703   0.75072   0.02665   0.00000  Uiso   1.00
C240   C     0.16639   0.75064   0.47331   0.00000  Uiso   1.00
C241   C     0.06717   0.75033   0.23779   0.00000  Uiso   1.00
C242   C     0.26614   0.75030   0.26231   0.00000  Uiso   1.00
C243   C     0.01323   0.75855   0.23319   0.00000  Uiso   1.00
C244   C     0.32013   0.74274   0.26740   0.00000  Uiso   1.00
C245   C     0.12517   0.54810   0.25987   0.00000  Uiso   1.00
C246   C     0.18693   0.95257   0.21627   0.00000  Uiso   1.00
C247   C     0.12636   0.59391   0.25897   0.00000  Uiso   1.00
C248   C     0.18481   0.90670   0.21574   0.00000  Uiso   1.00
C249   C     0.17076   0.61656   0.24911   0.00000  Uiso   1.00
C250   C     0.16214   0.88407   0.25043   0.00000  Uiso   1.00
C251   C     0.21537   0.59332   0.23975   0.00000  Uiso   1.00
C252   C     0.13972   0.90789   0.28547   0.00000  Uiso   1.00
C253   C     0.21405   0.54701   0.24249   0.00000  Uiso   1.00
C254   C     0.14440   0.95409   0.28682   0.00000  Uiso   1.00
C255   C     0.16914   0.52458   0.25207   0.00000  Uiso   1.00
C256   C     0.16746   0.97632   0.25215   0.00000  Uiso   1.00
H257   H     0.08970   0.53109   0.26609   0.00000  Uiso   1.00
H258   H     0.20363   0.96948   0.18853   0.00000  Uiso   1.00
H259   H     0.09218   0.61175   0.26515   0.00000  Uiso   1.00
H260   H     0.20147   0.88892   0.18835   0.00000  Uiso   1.00
H261   H     0.24781   0.52803   0.23674   0.00000  Uiso   1.00
H262   H     0.12874   0.97294   0.31411   0.00000  Uiso   1.00
H263   H     0.13128   0.68531   0.02779   0.00000  Uiso   1.00
H264   H     0.23455   0.79349   0.47544   0.00000  Uiso   1.00
H265   H     0.20441   0.81326   0.12809   0.00000  Uiso   1.00
H266   H     0.10135   0.70633   0.36914   0.00000  Uiso   1.00
N267   N     0.16667   0.74999   0.12623   0.00000  Uiso   1.00
N268   N     0.16667   0.75001   0.37377   0.00000  Uiso   1.00
O269   O     0.16667   0.68454   0.28974   0.00000  Uiso   1.00
O270   O     0.16666   0.81547   0.21026   0.00000  Uiso   1.00
O271   O     0.16667   0.68453   0.21026   0.00000  Uiso   1.00
O272   O     0.16666   0.81547   0.28974   0.00000  Uiso   1.00
O273   O     0.09058   0.75000   0.28045   0.00000  Uiso   1.00
O274   O     0.24275   0.75000   0.21955   0.00000  Uiso   1.00
O275   O     0.09058   0.74999   0.20097   0.00000  Uiso   1.00
O276   O     0.24275   0.75001   0.29903   0.00000  Uiso   1.00
Zn277  Zn    0.16667   0.75001   0.30307   0.00000  Uiso   1.00
Zn278  Zn    0.16667   0.75000   0.19693   0.00000  Uiso   1.00
C279   C     0.32669   0.79346   0.19836   0.00000  Uiso   1.00
O280   O     0.00325   0.79159   0.15767   0.00000  Uiso   1.00
O281   O     0.29802   0.82896   0.21270   0.00000  Uiso   1.00
H282   H     0.28745   0.85061   0.18615   0.00000  Uiso   1.00
C283   C     0.00640   0.70842   0.30299   0.00000  Uiso   1.00
O284   O     0.32905   0.71072   0.34339   0.00000  Uiso   1.00
O285   O     0.03518   0.67270   0.28968   0.00000  Uiso   1.00
H286   H     0.04452   0.65112   0.31656   0.00000  Uiso   1.00
C287   C     0.26352   0.61517   0.22717   0.00000  Uiso   1.00
O288   O     0.26381   0.65416   0.21559   0.00000  Uiso   1.00
O289   O     0.30875   0.59039   0.22720   0.00000  Uiso   1.00
H290   H     0.00486   0.60827   0.21635   0.00000  Uiso   1.00
C291   C     0.10884   0.88650   0.31925   0.00000  Uiso   1.00
O292   O     0.07927   0.85507   0.30622   0.00000  Uiso   1.00
O293   O     0.11193   0.90366   0.36557   0.00000  Uiso   1.00
H294   H     0.08880   0.88660   0.38511   0.00000  Uiso   1.00
C295   C     0.11952   0.67673   0.11725   0.00000  Uiso   1.00
O296   O     0.08220   0.68270   0.13803   0.00000  Uiso   1.00
O297   O     0.13617   0.63351   0.10959   0.00000  Uiso   1.00
H298   H     0.11533   0.61006   0.12440   0.00000  Uiso   1.00
C299   C     0.24271   0.80231   0.38486   0.00000  Uiso   1.00
O300   O     0.28753   0.78947   0.38785   0.00000  Uiso   1.00
O301   O     0.22978   0.84457   0.36744   0.00000  Uiso   1.00
H302   H     0.26033   0.86069   0.35631   0.00000  Uiso   1.00
H303   H     0.20345   0.81626   0.04180   0.00000  Uiso   1.00
H304   H     0.09780   0.70749   0.45478   0.00000  Uiso   1.00
C305   C     0.50219   0.66421   0.24988   0.00000  Uiso   1.00
C306   C     0.49801   0.83603   0.25009   0.00000  Uiso   1.00
C307   C     0.48010   0.71426   0.04868   0.00000  Uiso   1.00
C308   C     0.53743   0.77474   0.45304   0.00000  Uiso   1.00
C309   C     0.47878   0.71477   0.09790   0.00000  Uiso   1.00
C310   C     0.53665   0.77472   0.40348   0.00000  Uiso   1.00
C311   C     0.52119   0.78546   0.10595   0.00000  Uiso   1.00
C312   C     0.46330   0.72584   0.39249   0.00000  Uiso   1.00
C313   C     0.52116   0.78678   0.05642   0.00000  Uiso   1.00
C314   C     0.46201   0.72613   0.44181   0.00000  Uiso   1.00
C315   C     0.50036   0.75072   0.02665   0.00000  Uiso   1.00
C316   C     0.49973   0.75064   0.47331   0.00000  Uiso   1.00
C317   C     0.40050   0.75033   0.23779   0.00000  Uiso   1.00
C318   C     0.59947   0.75030   0.26231   0.00000  Uiso   1.00
C319   C     0.34657   0.75855   0.23319   0.00000  Uiso   1.00
C320   C     0.65346   0.74274   0.26740   0.00000  Uiso   1.00
C321   C     0.45850   0.54810   0.25987   0.00000  Uiso   1.00
C322   C     0.52026   0.95257   0.21627   0.00000  Uiso   1.00
C323   C     0.45969   0.59391   0.25897   0.00000  Uiso   1.00
C324   C     0.51814   0.90670   0.21574   0.00000  Uiso   1.00
C325   C     0.50409   0.61656   0.24911   0.00000  Uiso   1.00
C326   C     0.49548   0.88407   0.25043   0.00000  Uiso   1.00
C327   C     0.54871   0.59332   0.23975   0.00000  Uiso   1.00
C328   C     0.47305   0.90789   0.28547   0.00000  Uiso   1.00
C329   C     0.54738   0.54701   0.24249   0.00000  Uiso   1.00
C330   C     0.47773   0.95409   0.28682   0.00000  Uiso   1.00
C331   C     0.50247   0.52458   0.25207   0.00000  Uiso   1.00
C332   C     0.50079   0.97632   0.25215   0.00000  Uiso   1.00
H333   H     0.42303   0.53109   0.26609   0.00000  Uiso   1.00
H334   H     0.53696   0.96948   0.18853   0.00000  Uiso   1.00
H335   H     0.42551   0.61175   0.26515   0.00000  Uiso   1.00
H336   H     0.53480   0.88892   0.18835   0.00000  Uiso   1.00
H337   H     0.58114   0.52803   0.23674   0.00000  Uiso   1.00
H338   H     0.46207   0.97294   0.31411   0.00000  Uiso   1.00
H339   H     0.46461   0.68531   0.02779   0.00000  Uiso   1.00
H340   H     0.56788   0.79349   0.47544   0.00000  Uiso   1.00
H341   H     0.53775   0.81326   0.12809   0.00000  Uiso   1.00
H342   H     0.43468   0.70633   0.36914   0.00000  Uiso   1.00
N343   N     0.50000   0.74999   0.12623   0.00000  Uiso   1.00
N344   N     0.50000   0.75001   0.37377   0.00000  Uiso   1.00
O345   O     0.50000   0.68454   0.28974   0.00000  Uiso   1.00
O346   O     0.50000   0.81547   0.21026   0.00000  Uiso   1.00
O347   O     0.50000   0.68453   0.21026   0.00000  Uiso   1.00
O348   O     0.50000   0.81547   0.28974   0.00000  Uiso   1.00
O349   O     0.42392   0.75000   0.28045   0.00000  Uiso   1.00
O350   O     0.57608   0.75000   0.21955   0.00000  Uiso   1.00
O351   O     0.42392   0.74999   0.20097   0.00000  Uiso   1.00
O352   O     0.57608   0.75001   0.29903   0.00000  Uiso   1.00
Zn353  Zn    0.50000   0.75001   0.30307   0.00000  Uiso   1.00
Zn354  Zn    0.50000   0.75000   0.19693   0.00000  Uiso   1.00
C355   C     0.66003   0.79346   0.19836   0.00000  Uiso   1.00
O356   O     0.33658   0.79159   0.15767   0.00000  Uiso   1.00
O357   O     0.63136   0.82896   0.21270   0.00000  Uiso   1.00
H358   H     0.62078   0.85061   0.18615   0.00000  Uiso   1.00
C359   C     0.33974   0.70842   0.30299   0.00000  Uiso   1.00
O360   O     0.66238   0.71072   0.34339   0.00000  Uiso   1.00
O361   O     0.36851   0.67270   0.28968   0.00000  Uiso   1.00
H362   H     0.37786   0.65112   0.31656   0.00000  Uiso   1.00
C363   C     0.59686   0.61517   0.22717   0.00000  Uiso   1.00
O364   O     0.59714   0.65416   0.21559   0.00000  Uiso   1.00
O365   O     0.64209   0.59039   0.22720   0.00000  Uiso   1.00
H366   H     0.33819   0.60827   0.21635   0.00000  Uiso   1.00
C367   C     0.44218   0.88650   0.31925   0.00000  Uiso   1.00
O368   O     0.41261   0.85507   0.30622   0.00000  Uiso   1.00
O369   O     0.44526   0.90366   0.36557   0.00000  Uiso   1.00
H370   H     0.42214   0.88660   0.38511   0.00000  Uiso   1.00
C371   C     0.45286   0.67673   0.11725   0.00000  Uiso   1.00
O372   O     0.41554   0.68270   0.13803   0.00000  Uiso   1.00
O373   O     0.46950   0.63351   0.10959   0.00000  Uiso   1.00
H374   H     0.44867   0.61006   0.12440   0.00000  Uiso   1.00
C375   C     0.57604   0.80231   0.38486   0.00000  Uiso   1.00
O376   O     0.62086   0.78947   0.38785   0.00000  Uiso   1.00
O377   O     0.56311   0.84457   0.36744   0.00000  Uiso   1.00
H378   H     0.59366   0.86069   0.35631   0.00000  Uiso   1.00
H379   H     0.53678   0.81626   0.04180   0.00000  Uiso   1.00
H380   H     0.43114   0.70749   0.45478   0.00000  Uiso   1.00
C381   C     0.83553   0.66421   0.24988   0.00000  Uiso   1.00
C382   C     0.83134   0.83603   0.25009   0.00000  Uiso   1.00
C383   C     0.81344   0.71426   0.04868   0.00000  Uiso   1.00
C384   C     0.87076   0.77474   0.45304   0.00000  Uiso   1.00
C385   C     0.81211   0.71477   0.09790   0.00000  Uiso   1.00
C386   C     0.86998   0.77472   0.40348   0.00000  Uiso   1.00
C387   C     0.85452   0.78546   0.10595   0.00000  Uiso   1.00
C388   C     0.79664   0.72584   0.39249   0.00000  Uiso   1.00
C389   C     0.85449   0.78678   0.05642   0.00000  Uiso   1.00
C390   C     0.79534   0.72613   0.44181   0.00000  Uiso   1.00
C391   C     0.83369   0.75072   0.02665   0.00000  Uiso   1.00
C392   C     0.83306   0.75064   0.47331   0.00000  Uiso   1.00
C393   C     0.73383   0.75033   0.23779   0.00000  Uiso   1.00
C394   C     0.93280   0.75030   0.26231   0.00000  Uiso   1.00
C395   C     0.67990   0.75855   0.23319   0.00000  Uiso   1.00
C396   C     0.98679   0.74274   0.26740   0.00000  Uiso   1.00
C397   C     0.79183   0.54810   0.25987   0.00000  Uiso   1.00
C398   C     0.85360   0.95257   0.21627   0.00000  Uiso   1.00
C399   C     0.79303   0.59391   0.25897   0.00000  Uiso   1.00
C400   C     0.85148   0.90670   0.21574   0.00000  Uiso   1.00
C401   C     0.83742   0.61656   0.24911   0.00000  Uiso   1.00
C402   C     0.82881   0.88407   0.25043   0.00000  Uiso   1.00
C403   C     0.88204   0.59332   0.23975   0.00000  Uiso   1.00
C404   C     0.80638   0.90789   0.28547   0.00000  Uiso   1.00
C405   C     0.88071   0.54701   0.24249   0.00000  Uiso   1.00
C406   C     0.81107   0.95409   0.28682   0.00000  Uiso   1.00
C407   C     0.83581   0.52458   0.25207   0.00000  Uiso   1.00
C408   C     0.83412   0.97632   0.25215   0.00000  Uiso   1.00
H409   H     0.75636   0.53109   0.26609   0.00000  Uiso   1.00
H410   H     0.87029   0.96948   0.18853   0.00000  Uiso   1.00
H411   H     0.75885   0.61175   0.26515   0.00000  Uiso   1.00
H412   H     0.86813   0.88892   0.18835   0.00000  Uiso   1.00
H413   H     0.91448   0.52803   0.23674   0.00000  Uiso   1.00
H414   H     0.79541   0.97294   0.31411   0.00000  Uiso   1.00
H415   H     0.79794   0.68531   0.02779   0.00000  Uiso   1.00
H416   H     0.90122   0.79349   0.47544   0.00000  Uiso   1.00
H417   H     0.87108   0.81326   0.12809   0.00000  Uiso   1.00
H418   H     0.76801   0.70633   0.36914   0.00000  Uiso   1.00
N419   N     0.83333   0.74999   0.12623   0.00000  Uiso   1.00
N420   N     0.83333   0.75001   0.37377   0.00000  Uiso   1.00
O421   O     0.83334   0.68454   0.28974   0.00000  Uiso   1.00
O422   O     0.83333   0.81547   0.21026   0.00000  Uiso   1.00
O423   O     0.83334   0.68453   0.21026   0.00000  Uiso   1.00
O424   O     0.83333   0.81547   0.28974   0.00000  Uiso   1.00
O425   O     0.75725   0.75000   0.28045   0.00000  Uiso   1.00
O426   O     0.90942   0.75000   0.21955   0.00000  Uiso   1.00
O427   O     0.75725   0.74999   0.20097   0.00000  Uiso   1.00
O428   O     0.90942   0.75001   0.29903   0.00000  Uiso   1.00
Zn429  Zn    0.83333   0.75001   0.30307   0.00000  Uiso   1.00
Zn430  Zn    0.83333   0.75000   0.19693   0.00000  Uiso   1.00
C431   C     0.99336   0.79346   0.19836   0.00000  Uiso   1.00
O432   O     0.66992   0.79159   0.15767   0.00000  Uiso   1.00
O433   O     0.96469   0.82896   0.21270   0.00000  Uiso   1.00
H434   H     0.95412   0.85061   0.18615   0.00000  Uiso   1.00
C435   C     0.67307   0.70842   0.30299   0.00000  Uiso   1.00
O436   O     0.99571   0.71072   0.34339   0.00000  Uiso   1.00
O437   O     0.70184   0.67270   0.28968   0.00000  Uiso   1.00
H438   H     0.71119   0.65112   0.31656   0.00000  Uiso   1.00
C439   C     0.93019   0.61517   0.22717   0.00000  Uiso   1.00
O440   O     0.93047   0.65416   0.21559   0.00000  Uiso   1.00
O441   O     0.97542   0.59039   0.22720   0.00000  Uiso   1.00
H442   H     0.67153   0.60827   0.21635   0.00000  Uiso   1.00
C443   C     0.77551   0.88650   0.31925   0.00000  Uiso   1.00
O444   O     0.74594   0.85507   0.30622   0.00000  Uiso   1.00
O445   O     0.77860   0.90366   0.36557   0.00000  Uiso   1.00
H446   H     0.75547   0.88660   0.38511   0.00000  Uiso   1.00
C447   C     0.78619   0.67673   0.11725   0.00000  Uiso   1.00
O448   O     0.74887   0.68270   0.13803   0.00000  Uiso   1.00
O449   O     0.80284   0.63351   0.10959   0.00000  Uiso   1.00
H450   H     0.78200   0.61006   0.12440   0.00000  Uiso   1.00
C451   C     0.90937   0.80231   0.38486   0.00000  Uiso   1.00
O452   O     0.95420   0.78947   0.38785   0.00000  Uiso   1.00
O453   O     0.89645   0.84457   0.36744   0.00000  Uiso   1.00
H454   H     0.92699   0.86069   0.35631   0.00000  Uiso   1.00
H455   H     0.87012   0.81626   0.04180   0.00000  Uiso   1.00
H456   H     0.76447   0.70749   0.45478   0.00000  Uiso   1.00
C457   C     0.16886   0.16421   0.74988   0.00000  Uiso   1.00
C458   C     0.16467   0.33603   0.75009   0.00000  Uiso   1.00
C459   C     0.14677   0.21426   0.54868   0.00000  Uiso   1.00
C460   C     0.20409   0.27474   0.95304   0.00000  Uiso   1.00
C461   C     0.14545   0.21477   0.59790   0.00000  Uiso   1.00
C462   C     0.20332   0.27472   0.90348   0.00000  Uiso   1.00
C463   C     0.18785   0.28546   0.60595   0.00000  Uiso   1.00
C464   C     0.12997   0.22584   0.89249   0.00000  Uiso   1.00
C465   C     0.18782   0.28678   0.55642   0.00000  Uiso   1.00
C466   C     0.12867   0.22613   0.94181   0.00000  Uiso   1.00
C467   C     0.16703   0.25072   0.52665   0.00000  Uiso   1.00
C468   C     0.16639   0.25064   0.97331   0.00000  Uiso   1.00
C469   C     0.06717   0.25033   0.73779   0.00000  Uiso   1.00
C470   C     0.26614   0.25030   0.76231   0.00000  Uiso   1.00
C471   C     0.01323   0.25855   0.73319   0.00000  Uiso   1.00
C472   C     0.32013   0.24274   0.76740   0.00000  Uiso   1.00
C473   C     0.12517   0.04810   0.75987   0.00000  Uiso   1.00
C474   C     0.18693   0.45257   0.71627   0.00000  Uiso   1.00
C475   C     0.12636   0.09391   0.75897   0.00000  Uiso   1.00
C476   C     0.18481   0.40670   0.71574   0.00000  Uiso   1.00
C477   C     0.17076   0.11656   0.74911   0.00000  Uiso   1.00
C478   C     0.16214   0.38407   0.75043   0.00000  Uiso   1.00
C479   C     0.21537   0.09332   0.73975   0.00000  Uiso   1.00
C480   C     0.13972   0.40789   0.78547   0.00000  Uiso   1.00
C481   C     0.21405   0.04701   0.74249   0.00000  Uiso   1.00
C482   C     0.14440   0.45409   0.78682   0.00000  Uiso   1.00
C483   C     0.16914   0.02458   0.75207   0.00000  Uiso   1.00
C484   C     0.16746   0.47632   0.75215   0.00000  Uiso   1.00
H485   H     0.08970   0.03109   0.76609   0.00000  Uiso   1.00
H486   H     0.20363   0.46948   0.68853   0.00000  Uiso   1.00
H487   H     0.09218   0.11175   0.76515   0.00000  Uiso   1.00
H488   H     0.20147   0.38892   0.68835   0.00000  Uiso   1.00
H489   H     0.24781   0.02803   0.73674   0.00000  Uiso   1.00
H490   H     0.12874   0.47294   0.81411   0.00000  Uiso   1.00
H491   H     0.13128   0.18531   0.52779   0.00000  Uiso   1.00
H492   H     0.23455   0.29349   0.97544   0.00000  Uiso   1.00
H493   H     0.20441   0.31326   0.62809   0.00000  Uiso   1.00
H494   H     0.10135   0.20633   0.86914   0.00000  Uiso   1.00
N495   N     0.16667   0.24999   0.62623   0.00000  Uiso   1.00
N496   N     0.16667   0.25001   0.87377   0.00000  Uiso   1.00
O497   O     0.16667   0.18454   0.78974   0.00000  Uiso   1.00
O498   O     0.16666   0.31547   0.71026   0.00000  Uiso   1.00
O499   O     0.16667   0.18453   0.71026   0.00000  Uiso   1.00
O500   O     0.16666   0.31547   0.78974   0.00000  Uiso   1.00
O501   O     0.09058   0.25000   0.78045   0.00000  Uiso   1.00
O502   O     0.24275   0.25000   0.71955   0.00000  Uiso   1.00
O503   O     0.09058   0.24999   0.70097   0.00000  Uiso   1.00
O504   O     0.24275   0.25001   0.79903   0.00000  Uiso   1.00
Zn505  Zn    0.16667   0.25001   0.80307   0.00000  Uiso   1.00
Zn506  Zn    0.16667   0.25000   0.69693   0.00000  Uiso   1.00
C507   C     0.32669   0.29346   0.69836   0.00000  Uiso   1.00
O508   O     0.00325   0.29159   0.65767   0.00000  Uiso   1.00
O509   O     0.29802   0.32896   0.71270   0.00000  Uiso   1.00
H510   H     0.28745   0.35061   0.68615   0.00000  Uiso   1.00
C511   C     0.00640   0.20842   0.80299   0.00000  Uiso   1.00
O512   O     0.32905   0.21072   0.84339   0.00000  Uiso   1.00
O513   O     0.03518   0.17270   0.78968   0.00000  Uiso   1.00
H514   H     0.04452   0.15112   0.81656   0.00000  Uiso   1.00
C515   C     0.26352   0.11517   0.72717   0.00000  Uiso   1.00
O516   O     0.26381   0.15416   0.71559   0.00000  Uiso   1.00
O517   O     0.30875   0.09039   0.72720   0.00000  Uiso   1.00
H518   H     0.00486   0.10827   0.71635   0.00000  Uiso   1.00
C519   C     0.10884   0.38650   0.81925   0.00000  Uiso   1.00
O520   O     0.07927   0.35507   0.80622   0.00000  Uiso   1.00
O521   O     0.11193   0.40366   0.86557   0.00000  Uiso   1.00
H522   H     0.08880   0.38660   0.88511   0.00000  Uiso   1.00
C523   C     0.11952   0.17673   0.61725   0.00000  Uiso   1.00
O524   O     0.08220   0.18270   0.63803   0.00000  Uiso   1.00
O525   O     0.13617   0.13351   0.60959   0.00000  Uiso   1.00
H526   H     0.11533   0.11006   0.62440   0.00000  Uiso   1.00
C527   C     0.24271   0.30231   0.88486   0.00000  Uiso   1.00
O528   O     0.28753   0.28947   0.88785   0.00000  Uiso   1.00
O529   O     0.22978   0.34457   0.86744   0.00000  Uiso   1.00
H530   H     0.26033   0.36069   0.85631   0.00000  Uiso   1.00
H531   H     0.20345   0.31626   0.54180   0.00000  Uiso   1.00
H532   H     0.09780   0.20749   0.95478   0.00000  Uiso   1.00
C533   C     0.50219   0.16421   0.74988   0.00000  Uiso   1.00
C534   C     0.49801   0.33603   0.75009   0.00000  Uiso   1.00
C535   C     0.48010   0.21426   0.54868   0.00000  Uiso   1.00
C536   C     0.53743   0.27474   0.95304   0.00000  Uiso   1.00
C537   C     0.47878   0.21477   0.59790   0.00000  Uiso   1.00
C538   C     0.53665   0.27472   0.90348   0.00000  Uiso   1.00
C539   C     0.52119   0.28546   0.60595   0.00000  Uiso   1.00
C540   C     0.46330   0.22584   0.89249   0.00000  Uiso   1.00
C541   C     0.52116   0.28678   0.55642   0.00000  Uiso   1.00
C542   C     0.46201   0.22613   0.94181   0.00000  Uiso   1.00
C543   C     0.50036   0.25072   0.52665   0.00000  Uiso   1.00
C544   C     0.49973   0.25064   0.97331   0.00000  Uiso   1.00
C545   C     0.40050   0.25033   0.73779   0.00000  Uiso   1.00
C546   C     0.59947   0.25030   0.76231   0.00000  Uiso   1.00
C547   C     0.34657   0.25855   0.73319   0.00000  Uiso   1.00
C548   C     0.65346   0.24274   0.76740   0.00000  Uiso   1.00
C549   C     0.45850   0.04810   0.75987   0.00000  Uiso   1.00
C550   C     0.52026   0.45257   0.71627   0.00000  Uiso   1.00
C551   C     0.45969   0.09391   0.75897   0.00000  Uiso   1.00
C552   C     0.51814   0.40670   0.71574   0.00000  Uiso   1.00
C553   C     0.50409   0.11656   0.74911   0.00000  Uiso   1.00
C554   C     0.49548   0.38407   0.75043   0.00000  Uiso   1.00
C555   C     0.54871   0.09332   0.73975   0.00000  Uiso   1.00
C556   C     0.47305   0.40789   0.78547   0.00000  Uiso   1.00
C557   C     0.54738   0.04701   0.74249   0.00000  Uiso   1.00
C558   C     0.47773   0.45409   0.78682   0.00000  Uiso   1.00
C559   C     0.50247   0.02458   0.75207   0.00000  Uiso   1.00
C560   C     0.50079   0.47632   0.75215   0.00000  Uiso   1.00
H561   H     0.42303   0.03109   0.76609   0.00000  Uiso   1.00
H562   H     0.53696   0.46948   0.68853   0.00000  Uiso   1.00
H563   H     0.42551   0.11175   0.76515   0.00000  Uiso   1.00
H564   H     0.53480   0.38892   0.68835   0.00000  Uiso   1.00
H565   H     0.58114   0.02803   0.73674   0.00000  Uiso   1.00
H566   H     0.46207   0.47294   0.81411   0.00000  Uiso   1.00
H567   H     0.46461   0.18531   0.52779   0.00000  Uiso   1.00
H568   H     0.56788   0.29349   0.97544   0.00000  Uiso   1.00
H569   H     0.53775   0.31326   0.62809   0.00000  Uiso   1.00
H570   H     0.43468   0.20633   0.86914   0.00000  Uiso   1.00
N571   N     0.50000   0.24999   0.62623   0.00000  Uiso   1.00
N572   N     0.50000   0.25001   0.87377   0.00000  Uiso   1.00
O573   O     0.50000   0.18454   0.78974   0.00000  Uiso   1.00
O574   O     0.50000   0.31547   0.71026   0.00000  Uiso   1.00
O575   O     0.50000   0.18453   0.71026   0.00000  Uiso   1.00
O576   O     0.50000   0.31547   0.78974   0.00000  Uiso   1.00
O577   O     0.42392   0.25000   0.78045   0.00000  Uiso   1.00
O578   O     0.57608   0.25000   0.71955   0.00000  Uiso   1.00
O579   O     0.42392   0.24999   0.70097   0.00000  Uiso   1.00
O580   O     0.57608   0.25001   0.79903   0.00000  Uiso   1.00
Zn581  Zn    0.50000   0.25001   0.80307   0.00000  Uiso   1.00
Zn582  Zn    0.50000   0.25000   0.69693   0.00000  Uiso   1.00
C583   C     0.66003   0.29346   0.69836   0.00000  Uiso   1.00
O584   O     0.33658   0.29159   0.65767   0.00000  Uiso   1.00
O585   O     0.63136   0.32896   0.71270   0.00000  Uiso   1.00
H586   H     0.62078   0.35061   0.68615   0.00000  Uiso   1.00
C587   C     0.33974   0.20842   0.80299   0.00000  Uiso   1.00
O588   O     0.66238   0.21072   0.84339   0.00000  Uiso   1.00
O589   O     0.36851   0.17270   0.78968   0.00000  Uiso   1.00
H590   H     0.37786   0.15112   0.81656   0.00000  Uiso   1.00
C591   C     0.59686   0.11517   0.72717   0.00000  Uiso   1.00
O592   O     0.59714   0.15416   0.71559   0.00000  Uiso   1.00
O593   O     0.64209   0.09039   0.72720   0.00000  Uiso   1.00
H594   H     0.33819   0.10827   0.71635   0.00000  Uiso   1.00
C595   C     0.44218   0.38650   0.81925   0.00000  Uiso   1.00
O596   O     0.41261   0.35507   0.80622   0.00000  Uiso   1.00
O597   O     0.44526   0.40366   0.86557   0.00000  Uiso   1.00
H598   H     0.42214   0.38660   0.88511   0.00000  Uiso   1.00
C599   C     0.45286   0.17673   0.61725   0.00000  Uiso   1.00
O600   O     0.41554   0.18270   0.63803   0.00000  Uiso   1.00
O601   O     0.46950   0.13351   0.60959   0.00000  Uiso   1.00
H602   H     0.44867   0.11006   0.62440   0.00000  Uiso   1.00
C603   C     0.57604   0.30231   0.88486   0.00000  Uiso   1.00
O604   O     0.62086   0.28947   0.88785   0.00000  Uiso   1.00
O605   O     0.56311   0.34457   0.86744   0.00000  Uiso   1.00
H606   H     0.59366   0.36069   0.85631   0.00000  Uiso   1.00
H607   H     0.53678   0.31626   0.54180   0.00000  Uiso   1.00
H608   H     0.43114   0.20749   0.95478   0.00000  Uiso   1.00
C609   C     0.83553   0.16421   0.74988   0.00000  Uiso   1.00
C610   C     0.83134   0.33603   0.75009   0.00000  Uiso   1.00
C611   C     0.81344   0.21426   0.54868   0.00000  Uiso   1.00
C612   C     0.87076   0.27474   0.95304   0.00000  Uiso   1.00
C613   C     0.81211   0.21477   0.59790   0.00000  Uiso   1.00
C614   C     0.86998   0.27472   0.90348   0.00000  Uiso   1.00
C615   C     0.85452   0.28546   0.60595   0.00000  Uiso   1.00
C616   C     0.79664   0.22584   0.89249   0.00000  Uiso   1.00
C617   C     0.85449   0.28678   0.55642   0.00000  Uiso   1.00
C618   C     0.79534   0.22613   0.94181   0.00000  Uiso   1.00
C619   C     0.83369   0.25072   0.52665   0.00000  Uiso   1.00
C620   C     0.83306   0.25064   0.97331   0.00000  Uiso   1.00
C621   C     0.73383   0.25033   0.73779   0.00000  Uiso   1.00
C622   C     0.93280   0.25030   0.76231   0.00000  Uiso   1.00
C623   C     0.67990   0.25855   0.73319   0.00000  Uiso   1.00
C624   C     0.98679   0.24274   0.76740   0.00000  Uiso   1.00
C625   C     0.79183   0.04810   0.75987   0.00000  Uiso   1.00
C626   C     0.85360   0.45257   0.71627   0.00000  Uiso   1.00
C627   C     0.79303   0.09391   0.75897   0.00000  Uiso   1.00
C628   C     0.85148   0.40670   0.71574   0.00000  Uiso   1.00
C629   C     0.83742   0.11656   0.74911   0.00000  Uiso   1.00
C630   C     0.82881   0.38407   0.75043   0.00000  Uiso   1.00
C631   C     0.88204   0.09332   0.73975   0.00000  Uiso   1.00
C632   C     0.80638   0.40789   0.78547   0.00000  Uiso   1.00
C633   C     0.88071   0.04701   0.74249   0.00000  Uiso   1.00
C634   C     0.81107   0.45409   0.78682   0.00000  Uiso   1.00
C635   C     0.83581   0.02458   0.75207   0.00000  Uiso   1.00
C636   C     0.83412   0.47632   0.75215   0.00000  Uiso   1.00
H637   H     0.75636   0.03109   0.76609   0.00000  Uiso   1.00
H638   H     0.87029   0.46948   0.68853   0.00000  Uiso   1.00
H639   H     0.75885   0.11175   0.76515   0.00000  Uiso   1.00
H640   H     0.86813   0.38892   0.68835   0.00000  Uiso   1.00
H641   H     0.91448   0.02803   0.73674   0.00000  Uiso   1.00
H642   H     0.79541   0.47294   0.81411   0.00000  Uiso   1.00
H643   H     0.79794   0.18531   0.52779   0.00000  Uiso   1.00
H644   H     0.90122   0.29349   0.97544   0.00000  Uiso   1.00
H645   H     0.87108   0.31326   0.62809   0.00000  Uiso   1.00
H646   H     0.76801   0.20633   0.86914   0.00000  Uiso   1.00
N647   N     0.83333   0.24999   0.62623   0.00000  Uiso   1.00
N648   N     0.83333   0.25001   0.87377   0.00000  Uiso   1.00
O649   O     0.83334   0.18454   0.78974   0.00000  Uiso   1.00
O650   O     0.83333   0.31547   0.71026   0.00000  Uiso   1.00
O651   O     0.83334   0.18453   0.71026   0.00000  Uiso   1.00
O652   O     0.83333   0.31547   0.78974   0.00000  Uiso   1.00
O653   O     0.75725   0.25000   0.78045   0.00000  Uiso   1.00
O654   O     0.90942   0.25000   0.71955   0.00000  Uiso   1.00
O655   O     0.75725   0.24999   0.70097   0.00000  Uiso   1.00
O656   O     0.90942   0.25001   0.79903   0.00000  Uiso   1.00
Zn657  Zn    0.83333   0.25001   0.80307   0.00000  Uiso   1.00
Zn658  Zn    0.83333   0.25000   0.69693   0.00000  Uiso   1.00
C659   C     0.99336   0.29346   0.69836   0.00000  Uiso   1.00
O660   O     0.66992   0.29159   0.65767   0.00000  Uiso   1.00
O661   O     0.96469   0.32896   0.71270   0.00000  Uiso   1.00
H662   H     0.95412   0.35061   0.68615   0.00000  Uiso   1.00
C663   C     0.67307   0.20842   0.80299   0.00000  Uiso   1.00
O664   O     0.99571   0.21072   0.84339   0.00000  Uiso   1.00
O665   O     0.70184   0.17270   0.78968   0.00000  Uiso   1.00
H666   H     0.71119   0.15112   0.81656   0.00000  Uiso   1.00
C667   C     0.93019   0.11517   0.72717   0.00000  Uiso   1.00
O668   O     0.93047   0.15416   0.71559   0.00000  Uiso   1.00
O669   O     0.97542   0.09039   0.72720   0.00000  Uiso   1.00
H670   H     0.67153   0.10827   0.71635   0.00000  Uiso   1.00
C671   C     0.77551   0.38650   0.81925   0.00000  Uiso   1.00
O672   O     0.74594   0.35507   0.80622   0.00000  Uiso   1.00
O673   O     0.77860   0.40366   0.86557   0.00000  Uiso   1.00
H674   H     0.75547   0.38660   0.88511   0.00000  Uiso   1.00
C675   C     0.78619   0.17673   0.61725   0.00000  Uiso   1.00
O676   O     0.74887   0.18270   0.63803   0.00000  Uiso   1.00
O677   O     0.80284   0.13351   0.60959   0.00000  Uiso   1.00
H678   H     0.78200   0.11006   0.62440   0.00000  Uiso   1.00
C679   C     0.90937   0.30231   0.88486   0.00000  Uiso   1.00
O680   O     0.95420   0.28947   0.88785   0.00000  Uiso   1.00
O681   O     0.89645   0.34457   0.86744   0.00000  Uiso   1.00
H682   H     0.92699   0.36069   0.85631   0.00000  Uiso   1.00
H683   H     0.87012   0.31626   0.54180   0.00000  Uiso   1.00
H684   H     0.76447   0.20749   0.95478   0.00000  Uiso   1.00
C685   C     0.16886   0.66421   0.74988   0.00000  Uiso   1.00
C686   C     0.16467   0.83603   0.75009   0.00000  Uiso   1.00
C687   C     0.14677   0.71426   0.54868   0.00000  Uiso   1.00
C688   C     0.20409   0.77474   0.95304   0.00000  Uiso   1.00
C689   C     0.14545   0.71477   0.59790   0.00000  Uiso   1.00
C690   C     0.20332   0.77472   0.90348   0.00000  Uiso   1.00
C691   C     0.18785   0.78546   0.60595   0.00000  Uiso   1.00
C692   C     0.12997   0.72584   0.89249   0.00000  Uiso   1.00
C693   C     0.18782   0.78678   0.55642   0.00000  Uiso   1.00
C694   C     0.12867   0.72613   0.94181   0.00000  Uiso   1.00
C695   C     0.16703   0.75072   0.52665   0.00000  Uiso   1.00
C696   C     0.16639   0.75064   0.97331   0.00000  Uiso   1.00
C697   C     0.06717   0.75033   0.73779   0.00000  Uiso   1.00
C698   C     0.26614   0.75030   0.76231   0.00000  Uiso   1.00
C699   C     0.01323   0.75855   0.73319   0.00000  Uiso   1.00
C700   C     0.32013   0.74274   0.76740   0.00000  Uiso   1.00
C701   C     0.12517   0.54810   0.75987   0.00000  Uiso   1.00
C702   C     0.18693   0.95257   0.71627   0.00000  Uiso   1.00
C703   C     0.12636   0.59391   0.75897   0.00000  Uiso   1.00
C704   C     0.18481   0.90670   0.71574   0.00000  Uiso   1.00
C705   C     0.17076   0.61656   0.74911   0.00000  Uiso   1.00
C706   C     0.16214   0.88407   0.75043   0.00000  Uiso   1.00
C707   C     0.21537   0.59332   0.73975   0.00000  Uiso   1.00
C708   C     0.13972   0.90789   0.78547   0.00000  Uiso   1.00
C709   C     0.21405   0.54701   0.74249   0.00000  Uiso   1.00
C710   C     0.14440   0.95409   0.78682   0.00000  Uiso   1.00
C711   C     0.16914   0.52458   0.75207   0.00000  Uiso   1.00
C712   C     0.16746   0.97632   0.75215   0.00000  Uiso   1.00
H713   H     0.08970   0.53109   0.76609   0.00000  Uiso   1.00
H714   H     0.20363   0.96948   0.68853   0.00000  Uiso   1.00
H715   H     0.09218   0.61175   0.76515   0.00000  Uiso   1.00
H716   H     0.20147   0.88892   0.68835   0.00000  Uiso   1.00
H717   H     0.24781   0.52803   0.73674   0.00000  Uiso   1.00
H718   H     0.12874   0.97294   0.81411   0.00000  Uiso   1.00
H719   H     0.13128   0.68531   0.52779   0.00000  Uiso   1.00
H720   H     0.23455   0.79349   0.97544   0.00000  Uiso   1.00
H721   H     0.20441   0.81326   0.62809   0.00000  Uiso   1.00
H722   H     0.10135   0.70633   0.86914   0.00000  Uiso   1.00
N723   N     0.16667   0.74999   0.62623   0.00000  Uiso   1.00
N724   N     0.16667   0.75001   0.87377   0.00000  Uiso   1.00
O725   O     0.16667   0.68454   0.78974   0.00000  Uiso   1.00
O726   O     0.16666   0.81547   0.71026   0.00000  Uiso   1.00
O727   O     0.16667   0.68453   0.71026   0.00000  Uiso   1.00
O728   O     0.16666   0.81547   0.78974   0.00000  Uiso   1.00
O729   O     0.09058   0.75000   0.78045   0.00000  Uiso   1.00
O730   O     0.24275   0.75000   0.71955   0.00000  Uiso   1.00
O731   O     0.09058   0.74999   0.70097   0.00000  Uiso   1.00
O732   O     0.24275   0.75001   0.79903   0.00000  Uiso   1.00
Zn733  Zn    0.16667   0.75001   0.80307   0.00000  Uiso   1.00
Zn734  Zn    0.16667   0.75000   0.69693   0.00000  Uiso   1.00
C735   C     0.32669   0.79346   0.69836   0.00000  Uiso   1.00
O736   O     0.00325   0.79159   0.65767   0.00000  Uiso   1.00
O737   O     0.29802   0.82896   0.71270   0.00000  Uiso   1.00
H738   H     0.28745   0.85061   0.68615   0.00000  Uiso   1.00
C739   C     0.00640   0.70842   0.80299   0.00000  Uiso   1.00
O740   O     0.32905   0.71072   0.84339   0.00000  Uiso   1.00
O741   O     0.03518   0.67270   0.78968   0.00000  Uiso   1.00
H742   H     0.04452   0.65112   0.81656   0.00000  Uiso   1.00
C743   C     0.26352   0.61517   0.72717   0.00000  Uiso   1.00
O744   O     0.26381   0.65416   0.71559   0.00000  Uiso   1.00
O745   O     0.30875   0.59039   0.72720   0.00000  Uiso   1.00
H746   H     0.00486   0.60827   0.71635   0.00000  Uiso   1.00
C747   C     0.10884   0.88650   0.81925   0.00000  Uiso   1.00
O748   O     0.07927   0.85507   0.80622   0.00000  Uiso   1.00
O749   O     0.11193   0.90366   0.86557   0.00000  Uiso   1.00
H750   H     0.08880   0.88660   0.88511   0.00000  Uiso   1.00
C751   C     0.11952   0.67673   0.61725   0.00000  Uiso   1.00
O752   O     0.08220   0.68270   0.63803   0.00000  Uiso   1.00
O753   O     0.13617   0.63351   0.60959   0.00000  Uiso   1.00
H754   H     0.11533   0.61006   0.62440   0.00000  Uiso   1.00
C755   C     0.24271   0.80231   0.88486   0.00000  Uiso   1.00
O756   O     0.28753   0.78947   0.88785   0.00000  Uiso   1.00
O757   O     0.22978   0.84457   0.86744   0.00000  Uiso   1.00
H758   H     0.26033   0.86069   0.85631   0.00000  Uiso   1.00
H759   H     0.20345   0.81626   0.54180   0.00000  Uiso   1.00
H760   H     0.09780   0.70749   0.95478   0.00000  Uiso   1.00
C761   C     0.50219   0.66421   0.74988   0.00000  Uiso   1.00
C762   C     0.49801   0.83603   0.75009   0.00000  Uiso   1.00
C763   C     0.48010   0.71426   0.54868   0.00000  Uiso   1.00
C764   C     0.53743   0.77474   0.95304   0.00000  Uiso   1.00
C765   C     0.47878   0.71477   0.59790   0.00000  Uiso   1.00
C766   C     0.53665   0.77472   0.90348   0.00000  Uiso   1.00
C767   C     0.52119   0.78546   0.60595   0.00000  Uiso   1.00
C768   C     0.46330   0.72584   0.89249   0.00000  Uiso   1.00
C769   C     0.52116   0.78678   0.55642   0.00000  Uiso   1.00
C770   C     0.46201   0.72613   0.94181   0.00000  Uiso   1.00
C771   C     0.50036   0.75072   0.52665   0.00000  Uiso   1.00
C772   C     0.49973   0.75064   0.97331   0.00000  Uiso   1.00
C773   C     0.40050   0.75033   0.73779   0.00000  Uiso   1.00
C774   C     0.59947   0.75030   0.76231   0.00000  Uiso   1.00
C775   C     0.34657   0.75855   0.73319   0.00000  Uiso   1.00
C776   C     0.65346   0.74274   0.76740   0.00000  Uiso   1.00
C777   C     0.45850   0.54810   0.75987   0.00000  Uiso   1.00
C778   C     0.52026   0.95257   0.71627   0.00000  Uiso   1.00
C779   C     0.45969   0.59391   0.75897   0.00000  Uiso   1.00
C780   C     0.51814   0.90670   0.71574   0.00000  Uiso   1.00
C781   C     0.50409   0.61656   0.74911   0.00000  Uiso   1.00
C782   C     0.49548   0.88407   0.75043   0.00000  Uiso   1.00
C783   C     0.54871   0.59332   0.73975   0.00000  Uiso   1.00
C784   C     0.47305   0.90789   0.78547   0.00000  Uiso   1.00
C785   C     0.54738   0.54701   0.74249   0.00000  Uiso   1.00
C786   C     0.47773   0.95409   0.78682   0.00000  Uiso   1.00
C787   C     0.50247   0.52458   0.75207   0.00000  Uiso   1.00
C788   C     0.50079   0.97632   0.75215   0.00000  Uiso   1.00
H789   H     0.42303   0.53109   0.76609   0.00000  Uiso   1.00
H790   H     0.53696   0.96948   0.68853   0.00000  Uiso   1.00
H791   H     0.42551   0.61175   0.76515   0.00000  Uiso   1.00
H792   H     0.53480   0.88892   0.68835   0.00000  Uiso   1.00
H793   H     0.58114   0.52803   0.73674   0.00000  Uiso   1.00
H794   H     0.46207   0.97294   0.81411   0.00000  Uiso   1.00
H795   H     0.46461   0.68531   0.52779   0.00000  Uiso   1.00
H796   H     0.56788   0.79349   0.97544   0.00000  Uiso   1.00
H797   H     0.53775   0.81326   0.62809   0.00000  Uiso   1.00
H798   H     0.43468   0.70633   0.86914   0.00000  Uiso   1.00
N799   N     0.50000   0.74999   0.62623   0.00000  Uiso   1.00
N800   N     0.50000   0.75001   0.87377   0.00000  Uiso   1.00
O801   O     0.50000   0.68454   0.78974   0.00000  Uiso   1.00
O802   O     0.50000   0.81547   0.71026   0.00000  Uiso   1.00
O803   O     0.50000   0.68453   0.71026   0.00000  Uiso   1.00
O804   O     0.50000   0.81547   0.78974   0.00000  Uiso   1.00
O805   O     0.42392   0.75000   0.78045   0.00000  Uiso   1.00
O806   O     0.57608   0.75000   0.71955   0.00000  Uiso   1.00
O807   O     0.42392   0.74999   0.70097   0.00000  Uiso   1.00
O808   O     0.57608   0.75001   0.79903   0.00000  Uiso   1.00
Zn809  Zn    0.50000   0.75001   0.80307   0.00000  Uiso   1.00
Zn810  Zn    0.50000   0.75000   0.69693   0.00000  Uiso   1.00
C811   C     0.66003   0.79346   0.69836   0.00000  Uiso   1.00
O812   O     0.33658   0.79159   0.65767   0.00000  Uiso   1.00
O813   O     0.63136   0.82896   0.71270   0.00000  Uiso   1.00
H814   H     0.62078   0.85061   0.68615   0.00000  Uiso   1.00
C815   C     0.33974   0.70842   0.80299   0.00000  Uiso   1.00
O816   O     0.66238   0.71072   0.84339   0.00000  Uiso   1.00
O817   O     0.36851   0.67270   0.78968   0.00000  Uiso   1.00
H818   H     0.37786   0.65112   0.81656   0.00000  Uiso   1.00
C819   C     0.59686   0.61517   0.72717   0.00000  Uiso   1.00
O820   O     0.59714   0.65416   0.71559   0.00000  Uiso   1.00
O821   O     0.64209   0.59039   0.72720   0.00000  Uiso   1.00
H822   H     0.33819   0.60827   0.71635   0.00000  Uiso   1.00
C823   C     0.44218   0.88650   0.81925   0.00000  Uiso   1.00
O824   O     0.41261   0.85507   0.80622   0.00000  Uiso   1.00
O825   O     0.44526   0.90366   0.86557   0.00000  Uiso   1.00
H826   H     0.42214   0.88660   0.88511   0.00000  Uiso   1.00
C827   C     0.45286   0.67673   0.61725   0.00000  Uiso   1.00
O828   O     0.41554   0.68270   0.63803   0.00000  Uiso   1.00
O829   O     0.46950   0.63351   0.60959   0.00000  Uiso   1.00
H830   H     0.44867   0.61006   0.62440   0.00000  Uiso   1.00
C831   C     0.57604   0.80231   0.88486   0.00000  Uiso   1.00
O832   O     0.62086   0.78947   0.88785   0.00000  Uiso   1.00
O833   O     0.56311   0.84457   0.86744   0.00000  Uiso   1.00
H834   H     0.59366   0.86069   0.85631   0.00000  Uiso   1.00
H835   H     0.53678   0.81626   0.54180   0.00000  Uiso   1.00
H836   H     0.43114   0.70749   0.95478   0.00000  Uiso   1.00
C837   C     0.83553   0.66421   0.74988   0.00000  Uiso   1.00
C838   C     0.83134   0.83603   0.75009   0.00000  Uiso   1.00
C839   C     0.81344   0.71426   0.54868   0.00000  Uiso   1.00
C840   C     0.87076   0.77474   0.95304   0.00000  Uiso   1.00
C841   C     0.81211   0.71477   0.59790   0.00000  Uiso   1.00
C842   C     0.86998   0.77472   0.90348   0.00000  Uiso   1.00
C843   C     0.85452   0.78546   0.60595   0.00000  Uiso   1.00
C844   C     0.79664   0.72584   0.89249   0.00000  Uiso   1.00
C845   C     0.85449   0.78678   0.55642   0.00000  Uiso   1.00
C846   C     0.79534   0.72613   0.94181   0.00000  Uiso   1.00
C847   C     0.83369   0.75072   0.52665   0.00000  Uiso   1.00
C848   C     0.83306   0.75064   0.97331   0.00000  Uiso   1.00
C849   C     0.73383   0.75033   0.73779   0.00000  Uiso   1.00
C850   C     0.93280   0.75030   0.76231   0.00000  Uiso   1.00
C851   C     0.67990   0.75855   0.73319   0.00000  Uiso   1.00
C852   C     0.98679   0.74274   0.76740   0.00000  Uiso   1.00
C853   C     0.79183   0.54810   0.75987   0.00000  Uiso   1.00
C854   C     0.85360   0.95257   0.71627   0.00000  Uiso   1.00
C855   C     0.79303   0.59391   0.75897   0.00000  Uiso   1.00
C856   C     0.85148   0.90670   0.71574   0.00000  Uiso   1.00
C857   C     0.83742   0.61656   0.74911   0.00000  Uiso   1.00
C858   C     0.82881   0.88407   0.75043   0.00000  Uiso   1.00
C859   C     0.88204   0.59332   0.73975   0.00000  Uiso   1.00
C860   C     0.80638   0.90789   0.78547   0.00000  Uiso   1.00
C861   C     0.88071   0.54701   0.74249   0.00000  Uiso   1.00
C862   C     0.81107   0.95409   0.78682   0.00000  Uiso   1.00
C863   C     0.83581   0.52458   0.75207   0.00000  Uiso   1.00
C864   C     0.83412   0.97632   0.75215   0.00000  Uiso   1.00
H865   H     0.75636   0.53109   0.76609   0.00000  Uiso   1.00
H866   H     0.87029   0.96948   0.68853   0.00000  Uiso   1.00
H867   H     0.75885   0.61175   0.76515   0.00000  Uiso   1.00
H868   H     0.86813   0.88892   0.68835   0.00000  Uiso   1.00
H869   H     0.91448   0.52803   0.73674   0.00000  Uiso   1.00
H870   H     0.79541   0.97294   0.81411   0.00000  Uiso   1.00
H871   H     0.79794   0.68531   0.52779   0.00000  Uiso   1.00
H872   H     0.90122   0.79349   0.97544   0.00000  Uiso   1.00
H873   H     0.87108   0.81326   0.62809   0.00000  Uiso   1.00
H874   H     0.76801   0.70633   0.86914   0.00000  Uiso   1.00
N875   N     0.83333   0.74999   0.62623   0.00000  Uiso   1.00
N876   N     0.83333   0.75001   0.87377   0.00000  Uiso   1.00
O877   O     0.83334   0.68454   0.78974   0.00000  Uiso   1.00
O878   O     0.83333   0.81547   0.71026   0.00000  Uiso   1.00
O879   O     0.83334   0.68453   0.71026   0.00000  Uiso   1.00
O880   O     0.83333   0.81547   0.78974   0.00000  Uiso   1.00
O881   O     0.75725   0.75000   0.78045   0.00000  Uiso   1.00
O882   O     0.90942   0.75000   0.71955   0.00000  Uiso   1.00
O883   O     0.75725   0.74999   0.70097   0.00000  Uiso   1.00
O884   O     0.90942   0.75001   0.79903   0.00000  Uiso   1.00
Zn885  Zn    0.83333   0.75001   0.80307   0.00000  Uiso   1.00
Zn886  Zn    0.83333   0.75000   0.69693   0.00000  Uiso   1.00
C887   C     0.99336   0.79346   0.69836   0.00000  Uiso   1.00
O888   O     0.66992   0.79159   0.65767   0.00000  Uiso   1.00
O889   O     0.96469   0.82896   0.71270   0.00000  Uiso   1.00
H890   H     0.95412   0.85061   0.68615   0.00000  Uiso   1.00
C891   C     0.67307   0.70842   0.80299   0.00000  Uiso   1.00
O892   O     0.99571   0.71072   0.84339   0.00000  Uiso   1.00
O893   O     0.70184   0.67270   0.78968   0.00000  Uiso   1.00
H894   H     0.71119   0.65112   0.81656   0.00000  Uiso   1.00
C895   C     0.93019   0.61517   0.72717   0.00000  Uiso   1.00
O896   O     0.93047   0.65416   0.71559   0.00000  Uiso   1.00
O897   O     0.97542   0.59039   0.72720   0.00000  Uiso   1.00
H898   H     0.67153   0.60827   0.71635   0.00000  Uiso   1.00
C899   C     0.77551   0.88650   0.81925   0.00000  Uiso   1.00
O900   O     0.74594   0.85507   0.80622   0.00000  Uiso   1.00
O901   O     0.77860   0.90366   0.86557   0.00000  Uiso   1.00
H902   H     0.75547   0.88660   0.88511   0.00000  Uiso   1.00
C903   C     0.78619   0.67673   0.61725   0.00000  Uiso   1.00
O904   O     0.74887   0.68270   0.63803   0.00000  Uiso   1.00
O905   O     0.80284   0.63351   0.60959   0.00000  Uiso   1.00
H906   H     0.78200   0.61006   0.62440   0.00000  Uiso   1.00
C907   C     0.90937   0.80231   0.88486   0.00000  Uiso   1.00
O908   O     0.95420   0.78947   0.88785   0.00000  Uiso   1.00
O909   O     0.89645   0.84457   0.86744   0.00000  Uiso   1.00
H910   H     0.92699   0.86069   0.85631   0.00000  Uiso   1.00
H911   H     0.87012   0.81626   0.54180   0.00000  Uiso   1.00
H912   H     0.76447   0.70749   0.95478   0.00000  Uiso   1.00
loop_
_geom_bond_atom_site_label_1
_geom_bond_atom_site_label_2
_geom_bond_distance
_geom_bond_site_symmetry_2
_ccdc_geom_bond_type
C1     C21     1.431   .     S
C1     O43     1.284   .     A
C1     O41     1.289   .     A
C2     C22     1.444   .     S
C2     O44     1.289   .     A
C2     O42     1.290   .     A
C3     H35     1.082   .     S
C3     C11     1.402   .     A
C3     C5      1.406   .     A
C4     H36     1.083   .     S
C4     C6      1.407   .     A
C4     C12     1.403   .     A
C5     C67     1.470   .     S
C5     N39     1.376   .     A
C6     N40     1.374   .     A
C6     C71     1.468   .     S
C7     H37     1.081   .     S
C7     C9      1.410   .     A
C7     N39     1.364   .     A
C8     H38     1.078   .     S
C8     N40     1.362   .     A
C8     C10     1.408   .     A
C9     H75     1.081   .     S
C9     C11     1.413   .     A
C10    C12     1.414   .     A
C10    H76     1.081   .     S
C11    C468    1.515   1_554 S
C12    C467    1.515   .     S
C13    O45     1.274   .     A
C13    C15     1.412   .     S
C13    O47     1.286   .     A
C14    O46     1.276   .     A
C14    C16     1.409   .     S
C14    O48     1.284   .     A
C15    C168    1.358   1_455 S
C15    C203    1.497   1_455 S
C16    C91     1.358   .     S
C16    C131    1.497   .     S
C17    H29     1.083   .     S
C17    C27     1.395   .     A
C17    C19     1.375   .     A
C18    H30     1.083   .     S
C18    C28     1.396   .     A
C18    C20     1.376   .     A
C19    H31     1.078   .     S
C19    C21     1.394   .     A
C20    C22     1.400   .     A
C20    H32     1.083   .     S
C21    C23     1.417   .     A
C22    C24     1.417   .     A
C23    C25     1.393   .     A
C23    C59     1.493   .     S
C24    C63     1.485   .     S
C24    C26     1.389   .     A
C25    H33     1.083   .     S
C25    C27     1.399   .     A
C26    C28     1.399   .     A
C26    H34     1.084   .     S
C27    C256    1.448   1_545 S
C28    C255    1.448   .     S
N39    Zn50    2.011   .     S
N40    Zn49    2.011   .     S
O41    Zn49    1.995   .     S
O42    Zn50    1.995   .     S
O43    Zn50    2.006   .     S
O44    Zn49    2.006   .     S
O45    Zn49    1.983   .     S
O46    Zn50    1.983   .     S
O47    Zn50    1.994   .     S
O48    Zn49    1.994   .     S
C51    O53     1.399   .     S
C51    C91     1.497   .     S
C51    O128    1.223   .     S
O52    C203    1.223   1_455 S
O53    H54     1.014   .     S
C55    O57     1.396   .     S
C55    C168    1.497   1_455 S
C55    O208    1.223   1_455 S
O56    C131    1.223   .     S
O57    H58     1.014   .     S
C59    O60     1.220   .     D
C59    O61     1.399   .     S
O61    H138    1.014   .     S
H62    O213    1.014   1_455 S
C63    O65     1.398   .     S
C63    O64     1.223   .     D
O65    H66     1.014   .     S
C67    O69     1.398   .     S
C67    O68     1.221   .     D
O69    H70     1.014   .     S
C71    O72     1.222   .     D
C71    O73     1.396   .     S
O73    H74     1.014   .     S
C77    C97     1.431   .     S
C77    O119    1.284   .     A
C77    O117    1.289   .     A
C78    C98     1.444   .     S
C78    O120    1.289   .     A
C78    O118    1.290   .     A
C79    H111    1.082   .     S
C79    C87     1.402   .     A
C79    C81     1.406   .     A
C80    H112    1.083   .     S
C80    C82     1.407   .     A
C80    C88     1.403   .     A
C81    C143    1.470   .     S
C81    N115    1.376   .     A
C82    N116    1.374   .     A
C82    C147    1.468   .     S
C83    H113    1.081   .     S
C83    C85     1.410   .     A
C83    N115    1.364   .     A
C84    H114    1.078   .     S
C84    N116    1.362   .     A
C84    C86     1.408   .     A
C85    H151    1.081   .     S
C85    C87     1.413   .     A
C86    C88     1.414   .     A
C86    H152    1.081   .     S
C87    C544    1.515   1_554 S
C88    C543    1.515   .     S
C89    O121    1.274   .     A
C89    C91     1.412   .     S
C89    O123    1.286   .     A
C90    O122    1.276   .     A
C90    C92     1.409   .     S
C90    O124    1.284   .     A
C92    C167    1.358   .     S
C92    C207    1.497   .     S
C93    H105    1.083   .     S
C93    C103    1.395   .     A
C93    C95     1.375   .     A
C94    H106    1.083   .     S
C94    C104    1.396   .     A
C94    C96     1.376   .     A
C95    H107    1.078   .     S
C95    C97     1.394   .     A
C96    C98     1.400   .     A
C96    H108    1.083   .     S
C97    C99     1.417   .     A
C98    C100    1.417   .     A
C99    C101    1.393   .     A
C99    C135    1.493   .     S
C100   C139    1.485   .     S
C100   C102    1.389   .     A
C101   H109    1.083   .     S
C101   C103    1.399   .     A
C102   C104    1.399   .     A
C102   H110    1.084   .     S
C103   C332    1.448   1_545 S
C104   C331    1.448   .     S
N115   Zn126   2.011   .     S
N116   Zn125   2.011   .     S
O117   Zn125   1.995   .     S
O118   Zn126   1.995   .     S
O119   Zn126   2.006   .     S
O120   Zn125   2.006   .     S
O121   Zn125   1.983   .     S
O122   Zn126   1.983   .     S
O123   Zn126   1.994   .     S
O124   Zn125   1.994   .     S
C127   O129    1.399   .     S
C127   C167    1.497   .     S
C127   O204    1.223   .     S
O129   H130    1.014   .     S
C131   O133    1.396   .     S
O132   C207    1.223   .     S
O133   H134    1.014   .     S
C135   O136    1.220   .     D
C135   O137    1.399   .     S
O137   H214    1.014   .     S
C139   O141    1.398   .     S
C139   O140    1.223   .     D
O141   H142    1.014   .     S
C143   O145    1.398   .     S
C143   O144    1.221   .     D
O145   H146    1.014   .     S
C147   O148    1.222   .     D
C147   O149    1.396   .     S
O149   H150    1.014   .     S
C153   C173    1.431   .     S
C153   O195    1.284   .     A
C153   O193    1.289   .     A
C154   C174    1.444   .     S
C154   O196    1.289   .     A
C154   O194    1.290   .     A
C155   H187    1.082   .     S
C155   C163    1.402   .     A
C155   C157    1.406   .     A
C156   H188    1.083   .     S
C156   C158    1.407   .     A
C156   C164    1.403   .     A
C157   C219    1.470   .     S
C157   N191    1.376   .     A
C158   N192    1.374   .     A
C158   C223    1.468   .     S
C159   H189    1.081   .     S
C159   C161    1.410   .     A
C159   N191    1.364   .     A
C160   H190    1.078   .     S
C160   N192    1.362   .     A
C160   C162    1.408   .     A
C161   H227    1.081   .     S
C161   C163    1.413   .     A
C162   C164    1.414   .     A
C162   H228    1.081   .     S
C163   C620    1.515   1_554 S
C164   C619    1.515   .     S
C165   O197    1.274   .     A
C165   C167    1.412   .     S
C165   O199    1.286   .     A
C166   O198    1.276   .     A
C166   C168    1.409   .     S
C166   O200    1.284   .     A
C168   C15     1.358   1_655 S
C168   C55     1.497   1_655 S
C169   H181    1.083   .     S
C169   C179    1.395   .     A
C169   C171    1.375   .     A
C170   H182    1.083   .     S
C170   C180    1.396   .     A
C170   C172    1.376   .     A
C171   H183    1.078   .     S
C171   C173    1.394   .     A
C172   C174    1.400   .     A
C172   H184    1.083   .     S
C173   C175    1.417   .     A
C174   C176    1.417   .     A
C175   C177    1.393   .     A
C175   C211    1.493   .     S
C176   C215    1.485   .     S
C176   C178    1.389   .     A
C177   H185    1.083   .     S
C177   C179    1.399   .     A
C178   C180    1.399   .     A
C178   H186    1.084   .     S
C179   C408    1.448   1_545 S
C180   C407    1.448   .     S
N191   Zn202   2.011   .     S
N192   Zn201   2.011   .     S
O193   Zn201   1.995   .     S
O194   Zn202   1.995   .     S
O195   Zn202   2.006   .     S
O196   Zn201   2.006   .     S
O197   Zn201   1.983   .     S
O198   Zn202   1.983   .     S
O199   Zn202   1.994   .     S
O200   Zn201   1.994   .     S
C203   O205    1.399   .     S
C203   C15     1.497   1_655 S
C203   O52     1.223   1_655 S
O205   H206    1.014   .     S
C207   O209    1.396   .     S
O208   C55     1.223   1_655 S
O209   H210    1.014   .     S
C211   O212    1.220   .     D
C211   O213    1.399   .     S
O213   H62     1.014   1_655 S
C215   O217    1.398   .     S
C215   O216    1.223   .     D
O217   H218    1.014   .     S
C219   O221    1.398   .     S
C219   O220    1.221   .     D
O221   H222    1.014   .     S
C223   O224    1.222   .     D
C223   O225    1.396   .     S
O225   H226    1.014   .     S
C229   C249    1.431   .     S
C229   O271    1.284   .     A
C229   O269    1.289   .     A
C230   C250    1.444   .     S
C230   O272    1.289   .     A
C230   O270    1.290   .     A
C231   H263    1.082   .     S
C231   C239    1.402   .     A
C231   C233    1.406   .     A
C232   H264    1.083   .     S
C232   C234    1.407   .     A
C232   C240    1.403   .     A
C233   C295    1.470   .     S
C233   N267    1.376   .     A
C234   N268    1.374   .     A
C234   C299    1.468   .     S
C235   H265    1.081   .     S
C235   C237    1.410   .     A
C235   N267    1.364   .     A
C236   H266    1.078   .     S
C236   N268    1.362   .     A
C236   C238    1.408   .     A
C237   H303    1.081   .     S
C237   C239    1.413   .     A
C238   C240    1.414   .     A
C238   H304    1.081   .     S
C239   C696    1.515   1_554 S
C240   C695    1.515   .     S
C241   O273    1.274   .     A
C241   C243    1.412   .     S
C241   O275    1.286   .     A
C242   O274    1.276   .     A
C242   C244    1.409   .     S
C242   O276    1.284   .     A
C243   C396    1.358   1_455 S
C243   C431    1.497   1_455 S
C244   C319    1.358   .     S
C244   C359    1.497   .     S
C245   H257    1.083   .     S
C245   C255    1.395   .     A
C245   C247    1.375   .     A
C246   H258    1.083   .     S
C246   C256    1.396   .     A
C246   C248    1.376   .     A
C247   H259    1.078   .     S
C247   C249    1.394   .     A
C248   C250    1.400   .     A
C248   H260    1.083   .     S
C249   C251    1.417   .     A
C250   C252    1.417   .     A
C251   C253    1.393   .     A
C251   C287    1.493   .     S
C252   C291    1.485   .     S
C252   C254    1.389   .     A
C253   H261    1.083   .     S
C253   C255    1.399   .     A
C254   C256    1.399   .     A
C254   H262    1.084   .     S
C256   C27     1.448   1_565 S
N267   Zn278   2.011   .     S
N268   Zn277   2.011   .     S
O269   Zn277   1.995   .     S
O270   Zn278   1.995   .     S
O271   Zn278   2.006   .     S
O272   Zn277   2.006   .     S
O273   Zn277   1.983   .     S
O274   Zn278   1.983   .     S
O275   Zn278   1.994   .     S
O276   Zn277   1.994   .     S
C279   O281    1.399   .     S
C279   C319    1.497   .     S
C279   O356    1.223   .     S
O280   C431    1.223   1_455 S
O281   H282    1.014   .     S
C283   O285    1.396   .     S
C283   C396    1.497   1_455 S
C283   O436    1.223   1_455 S
O284   C359    1.223   .     S
O285   H286    1.014   .     S
C287   O288    1.220   .     D
C287   O289    1.399   .     S
O289   H366    1.014   .     S
H290   O441    1.014   1_455 S
C291   O293    1.398   .     S
C291   O292    1.223   .     D
O293   H294    1.014   .     S
C295   O297    1.398   .     S
C295   O296    1.221   .     D
O297   H298    1.014   .     S
C299   O300    1.222   .     D
C299   O301    1.396   .     S
O301   H302    1.014   .     S
C305   C325    1.431   .     S
C305   O347    1.284   .     A
C305   O345    1.289   .     A
C306   C326    1.444   .     S
C306   O348    1.289   .     A
C306   O346    1.290   .     A
C307   H339    1.082   .     S
C307   C315    1.402   .     A
C307   C309    1.406   .     A
C308   H340    1.083   .     S
C308   C310    1.407   .     A
C308   C316    1.403   .     A
C309   C371    1.470   .     S
C309   N343    1.376   .     A
C310   N344    1.374   .     A
C310   C375    1.468   .     S
C311   H341    1.081   .     S
C311   C313    1.410   .     A
C311   N343    1.364   .     A
C312   H342    1.078   .     S
C312   N344    1.362   .     A
C312   C314    1.408   .     A
C313   H379    1.081   .     S
C313   C315    1.413   .     A
C314   C316    1.414   .     A
C314   H380    1.081   .     S
C315   C772    1.515   1_554 S
C316   C771    1.515   .     S
C317   O349    1.274   .     A
C317   C319    1.412   .     S
C317   O351    1.286   .     A
C318   O350    1.276   .     A
C318   C320    1.409   .     S
C318   O352    1.284   .     A
C320   C395    1.358   .     S
C320   C435    1.497   .     S
C321   H333    1.083   .     S
C321   C331    1.395   .     A
C321   C323    1.375   .     A
C322   H334    1.083   .     S
C322   C332    1.396   .     A
C322   C324    1.376   .     A
C323   H335    1.078   .     S
C323   C325    1.394   .     A
C324   C326    1.400   .     A
C324   H336    1.083   .     S
C325   C327    1.417   .     A
C326   C328    1.417   .     A
C327   C329    1.393   .     A
C327   C363    1.493   .     S
C328   C367    1.485   .     S
C328   C330    1.389   .     A
C329   H337    1.083   .     S
C329   C331    1.399   .     A
C330   C332    1.399   .     A
C330   H338    1.084   .     S
C332   C103    1.448   1_565 S
N343   Zn354   2.011   .     S
N344   Zn353   2.011   .     S
O345   Zn353   1.995   .     S
O346   Zn354   1.995   .     S
O347   Zn354   2.006   .     S
O348   Zn353   2.006   .     S
O349   Zn353   1.983   .     S
O350   Zn354   1.983   .     S
O351   Zn354   1.994   .     S
O352   Zn353   1.994   .     S
C355   O357    1.399   .     S
C355   C395    1.497   .     S
C355   O432    1.223   .     S
O357   H358    1.014   .     S
C359   O361    1.396   .     S
O360   C435    1.223   .     S
O361   H362    1.014   .     S
C363   O364    1.220   .     D
C363   O365    1.399   .     S
O365   H442    1.014   .     S
C367   O369    1.398   .     S
C367   O368    1.223   .     D
O369   H370    1.014   .     S
C371   O373    1.398   .     S
C371   O372    1.221   .     D
O373   H374    1.014   .     S
C375   O376    1.222   .     D
C375   O377    1.396   .     S
O377   H378    1.014   .     S
C381   C401    1.431   .     S
C381   O423    1.284   .     A
C381   O421    1.289   .     A
C382   C402    1.444   .     S
C382   O424    1.289   .     A
C382   O422    1.290   .     A
C383   H415    1.082   .     S
C383   C391    1.402   .     A
C383   C385    1.406   .     A
C384   H416    1.083   .     S
C384   C386    1.407   .     A
C384   C392    1.403   .     A
C385   C447    1.470   .     S
C385   N419    1.376   .     A
C386   N420    1.374   .     A
C386   C451    1.468   .     S
C387   H417    1.081   .     S
C387   C389    1.410   .     A
C387   N419    1.364   .     A
C388   H418    1.078   .     S
C388   N420    1.362   .     A
C388   C390    1.408   .     A
C389   H455    1.081   .     S
C389   C391    1.413   .     A
C390   C392    1.414   .     A
C390   H456    1.081   .     S
C391   C848    1.515   1_554 S
C392   C847    1.515   .     S
C393   O425    1.274   .     A
C393   C395    1.412   .     S
C393   O427    1.286   .     A
C394   O426    1.276   .     A
C394   C396    1.409   .     S
C394   O428    1.284   .     A
C396   C243    1.358   1_655 S
C396   C283    1.497   1_655 S
C397   H409    1.083   .     S
C397   C407    1.395   .     A
C397   C399    1.375   .     A
C398   H410    1.083   .     S
C398   C408    1.396   .     A
C398   C400    1.376   .     A
C399   H411    1.078   .     S
C399   C401    1.394   .     A
C400   C402    1.400   .     A
C400   H412    1.083   .     S
C401   C403    1.417   .     A
C402   C404    1.417   .     A
C403   C405    1.393   .     A
C403   C439    1.493   .     S
C404   C443    1.485   .     S
C404   C406    1.389   .     A
C405   H413    1.083   .     S
C405   C407    1.399   .     A
C406   C408    1.399   .     A
C406   H414    1.084   .     S
C408   C179    1.448   1_565 S
N419   Zn430   2.011   .     S
N420   Zn429   2.011   .     S
O421   Zn429   1.995   .     S
O422   Zn430   1.995   .     S
O423   Zn430   2.006   .     S
O424   Zn429   2.006   .     S
O425   Zn429   1.983   .     S
O426   Zn430   1.983   .     S
O427   Zn430   1.994   .     S
O428   Zn429   1.994   .     S
C431   O433    1.399   .     S
C431   C243    1.497   1_655 S
C431   O280    1.223   1_655 S
O433   H434    1.014   .     S
C435   O437    1.396   .     S
O436   C283    1.223   1_655 S
O437   H438    1.014   .     S
C439   O440    1.220   .     D
C439   O441    1.399   .     S
O441   H290    1.014   1_655 S
C443   O445    1.398   .     S
C443   O444    1.223   .     D
O445   H446    1.014   .     S
C447   O449    1.398   .     S
C447   O448    1.221   .     D
O449   H450    1.014   .     S
C451   O452    1.222   .     D
C451   O453    1.396   .     S
O453   H454    1.014   .     S
C457   C477    1.431   .     S
C457   O499    1.284   .     A
C457   O497    1.289   .     A
C458   C478    1.444   .     S
C458   O500    1.289   .     A
C458   O498    1.290   .     A
C459   H491    1.082   .     S
C459   C467    1.402   .     A
C459   C461    1.406   .     A
C460   H492    1.083   .     S
C460   C462    1.407   .     A
C460   C468    1.403   .     A
C461   C523    1.470   .     S
C461   N495    1.376   .     A
C462   N496    1.374   .     A
C462   C527    1.468   .     S
C463   H493    1.081   .     S
C463   C465    1.410   .     A
C463   N495    1.364   .     A
C464   H494    1.078   .     S
C464   N496    1.362   .     A
C464   C466    1.408   .     A
C465   H531    1.081   .     S
C465   C467    1.413   .     A
C466   C468    1.414   .     A
C466   H532    1.081   .     S
C468   C11     1.515   1_556 S
C469   O501    1.274   .     A
C469   C471    1.412   .     S
C469   O503    1.286   .     A
C470   O502    1.276   .     A
C470   C472    1.409   .     S
C470   O504    1.284   .     A
C471   C624    1.358   1_455 S
C471   C659    1.497   1_455 S
C472   C547    1.358   .     S
C472   C587    1.497   .     S
C473   H485    1.083   .     S
C473   C483    1.395   .     A
C473   C475    1.375   .     A
C474   H486    1.083   .     S
C474   C484    1.396   .     A
C474   C476    1.376   .     A
C475   H487    1.078   .     S
C475   C477    1.394   .     A
C476   C478    1.400   .     A
C476   H488    1.083   .     S
C477   C479    1.417   .     A
C478   C480    1.417   .     A
C479   C481    1.393   .     A
C479   C515    1.493   .     S
C480   C519    1.485   .     S
C480   C482    1.389   .     A
C481   H489    1.083   .     S
C481   C483    1.399   .     A
C482   C484    1.399   .     A
C482   H490    1.084   .     S
C483   C712    1.448   1_545 S
C484   C711    1.448   .     S
N495   Zn506   2.011   .     S
N496   Zn505   2.011   .     S
O497   Zn505   1.995   .     S
O498   Zn506   1.995   .     S
O499   Zn506   2.006   .     S
O500   Zn505   2.006   .     S
O501   Zn505   1.983   .     S
O502   Zn506   1.983   .     S
O503   Zn506   1.994   .     S
O504   Zn505   1.994   .     S
C507   O509    1.399   .     S
C507   C547    1.497   .     S
C507   O584    1.223   .     S
O508   C659    1.223   1_455 S
O509   H510    1.014   .     S
C511   O513    1.396   .     S
C511   C624    1.497   1_455 S
C511   O664    1.223   1_455 S
O512   C587    1.223   .     S
O513   H514    1.014   .     S
C515   O516    1.220   .     D
C515   O517    1.399   .     S
O517   H594    1.014   .     S
H518   O669    1.014   1_455 S
C519   O521    1.398   .     S
C519   O520    1.223   .     D
O521   H522    1.014   .     S
C523   O525    1.398   .     S
C523   O524    1.221   .     D
O525   H526    1.014   .     S
C527   O528    1.222   .     D
C527   O529    1.396   .     S
O529   H530    1.014   .     S
C533   C553    1.431   .     S
C533   O575    1.284   .     A
C533   O573    1.289   .     A
C534   C554    1.444   .     S
C534   O576    1.289   .     A
C534   O574    1.290   .     A
C535   H567    1.082   .     S
C535   C543    1.402   .     A
C535   C537    1.406   .     A
C536   H568    1.083   .     S
C536   C538    1.407   .     A
C536   C544    1.403   .     A
C537   C599    1.470   .     S
C537   N571    1.376   .     A
C538   N572    1.374   .     A
C538   C603    1.468   .     S
C539   H569    1.081   .     S
C539   C541    1.410   .     A
C539   N571    1.364   .     A
C540   H570    1.078   .     S
C540   N572    1.362   .     A
C540   C542    1.408   .     A
C541   H607    1.081   .     S
C541   C543    1.413   .     A
C542   C544    1.414   .     A
C542   H608    1.081   .     S
C544   C87     1.515   1_556 S
C545   O577    1.274   .     A
C545   C547    1.412   .     S
C545   O579    1.286   .     A
C546   O578    1.276   .     A
C546   C548    1.409   .     S
C546   O580    1.284   .     A
C548   C623    1.358   .     S
C548   C663    1.497   .     S
C549   H561    1.083   .     S
C549   C559    1.395   .     A
C549   C551    1.375   .     A
C550   H562    1.083   .     S
C550   C560    1.396   .     A
C550   C552    1.376   .     A
C551   H563    1.078   .     S
C551   C553    1.394   .     A
C552   C554    1.400   .     A
C552   H564    1.083   .     S
C553   C555    1.417   .     A
C554   C556    1.417   .     A
C555   C557    1.393   .     A
C555   C591    1.493   .     S
C556   C595    1.485   .     S
C556   C558    1.389   .     A
C557   H565    1.083   .     S
C557   C559    1.399   .     A
C558   C560    1.399   .     A
C558   H566    1.084   .     S
C559   C788    1.448   1_545 S
C560   C787    1.448   .     S
N571   Zn582   2.011   .     S
N572   Zn581   2.011   .     S
O573   Zn581   1.995   .     S
O574   Zn582   1.995   .     S
O575   Zn582   2.006   .     S
O576   Zn581   2.006   .     S
O577   Zn581   1.983   .     S
O578   Zn582   1.983   .     S
O579   Zn582   1.994   .     S
O580   Zn581   1.994   .     S
C583   O585    1.399   .     S
C583   C623    1.497   .     S
C583   O660    1.223   .     S
O585   H586    1.014   .     S
C587   O589    1.396   .     S
O588   C663    1.223   .     S
O589   H590    1.014   .     S
C591   O592    1.220   .     D
C591   O593    1.399   .     S
O593   H670    1.014   .     S
C595   O597    1.398   .     S
C595   O596    1.223   .     D
O597   H598    1.014   .     S
C599   O601    1.398   .     S
C599   O600    1.221   .     D
O601   H602    1.014   .     S
C603   O604    1.222   .     D
C603   O605    1.396   .     S
O605   H606    1.014   .     S
C609   C629    1.431   .     S
C609   O651    1.284   .     A
C609   O649    1.289   .     A
C610   C630    1.444   .     S
C610   O652    1.289   .     A
C610   O650    1.290   .     A
C611   H643    1.082   .     S
C611   C619    1.402   .     A
C611   C613    1.406   .     A
C612   H644    1.083   .     S
C612   C614    1.407   .     A
C612   C620    1.403   .     A
C613   C675    1.470   .     S
C613   N647    1.376   .     A
C614   N648    1.374   .     A
C614   C679    1.468   .     S
C615   H645    1.081   .     S
C615   C617    1.410   .     A
C615   N647    1.364   .     A
C616   H646    1.078   .     S
C616   N648    1.362   .     A
C616   C618    1.408   .     A
C617   H683    1.081   .     S
C617   C619    1.413   .     A
C618   C620    1.414   .     A
C618   H684    1.081   .     S
C620   C163    1.515   1_556 S
C621   O653    1.274   .     A
C621   C623    1.412   .     S
C621   O655    1.286   .     A
C622   O654    1.276   .     A
C622   C624    1.409   .     S
C622   O656    1.284   .     A
C624   C471    1.358   1_655 S
C624   C511    1.497   1_655 S
C625   H637    1.083   .     S
C625   C635    1.395   .     A
C625   C627    1.375   .     A
C626   H638    1.083   .     S
C626   C636    1.396   .     A
C626   C628    1.376   .     A
C627   H639    1.078   .     S
C627   C629    1.394   .     A
C628   C630    1.400   .     A
C628   H640    1.083   .     S
C629   C631    1.417   .     A
C630   C632    1.417   .     A
C631   C633    1.393   .     A
C631   C667    1.493   .     S
C632   C671    1.485   .     S
C632   C634    1.389   .     A
C633   H641    1.083   .     S
C633   C635    1.399   .     A
C634   C636    1.399   .     A
C634   H642    1.084   .     S
C635   C864    1.448   1_545 S
C636   C863    1.448   .     S
N647   Zn658   2.011   .     S
N648   Zn657   2.011   .     S
O649   Zn657   1.995   .     S
O650   Zn658   1.995   .     S
O651   Zn658   2.006   .     S
O652   Zn657   2.006   .     S
O653   Zn657   1.983   .     S
O654   Zn658   1.983   .     S
O655   Zn658   1.994   .     S
O656   Zn657   1.994   .     S
C659   O661    1.399   .     S
C659   C471    1.497   1_655 S
C659   O508    1.223   1_655 S
O661   H662    1.014   .     S
C663   O665    1.396   .     S
O664   C511    1.223   1_655 S
O665   H666    1.014   .     S
C667   O668    1.220   .     D
C667   O669    1.399   .     S
O669   H518    1.014   1_655 S
C671   O673    1.398   .     S
C671   O672    1.223   .     D
O673   H674    1.014   .     S
C675   O677    1.398   .     S
C675   O676    1.221   .     D
O677   H678    1.014   .     S
C679   O680    1.222   .     D
C679   O681    1.396   .     S
O681   H682    1.014   .     S
C685   C705    1.431   .     S
C685   O727    1.284   .     A
C685   O725    1.289   .     A
C686   C706    1.444   .     S
C686   O728    1.289   .     A
C686   O726    1.290   .     A
C687   H719    1.082   .     S
C687   C695    1.402   .     A
C687   C689    1.406   .     A
C688   H720    1.083   .     S
C688   C690    1.407   .     A
C688   C696    1.403   .     A
C689   C751    1.470   .     S
C689   N723    1.376   .     A
C690   N724    1.374   .     A
C690   C755    1.468   .     S
C691   H721    1.081   .     S
C691   C693    1.410   .     A
C691   N723    1.364   .     A
C692   H722    1.078   .     S
C692   N724    1.362   .     A
C692   C694    1.408   .     A
C693   H759    1.081   .     S
C693   C695    1.413   .     A
C694   C696    1.414   .     A
C694   H760    1.081   .     S
C696   C239    1.515   1_556 S
C697   O729    1.274   .     A
C697   C699    1.412   .     S
C697   O731    1.286   .     A
C698   O730    1.276   .     A
C698   C700    1.409   .     S
C698   O732    1.284   .     A
C699   C852    1.358   1_455 S
C699   C887    1.497   1_455 S
C700   C775    1.358   .     S
C700   C815    1.497   .     S
C701   H713    1.083   .     S
C701   C711    1.395   .     A
C701   C703    1.375   .     A
C702   H714    1.083   .     S
C702   C712    1.396   .     A
C702   C704    1.376   .     A
C703   H715    1.078   .     S
C703   C705    1.394   .     A
C704   C706    1.400   .     A
C704   H716    1.083   .     S
C705   C707    1.417   .     A
C706   C708    1.417   .     A
C707   C709    1.393   .     A
C707   C743    1.493   .     S
C708   C747    1.485   .     S
C708   C710    1.389   .     A
C709   H717    1.083   .     S
C709   C711    1.399   .     A
C710   C712    1.399   .     A
C710   H718    1.084   .     S
C712   C483    1.448   1_565 S
N723   Zn734   2.011   .     S
N724   Zn733   2.011   .     S
O725   Zn733   1.995   .     S
O726   Zn734   1.995   .     S
O727   Zn734   2.006   .     S
O728   Zn733   2.006   .     S
O729   Zn733   1.983   .     S
O730   Zn734   1.983   .     S
O731   Zn734   1.994   .     S
O732   Zn733   1.994   .     S
C735   O737    1.399   .     S
C735   C775    1.497   .     S
C735   O812    1.223   .     S
O736   C887    1.223   1_455 S
O737   H738    1.014   .     S
C739   O741    1.396   .     S
C739   C852    1.497   1_455 S
C739   O892    1.223   1_455 S
O740   C815    1.223   .     S
O741   H742    1.014   .     S
C743   O744    1.220   .     D
C743   O745    1.399   .     S
O745   H822    1.014   .     S
H746   O897    1.014   1_455 S
C747   O749    1.398   .     S
C747   O748    1.223   .     D
O749   H750    1.014   .     S
C751   O753    1.398   .     S
C751   O752    1.221   .     D
O753   H754    1.014   .     S
C755   O756    1.222   .     D
C755   O757    1.396   .     S
O757   H758    1.014   .     S
C761   C781    1.431   .     S
C761   O803    1.284   .     A
C761   O801    1.289   .     A
C762   C782    1.444   .     S
C762   O804    1.289   .     A
C762   O802    1.290   .     A
C763   H795    1.082   .     S
C763   C771    1.402   .     A
C763   C765    1.406   .     A
C764   H796    1.083   .     S
C764   C766    1.407   .     A
C764   C772    1.403   .     A
C765   C827    1.470   .     S
C765   N799    1.376   .     A
C766   N800    1.374   .     A
C766   C831    1.468   .     S
C767   H797    1.081   .     S
C767   C769    1.410   .     A
C767   N799    1.364   .     A
C768   H798    1.078   .     S
C768   N800    1.362   .     A
C768   C770    1.408   .     A
C769   H835    1.081   .     S
C769   C771    1.413   .     A
C770   C772    1.414   .     A
C770   H836    1.081   .     S
C772   C315    1.515   1_556 S
C773   O805    1.274   .     A
C773   C775    1.412   .     S
C773   O807    1.286   .     A
C774   O806    1.276   .     A
C774   C776    1.409   .     S
C774   O808    1.284   .     A
C776   C851    1.358   .     S
C776   C891    1.497   .     S
C777   H789    1.083   .     S
C777   C787    1.395   .     A
C777   C779    1.375   .     A
C778   H790    1.083   .     S
C778   C788    1.396   .     A
C778   C780    1.376   .     A
C779   H791    1.078   .     S
C779   C781    1.394   .     A
C780   C782    1.400   .     A
C780   H792    1.083   .     S
C781   C783    1.417   .     A
C782   C784    1.417   .     A
C783   C785    1.393   .     A
C783   C819    1.493   .     S
C784   C823    1.485   .     S
C784   C786    1.389   .     A
C785   H793    1.083   .     S
C785   C787    1.399   .     A
C786   C788    1.399   .     A
C786   H794    1.084   .     S
C788   C559    1.448   1_565 S
N799   Zn810   2.011   .     S
N800   Zn809   2.011   .     S
O801   Zn809   1.995   .     S
O802   Zn810   1.995   .     S
O803   Zn810   2.006   .     S
O804   Zn809   2.006   .     S
O805   Zn809   1.983   .     S
O806   Zn810   1.983   .     S
O807   Zn810   1.994   .     S
O808   Zn809   1.994   .     S
C811   O813    1.399   .     S
C811   C851    1.497   .     S
C811   O888    1.223   .     S
O813   H814    1.014   .     S
C815   O817    1.396   .     S
O816   C891    1.223   .     S
O817   H818    1.014   .     S
C819   O820    1.220   .     D
C819   O821    1.399   .     S
O821   H898    1.014   .     S
C823   O825    1.398   .     S
C823   O824    1.223   .     D
O825   H826    1.014   .     S
C827   O829    1.398   .     S
C827   O828    1.221   .     D
O829   H830    1.014   .     S
C831   O832    1.222   .     D
C831   O833    1.396   .     S
O833   H834    1.014   .     S
C837   C857    1.431   .     S
C837   O879    1.284   .     A
C837   O877    1.289   .     A
C838   C858    1.444   .     S
C838   O880    1.289   .     A
C838   O878    1.290   .     A
C839   H871    1.082   .     S
C839   C847    1.402   .     A
C839   C841    1.406   .     A
C840   H872    1.083   .     S
C840   C842    1.407   .     A
C840   C848    1.403   .     A
C841   C903    1.470   .     S
C841   N875    1.376   .     A
C842   N876    1.374   .     A
C842   C907    1.468   .     S
C843   H873    1.081   .     S
C843   C845    1.410   .     A
C843   N875    1.364   .     A
C844   H874    1.078   .     S
C844   N876    1.362   .     A
C844   C846    1.408   .     A
C845   H911    1.081   .     S
C845   C847    1.413   .     A
C846   C848    1.414   .     A
C846   H912    1.081   .     S
C848   C391    1.515   1_556 S
C849   O881    1.274   .     A
C849   C851    1.412   .     S
C849   O883    1.286   .     A
C850   O882    1.276   .     A
C850   C852    1.409   .     S
C850   O884    1.284   .     A
C852   C699    1.358   1_655 S
C852   C739    1.497   1_655 S
C853   H865    1.083   .     S
C853   C863    1.395   .     A
C853   C855    1.375   .     A
C854   H866    1.083   .     S
C854   C864    1.396   .     A
C854   C856    1.376   .     A
C855   H867    1.078   .     S
C855   C857    1.394   .     A
C856   C858    1.400   .     A
C856   H868    1.083   .     S
C857   C859    1.417   .     A
C858   C860    1.417   .     A
C859   C861    1.393   .     A
C859   C895    1.493   .     S
C860   C899    1.485   .     S
C860   C862    1.389   .     A
C861   H869    1.083   .     S
C861   C863    1.399   .     A
C862   C864    1.399   .     A
C862   H870    1.084   .     S
C864   C635    1.448   1_565 S
N875   Zn886   2.011   .     S
N876   Zn885   2.011   .     S
O877   Zn885   1.995   .     S
O878   Zn886   1.995   .     S
O879   Zn886   2.006   .     S
O880   Zn885   2.006   .     S
O881   Zn885   1.983   .     S
O882   Zn886   1.983   .     S
O883   Zn886   1.994   .     S
O884   Zn885   1.994   .     S
C887   O889    1.399   .     S
C887   C699    1.497   1_655 S
C887   O736    1.223   1_655 S
O889   H890    1.014   .     S
C891   O893    1.396   .     S
O892   C739    1.223   1_655 S
O893   H894    1.014   .     S
C895   O896    1.220   .     D
C895   O897    1.399   .     S
O897   H746    1.014   1_655 S
C899   O901    1.398   .     S
C899   O900    1.223   .     D
O901   H902    1.014   .     S
C903   O905    1.398   .     S
C903   O904    1.221   .     D
O905   H906    1.014   .     S
C907   O908    1.222   .     D
C907   O909    1.396   .     S
O909   H910    1.014   .     S
