data_str_m1_o1_o17_pcu_sym.163
_audit_creation_date              2020-01-03
_audit_creation_method            'Materials Studio'
_symmetry_space_group_name_H-M    'P1'
_symmetry_Int_Tables_number       1
_symmetry_cell_setting            triclinic
loop_
_symmetry_equiv_pos_as_xyz
  x,y,z
_cell_length_a                    36.5148
_cell_length_b                    36.5454
_cell_length_c                    34.4692
_cell_angle_alpha                 90.0638
_cell_angle_beta                  90.1751
_cell_angle_gamma                 89.9684
loop_
_atom_site_label
_atom_site_type_symbol
_atom_site_fract_x
_atom_site_fract_y
_atom_site_fract_z
_atom_site_U_iso_or_equiv
_atom_site_adp_type
_atom_site_occupancy
C1     C     0.46677   0.24972   0.41872   0.00000  Uiso   1.00
C2     C     0.03325   0.25005   0.58127   0.00000  Uiso   1.00
C3     C     0.25028   0.03330   0.41888   0.00000  Uiso   1.00
C4     C     0.24964   0.46670   0.58111   0.00000  Uiso   1.00
C5     C     0.03338   0.24993   0.41895   0.00000  Uiso   1.00
C6     C     0.46664   0.24981   0.58104   0.00000  Uiso   1.00
C7     C     0.24955   0.46675   0.41879   0.00000  Uiso   1.00
C8     C     0.25038   0.03325   0.58120   0.00000  Uiso   1.00
C9     C     0.21675   0.49985   0.91873   0.00000  Uiso   1.00
C10    C     0.28323   0.00030   0.08128   0.00000  Uiso   1.00
C11    C     0.00037   0.28330   0.91888   0.00000  Uiso   1.00
C12    C     0.49977   0.21670   0.08112   0.00000  Uiso   1.00
C13    C     0.28336   0.00019   0.91896   0.00000  Uiso   1.00
C14    C     0.21663   0.00000   0.08105   0.00000  Uiso   1.00
C15    C     0.49971   0.21675   0.91880   0.00000  Uiso   1.00
C16    C     0.00043   0.28325   0.08121   0.00000  Uiso   1.00
C17    C     0.00008   0.24987   0.39850   0.00000  Uiso   1.00
C18    C     0.49993   0.24996   0.60149   0.00000  Uiso   1.00
C19    C     0.24994   0.00003   0.39850   0.00000  Uiso   1.00
C20    C     0.25002   0.49997   0.60150   0.00000  Uiso   1.00
C21    C     0.25007   0.00000   0.89851   0.00000  Uiso   1.00
C22    C     0.24992   0.00012   0.10150   0.00000  Uiso   1.00
C23    C     0.00002   0.25003   0.89850   0.00000  Uiso   1.00
C24    C     0.00007   0.24997   0.10150   0.00000  Uiso   1.00
C25    C     0.06674   0.25004   0.48002   0.00000  Uiso   1.00
C26    C     0.43328   0.24961   0.51997   0.00000  Uiso   1.00
C27    C     0.24918   0.43335   0.47967   0.00000  Uiso   1.00
C28    C     0.25071   0.06665   0.52033   0.00000  Uiso   1.00
C29    C     0.43331   0.24959   0.47950   0.00000  Uiso   1.00
C30    C     0.06671   0.25008   0.52049   0.00000  Uiso   1.00
C31    C     0.25067   0.06666   0.47986   0.00000  Uiso   1.00
C32    C     0.24920   0.43334   0.52013   0.00000  Uiso   1.00
C33    C     0.31672   0.00043   0.98003   0.00000  Uiso   1.00
C34    C     0.18326   0.49982   0.01998   0.00000  Uiso   1.00
C35    C     0.49942   0.18335   0.97967   0.00000  Uiso   1.00
C36    C     0.00079   0.31665   0.02033   0.00000  Uiso   1.00
C37    C     0.18329   0.49977   0.97951   0.00000  Uiso   1.00
C38    C     0.31669   0.00047   0.02050   0.00000  Uiso   1.00
C39    C     0.00077   0.31666   0.97986   0.00000  Uiso   1.00
C40    C     0.49945   0.18333   0.02014   0.00000  Uiso   1.00
C41    C     0.24999   0.00001   0.35602   0.00000  Uiso   1.00
C42    C     0.25001   0.49999   0.64397   0.00000  Uiso   1.00
C43    C     0.00004   0.24996   0.35603   0.00000  Uiso   1.00
C44    C     0.49996   0.25000   0.64397   0.00000  Uiso   1.00
C45    C    -0.00000   0.25001   0.85602   0.00000  Uiso   1.00
C46    C     0.00002   0.24999   0.14398   0.00000  Uiso   1.00
C47    C     0.25004   0.49999   0.85603   0.00000  Uiso   1.00
C48    C     0.24996   0.00004   0.14397   0.00000  Uiso   1.00
C49    C     0.18022   0.07014   0.24960   0.00000  Uiso   1.00
C50    C     0.31997   0.43004   0.75002   0.00000  Uiso   1.00
C51    C     0.42989   0.18020   0.24964   0.00000  Uiso   1.00
C52    C     0.07011   0.31979   0.75036   0.00000  Uiso   1.00
C53    C     0.31983   0.42995   0.24995   0.00000  Uiso   1.00
C54    C     0.18006   0.06995   0.75000   0.00000  Uiso   1.00
C55    C     0.06981   0.32012   0.25038   0.00000  Uiso   1.00
C56    C     0.43019   0.17988   0.74962   0.00000  Uiso   1.00
C57    C     0.17989   0.43022   0.74963   0.00000  Uiso   1.00
C58    C     0.32011   0.06980   0.25036   0.00000  Uiso   1.00
C59    C     0.43003   0.31996   0.74997   0.00000  Uiso   1.00
C60    C     0.06978   0.17986   0.25040   0.00000  Uiso   1.00
C61    C     0.31980   0.07012   0.75039   0.00000  Uiso   1.00
C62    C     0.18019   0.42988   0.24961   0.00000  Uiso   1.00
C63    C     0.06994   0.18006   0.75000   0.00000  Uiso   1.00
C64    C     0.43017   0.32005   0.25005   0.00000  Uiso   1.00
C65    C     0.12721   0.40037   0.28112   0.00000  Uiso   1.00
C66    C     0.37463   0.09774   0.72065   0.00000  Uiso   1.00
C67    C     0.10050   0.12742   0.28176   0.00000  Uiso   1.00
C68    C     0.40688   0.37966   0.72716   0.00000  Uiso   1.00
C69    C     0.37568   0.09756   0.27911   0.00000  Uiso   1.00
C70    C     0.12496   0.40183   0.72024   0.00000  Uiso   1.00
C71    C     0.40707   0.37988   0.27280   0.00000  Uiso   1.00
C72    C     0.09314   0.12051   0.72677   0.00000  Uiso   1.00
C73    C     0.12057   0.09345   0.72641   0.00000  Uiso   1.00
C74    C     0.37953   0.40684   0.27314   0.00000  Uiso   1.00
C75    C     0.09760   0.37475   0.72070   0.00000  Uiso   1.00
C76    C     0.40305   0.12463   0.27860   0.00000  Uiso   1.00
C77    C     0.37967   0.40693   0.72723   0.00000  Uiso   1.00
C78    C     0.12758   0.10006   0.28143   0.00000  Uiso   1.00
C79    C     0.40172   0.12508   0.72019   0.00000  Uiso   1.00
C80    C     0.10019   0.37299   0.28152   0.00000  Uiso   1.00
C81    C     0.37534   0.15227   0.77935   0.00000  Uiso   1.00
C82    C     0.12279   0.34963   0.21888   0.00000  Uiso   1.00
C83    C     0.34312   0.37034   0.77284   0.00000  Uiso   1.00
C84    C     0.14950   0.12258   0.21824   0.00000  Uiso   1.00
C85    C     0.12507   0.34817   0.77972   0.00000  Uiso   1.00
C86    C     0.37432   0.15244   0.22089   0.00000  Uiso   1.00
C87    C     0.15663   0.12936   0.77357   0.00000  Uiso   1.00
C88    C     0.34293   0.37012   0.22720   0.00000  Uiso   1.00
C89    C     0.37047   0.34316   0.22685   0.00000  Uiso   1.00
C90    C     0.12956   0.15679   0.77323   0.00000  Uiso   1.00
C91    C     0.34695   0.12537   0.22141   0.00000  Uiso   1.00
C92    C     0.15238   0.37528   0.77929   0.00000  Uiso   1.00
C93    C     0.12242   0.14994   0.21857   0.00000  Uiso   1.00
C94    C     0.37033   0.34308   0.77277   0.00000  Uiso   1.00
C95    C     0.14981   0.37701   0.21848   0.00000  Uiso   1.00
C96    C     0.34829   0.12489   0.77985   0.00000  Uiso   1.00
C97    C     0.03358   0.24992   0.45943   0.00000  Uiso   1.00
C98    C     0.46644   0.24975   0.54057   0.00000  Uiso   1.00
C99    C     0.24955   0.46651   0.45925   0.00000  Uiso   1.00
C100   C     0.25035   0.03349   0.54074   0.00000  Uiso   1.00
C101   C     0.46651   0.24970   0.45918   0.00000  Uiso   1.00
C102   C     0.03351   0.24999   0.54082   0.00000  Uiso   1.00
C103   C     0.25029   0.03352   0.45935   0.00000  Uiso   1.00
C104   C     0.24960   0.46648   0.54065   0.00000  Uiso   1.00
C105   C     0.28356   0.00024   0.95944   0.00000  Uiso   1.00
C106   C     0.21642  -0.00000   0.04057   0.00000  Uiso   1.00
C107   C     0.49974   0.21650   0.95926   0.00000  Uiso   1.00
C108   C     0.00045   0.28349   0.04074   0.00000  Uiso   1.00
C109   C     0.21649   0.49991   0.95918   0.00000  Uiso   1.00
C110   C     0.28349   0.00031   0.04082   0.00000  Uiso   1.00
C111   C     0.00041   0.28352   0.95935   0.00000  Uiso   1.00
C112   C     0.49978   0.21648   0.04065   0.00000  Uiso   1.00
C113   C     0.09835   0.34776   0.25050   0.00000  Uiso   1.00
C114   C     0.40168   0.15221   0.74943   0.00000  Uiso   1.00
C115   C     0.15167   0.09777   0.24954   0.00000  Uiso   1.00
C116   C     0.34810   0.40196   0.75006   0.00000  Uiso   1.00
C117   C     0.40219   0.15171   0.24942   0.00000  Uiso   1.00
C118   C     0.09781   0.34829   0.75053   0.00000  Uiso   1.00
C119   C     0.34772   0.40163   0.25044   0.00000  Uiso   1.00
C120   C     0.15196   0.09806   0.74999   0.00000  Uiso   1.00
C121   C     0.09803   0.15196   0.75001   0.00000  Uiso   1.00
C122   C     0.40228   0.34837   0.24956   0.00000  Uiso   1.00
C123   C     0.15218   0.40172   0.74945   0.00000  Uiso   1.00
C124   C     0.34781   0.09829   0.25058   0.00000  Uiso   1.00
C125   C     0.40190   0.34804   0.74994   0.00000  Uiso   1.00
C126   C     0.09833   0.15223   0.25046   0.00000  Uiso   1.00
C127   C     0.34831   0.09779   0.75058   0.00000  Uiso   1.00
C128   C     0.15165   0.40224   0.24950   0.00000  Uiso   1.00
C129   C     0.00003   0.24982   0.47964   0.00000  Uiso   1.00
C130   C     0.49999   0.24985   0.52036   0.00000  Uiso   1.00
C131   C     0.24993   0.00001   0.47964   0.00000  Uiso   1.00
C132   C     0.24996   0.49999   0.52036   0.00000  Uiso   1.00
C133   C     0.25001   0.00010   0.97964   0.00000  Uiso   1.00
C134   C     0.24997   0.00014   0.02036   0.00000  Uiso   1.00
C135   C     0.00009   0.25000   0.97964   0.00000  Uiso   1.00
C136   C     0.00011   0.24999   0.02036   0.00000  Uiso   1.00
H137   H     0.09268   0.25011   0.46483   0.00000  Uiso   1.00
H138   H     0.40734   0.24953   0.53516   0.00000  Uiso   1.00
H139   H     0.24888   0.40745   0.46433   0.00000  Uiso   1.00
H140   H     0.25101   0.09255   0.53566   0.00000  Uiso   1.00
H141   H     0.40739   0.24949   0.46410   0.00000  Uiso   1.00
H142   H     0.09263   0.25018   0.53589   0.00000  Uiso   1.00
H143   H     0.25095   0.09257   0.46460   0.00000  Uiso   1.00
H144   H     0.24892   0.40743   0.53539   0.00000  Uiso   1.00
H145   H     0.34266   0.00055   0.96484   0.00000  Uiso   1.00
H146   H     0.15732   0.49971   0.03517   0.00000  Uiso   1.00
H147   H     0.49915   0.15745   0.96434   0.00000  Uiso   1.00
H148   H     0.00106   0.34255   0.03567   0.00000  Uiso   1.00
H149   H     0.15737   0.49963   0.96411   0.00000  Uiso   1.00
H150   H     0.34261   0.00060   0.03590   0.00000  Uiso   1.00
H151   H     0.00103   0.34257   0.96461   0.00000  Uiso   1.00
H152   H     0.49919   0.15743   0.03540   0.00000  Uiso   1.00
H153   H     0.44099   0.24965   0.40302   0.00000  Uiso   1.00
H154   H     0.05902   0.25016   0.59698   0.00000  Uiso   1.00
H155   H     0.25057   0.05905   0.40330   0.00000  Uiso   1.00
H156   H     0.24935   0.44095   0.59669   0.00000  Uiso   1.00
H157   H     0.05915   0.25001   0.40342   0.00000  Uiso   1.00
H158   H     0.44086   0.24973   0.59656   0.00000  Uiso   1.00
H159   H     0.24926   0.44100   0.40315   0.00000  Uiso   1.00
H160   H     0.25069   0.05900   0.59685   0.00000  Uiso   1.00
H161   H     0.19098   0.49970   0.90302   0.00000  Uiso   1.00
H162   H     0.30901   0.00042   0.09698   0.00000  Uiso   1.00
H163   H     0.00063   0.30905   0.90330   0.00000  Uiso   1.00
H164   H     0.49951   0.19095   0.09670   0.00000  Uiso   1.00
H165   H     0.30914   0.00031   0.90344   0.00000  Uiso   1.00
H166   H     0.19085   0.49989   0.09658   0.00000  Uiso   1.00
H167   H     0.49942   0.19099   0.90315   0.00000  Uiso   1.00
H168   H     0.00069   0.30900   0.09685   0.00000  Uiso   1.00
O169   O     0.25000  -0.00000   0.25000   0.00000  Uiso   1.00
O170   O     0.25000  -0.00000   0.75000   0.00000  Uiso   1.00
O171   O     0.00000   0.25000   0.25000   0.00000  Uiso   1.00
O172   O     0.00000   0.25000   0.75000   0.00000  Uiso   1.00
O173   O     0.25000   0.46963   0.33755   0.00000  Uiso   1.00
O174   O     0.25000   0.03036   0.66245   0.00000  Uiso   1.00
O175   O     0.03037   0.25000   0.33755   0.00000  Uiso   1.00
O176   O     0.46964   0.25000   0.66245   0.00000  Uiso   1.00
O177   O     0.25000   0.03036   0.33755   0.00000  Uiso   1.00
O178   O     0.25000   0.46963   0.66245   0.00000  Uiso   1.00
O179   O     0.46964   0.25000   0.33755   0.00000  Uiso   1.00
O180   O     0.03037   0.25000   0.66245   0.00000  Uiso   1.00
O181   O     0.00000   0.21964   0.83755   0.00000  Uiso   1.00
O182   O     0.00000   0.28036   0.16245   0.00000  Uiso   1.00
O183   O     0.28037  -0.00000   0.83755   0.00000  Uiso   1.00
O184   O     0.21964  -0.00000   0.16245   0.00000  Uiso   1.00
O185   O     0.00000   0.28037   0.83755   0.00000  Uiso   1.00
O186   O     0.00000   0.21964   0.16245   0.00000  Uiso   1.00
O187   O     0.21964  -0.00000   0.83755   0.00000  Uiso   1.00
O188   O     0.28037  -0.00000   0.16245   0.00000  Uiso   1.00
O189   O     0.20725   0.07307   0.27302   0.00000  Uiso   1.00
O190   O     0.29276   0.42692   0.72698   0.00000  Uiso   1.00
O191   O     0.42693   0.20724   0.27302   0.00000  Uiso   1.00
O192   O     0.07308   0.29276   0.72698   0.00000  Uiso   1.00
O193   O     0.29276   0.42692   0.27302   0.00000  Uiso   1.00
O194   O     0.20725   0.07307   0.72698   0.00000  Uiso   1.00
O195   O     0.07308   0.29276   0.27302   0.00000  Uiso   1.00
O196   O     0.42693   0.20724   0.72698   0.00000  Uiso   1.00
O197   O     0.20725   0.42693   0.72698   0.00000  Uiso   1.00
O198   O     0.29276   0.07307   0.27302   0.00000  Uiso   1.00
O199   O     0.42693   0.29275   0.72698   0.00000  Uiso   1.00
O200   O     0.07308   0.20725   0.27302   0.00000  Uiso   1.00
O201   O     0.29276   0.07307   0.72698   0.00000  Uiso   1.00
O202   O     0.20725   0.42693   0.27302   0.00000  Uiso   1.00
O203   O     0.07308   0.20725   0.72698   0.00000  Uiso   1.00
O204   O     0.42693   0.29275   0.27302   0.00000  Uiso   1.00
O205   O     0.45725   0.32307   0.77302   0.00000  Uiso   1.00
O206   O     0.04276   0.17693   0.22698   0.00000  Uiso   1.00
O207   O     0.17693   0.45725   0.77302   0.00000  Uiso   1.00
O208   O     0.32308   0.04275   0.22698   0.00000  Uiso   1.00
O209   O     0.04276   0.17693   0.77302   0.00000  Uiso   1.00
O210   O     0.45725   0.32307   0.22698   0.00000  Uiso   1.00
O211   O     0.32308   0.04275   0.77302   0.00000  Uiso   1.00
O212   O     0.17693   0.45725   0.22698   0.00000  Uiso   1.00
O213   O     0.45725   0.17692   0.22698   0.00000  Uiso   1.00
O214   O     0.04276   0.32308   0.77302   0.00000  Uiso   1.00
O215   O     0.17693   0.04275   0.22698   0.00000  Uiso   1.00
O216   O     0.32308   0.45724   0.77302   0.00000  Uiso   1.00
O217   O     0.04276   0.32308   0.22698   0.00000  Uiso   1.00
O218   O     0.45725   0.17692   0.77302   0.00000  Uiso   1.00
O219   O     0.32308   0.45724   0.22698   0.00000  Uiso   1.00
O220   O     0.17693   0.04275   0.77302   0.00000  Uiso   1.00
Zn221  Zn    0.20660  -0.00000   0.21735   0.00000  Uiso   1.00
Zn222  Zn    0.29341  -0.00000   0.78265   0.00000  Uiso   1.00
Zn223  Zn    0.00000   0.20660   0.21735   0.00000  Uiso   1.00
Zn224  Zn    0.00000   0.29341   0.78265   0.00000  Uiso   1.00
Zn225  Zn    0.29341  -0.00000   0.21735   0.00000  Uiso   1.00
Zn226  Zn    0.20660  -0.00000   0.78265   0.00000  Uiso   1.00
Zn227  Zn    0.00000   0.29341   0.21735   0.00000  Uiso   1.00
Zn228  Zn    0.00000   0.20660   0.78265   0.00000  Uiso   1.00
Zn229  Zn    0.45660   0.25000   0.71735   0.00000  Uiso   1.00
Zn230  Zn    0.04341   0.25000   0.28265   0.00000  Uiso   1.00
Zn231  Zn    0.25000   0.45659   0.71735   0.00000  Uiso   1.00
Zn232  Zn    0.25000   0.04340   0.28265   0.00000  Uiso   1.00
Zn233  Zn    0.04341   0.25000   0.71735   0.00000  Uiso   1.00
Zn234  Zn    0.45660   0.25000   0.28265   0.00000  Uiso   1.00
Zn235  Zn    0.25000   0.04340   0.71735   0.00000  Uiso   1.00
Zn236  Zn    0.25000   0.45659   0.28265   0.00000  Uiso   1.00
C237   C     0.13059   0.42640   0.31431   0.00000  Uiso   1.00
O238   O     0.13426   0.45916   0.30834   0.00000  Uiso   1.00
O239   O     0.12956   0.41327   0.35239   0.00000  Uiso   1.00
H240   H     0.13213   0.43351   0.37235   0.00000  Uiso   1.00
C241   C     0.37300   0.06981   0.68911   0.00000  Uiso   1.00
O242   O     0.36906   0.03745   0.69702   0.00000  Uiso   1.00
O243   O     0.37594   0.08069   0.65036   0.00000  Uiso   1.00
H244   H     0.37444   0.05930   0.63166   0.00000  Uiso   1.00
C245   C     0.07269   0.12839   0.31329   0.00000  Uiso   1.00
O246   O     0.05489   0.10094   0.32067   0.00000  Uiso   1.00
O247   O     0.06711   0.16045   0.33463   0.00000  Uiso   1.00
H248   H     0.04738   0.15764   0.35504   0.00000  Uiso   1.00
C249   C     0.43962   0.38289   0.70184   0.00000  Uiso   1.00
O250   O     0.46074   0.40855   0.70585   0.00000  Uiso   1.00
O251   O     0.44655   0.35595   0.67398   0.00000  Uiso   1.00
H252   H     0.46960   0.36098   0.65855   0.00000  Uiso   1.00
C253   C     0.37756   0.06722   0.30795   0.00000  Uiso   1.00
O254   O     0.35042   0.05860   0.32652   0.00000  Uiso   1.00
O255   O     0.41064   0.04874   0.31396   0.00000  Uiso   1.00
H256   H     0.40875   0.02920   0.33471   0.00000  Uiso   1.00
C257   C     0.12359   0.43170   0.69081   0.00000  Uiso   1.00
O258   O     0.15096   0.43975   0.67234   0.00000  Uiso   1.00
O259   O     0.09075   0.45042   0.68419   0.00000  Uiso   1.00
H260   H     0.09312   0.46989   0.66342   0.00000  Uiso   1.00
C261   C     0.43993   0.38366   0.29830   0.00000  Uiso   1.00
O262   O     0.47062   0.37879   0.28515   0.00000  Uiso   1.00
O263   O     0.43558   0.39284   0.33741   0.00000  Uiso   1.00
H264   H     0.45981   0.39463   0.35173   0.00000  Uiso   1.00
C265   C     0.05885   0.11571   0.70370   0.00000  Uiso   1.00
O266   O     0.04200   0.08683   0.70522   0.00000  Uiso   1.00
O267   O     0.04587   0.14424   0.68040   0.00000  Uiso   1.00
H268   H     0.02236   0.13774   0.66630   0.00000  Uiso   1.00
C269   C     0.11721   0.06115   0.70016   0.00000  Uiso   1.00
O270   O     0.12257   0.03027   0.71257   0.00000  Uiso   1.00
O271   O     0.10782   0.06624   0.66117   0.00000  Uiso   1.00
H272   H     0.10635   0.04233   0.64629   0.00000  Uiso   1.00
C273   C     0.38429   0.44111   0.29614   0.00000  Uiso   1.00
O274   O     0.41295   0.45830   0.29420   0.00000  Uiso   1.00
O275   O     0.35591   0.45370   0.31983   0.00000  Uiso   1.00
H276   H     0.36235   0.47723   0.33385   0.00000  Uiso   1.00
C277   C     0.06950   0.37328   0.68924   0.00000  Uiso   1.00
O278   O     0.03715   0.36925   0.69725   0.00000  Uiso   1.00
O279   O     0.08018   0.37648   0.65047   0.00000  Uiso   1.00
H280   H     0.05868   0.37507   0.63185   0.00000  Uiso   1.00
C281   C     0.43182   0.12550   0.30942   0.00000  Uiso   1.00
O282   O     0.46405   0.12929   0.30074   0.00000  Uiso   1.00
O283   O     0.42186   0.12201   0.34838   0.00000  Uiso   1.00
H284   H     0.44373   0.12301   0.36654   0.00000  Uiso   1.00
C285   C     0.38290   0.43973   0.70201   0.00000  Uiso   1.00
O286   O     0.40842   0.46099   0.70633   0.00000  Uiso   1.00
O287   O     0.35610   0.44660   0.67388   0.00000  Uiso   1.00
H288   H     0.36109   0.46972   0.65857   0.00000  Uiso   1.00
C289   C     0.13126   0.07444   0.31488   0.00000  Uiso   1.00
O290   O     0.13507   0.04162   0.30925   0.00000  Uiso   1.00
O291   O     0.13037   0.08801   0.35282   0.00000  Uiso   1.00
H292   H     0.13317   0.06802   0.37298   0.00000  Uiso   1.00
C293   C     0.43151   0.12376   0.69072   0.00000  Uiso   1.00
O294   O     0.43962   0.15116   0.67233   0.00000  Uiso   1.00
O295   O     0.45004   0.09088   0.68392   0.00000  Uiso   1.00
H296   H     0.46921   0.09315   0.66286   0.00000  Uiso   1.00
C297   C     0.07209   0.37263   0.31280   0.00000  Uiso   1.00
O298   O     0.06600   0.34458   0.33097   0.00000  Uiso   1.00
O299   O     0.05289   0.40468   0.32158   0.00000  Uiso   1.00
H300   H     0.03465   0.40114   0.34337   0.00000  Uiso   1.00
C301   C     0.37690   0.18025   0.81085   0.00000  Uiso   1.00
O302   O     0.38086   0.21260   0.80289   0.00000  Uiso   1.00
O303   O     0.37389   0.16944   0.84962   0.00000  Uiso   1.00
H304   H     0.37536   0.19086   0.86827   0.00000  Uiso   1.00
C305   C     0.11941   0.32361   0.18569   0.00000  Uiso   1.00
O306   O     0.11574   0.29084   0.19166   0.00000  Uiso   1.00
O307   O     0.12044   0.33673   0.14761   0.00000  Uiso   1.00
H308   H     0.11787   0.31649   0.12765   0.00000  Uiso   1.00
C309   C     0.31038   0.36711   0.79815   0.00000  Uiso   1.00
O310   O     0.28923   0.34147   0.79412   0.00000  Uiso   1.00
O311   O     0.30346   0.39403   0.82604   0.00000  Uiso   1.00
H312   H     0.28041   0.38901   0.84146   0.00000  Uiso   1.00
C313   C     0.17731   0.12161   0.18671   0.00000  Uiso   1.00
O314   O     0.19511   0.14906   0.17933   0.00000  Uiso   1.00
O315   O     0.18289   0.08955   0.16537   0.00000  Uiso   1.00
H316   H     0.20262   0.09236   0.14496   0.00000  Uiso   1.00
C317   C     0.12653   0.31827   0.80911   0.00000  Uiso   1.00
O318   O     0.09918   0.31003   0.82751   0.00000  Uiso   1.00
O319   O     0.15948   0.29978   0.81580   0.00000  Uiso   1.00
H320   H     0.15731   0.28051   0.83680   0.00000  Uiso   1.00
C321   C     0.37244   0.18278   0.19205   0.00000  Uiso   1.00
O322   O     0.39958   0.19140   0.17348   0.00000  Uiso   1.00
O323   O     0.33936   0.20126   0.18604   0.00000  Uiso   1.00
H324   H     0.34125   0.22079   0.16529   0.00000  Uiso   1.00
C325   C     0.18901   0.13264   0.79983   0.00000  Uiso   1.00
O326   O     0.21989   0.12729   0.78740   0.00000  Uiso   1.00
O327   O     0.18400   0.14195   0.83881   0.00000  Uiso   1.00
H328   H     0.20796   0.14337   0.85369   0.00000  Uiso   1.00
C329   C     0.31007   0.36634   0.20170   0.00000  Uiso   1.00
O330   O     0.27938   0.37121   0.21485   0.00000  Uiso   1.00
O331   O     0.31442   0.35716   0.16259   0.00000  Uiso   1.00
H332   H     0.29019   0.35536   0.14827   0.00000  Uiso   1.00
C333   C     0.36571   0.30889   0.20386   0.00000  Uiso   1.00
O334   O     0.33705   0.29170   0.20581   0.00000  Uiso   1.00
O335   O     0.39409   0.29630   0.18016   0.00000  Uiso   1.00
H336   H     0.38765   0.27277   0.16615   0.00000  Uiso   1.00
C337   C     0.13444   0.19101   0.79630   0.00000  Uiso   1.00
O338   O     0.16335   0.20782   0.79478   0.00000  Uiso   1.00
O339   O     0.10594   0.20396   0.81960   0.00000  Uiso   1.00
H340   H     0.11250   0.22742   0.83369   0.00000  Uiso   1.00
C341   C     0.31818   0.12450   0.19058   0.00000  Uiso   1.00
O342   O     0.28595   0.12071   0.19926   0.00000  Uiso   1.00
O343   O     0.32814   0.12799   0.15162   0.00000  Uiso   1.00
H344   H     0.30627   0.12699   0.13346   0.00000  Uiso   1.00
C345   C     0.18045   0.37681   0.81079   0.00000  Uiso   1.00
O346   O     0.21280   0.38082   0.80283   0.00000  Uiso   1.00
O347   O     0.16970   0.37368   0.84955   0.00000  Uiso   1.00
H348   H     0.19117   0.37512   0.86821   0.00000  Uiso   1.00
C349   C     0.11874   0.17556   0.18512   0.00000  Uiso   1.00
O350   O     0.11494   0.20838   0.19074   0.00000  Uiso   1.00
O351   O     0.11963   0.16199   0.14718   0.00000  Uiso   1.00
H352   H     0.11683   0.18198   0.12701   0.00000  Uiso   1.00
C353   C     0.36710   0.31027   0.79800   0.00000  Uiso   1.00
O354   O     0.34156   0.28903   0.79370   0.00000  Uiso   1.00
O355   O     0.39392   0.30339   0.82610   0.00000  Uiso   1.00
H356   H     0.38893   0.28027   0.84142   0.00000  Uiso   1.00
C357   C     0.17791   0.37737   0.18720   0.00000  Uiso   1.00
O358   O     0.18400   0.40542   0.16903   0.00000  Uiso   1.00
O359   O     0.19711   0.34532   0.17842   0.00000  Uiso   1.00
H360   H     0.21535   0.34886   0.15663   0.00000  Uiso   1.00
C361   C     0.31853   0.12611   0.80937   0.00000  Uiso   1.00
O362   O     0.31061   0.09869   0.82783   0.00000  Uiso   1.00
O363   O     0.29976   0.15886   0.81608   0.00000  Uiso   1.00
H364   H     0.28037   0.15639   0.83691   0.00000  Uiso   1.00
C365   C     0.96677   0.24972   0.41872   0.00000  Uiso   1.00
C366   C     0.53325   0.25005   0.58127   0.00000  Uiso   1.00
C367   C     0.75028   0.03330   0.41888   0.00000  Uiso   1.00
C368   C     0.74964   0.46670   0.58111   0.00000  Uiso   1.00
C369   C     0.53338   0.24993   0.41895   0.00000  Uiso   1.00
C370   C     0.96664   0.24981   0.58104   0.00000  Uiso   1.00
C371   C     0.74955   0.46675   0.41879   0.00000  Uiso   1.00
C372   C     0.75038   0.03325   0.58120   0.00000  Uiso   1.00
C373   C     0.71675   0.49985   0.91873   0.00000  Uiso   1.00
C374   C     0.78323   0.00030   0.08128   0.00000  Uiso   1.00
C375   C     0.50037   0.28330   0.91888   0.00000  Uiso   1.00
C376   C     0.99977   0.21670   0.08112   0.00000  Uiso   1.00
C377   C     0.78336   0.00019   0.91896   0.00000  Uiso   1.00
C378   C     0.71663   0.00000   0.08105   0.00000  Uiso   1.00
C379   C     0.99971   0.21675   0.91880   0.00000  Uiso   1.00
C380   C     0.50043   0.28325   0.08121   0.00000  Uiso   1.00
C381   C     0.50008   0.24987   0.39850   0.00000  Uiso   1.00
C382   C     0.99993   0.24996   0.60149   0.00000  Uiso   1.00
C383   C     0.74994   0.00003   0.39850   0.00000  Uiso   1.00
C384   C     0.75002   0.49997   0.60150   0.00000  Uiso   1.00
C385   C     0.75007   0.00000   0.89851   0.00000  Uiso   1.00
C386   C     0.74992   0.00012   0.10150   0.00000  Uiso   1.00
C387   C     0.50002   0.25003   0.89850   0.00000  Uiso   1.00
C388   C     0.50007   0.24997   0.10150   0.00000  Uiso   1.00
C389   C     0.56674   0.25004   0.48002   0.00000  Uiso   1.00
C390   C     0.93328   0.24961   0.51997   0.00000  Uiso   1.00
C391   C     0.74918   0.43335   0.47967   0.00000  Uiso   1.00
C392   C     0.75071   0.06665   0.52033   0.00000  Uiso   1.00
C393   C     0.93331   0.24959   0.47950   0.00000  Uiso   1.00
C394   C     0.56671   0.25008   0.52049   0.00000  Uiso   1.00
C395   C     0.75067   0.06666   0.47986   0.00000  Uiso   1.00
C396   C     0.74920   0.43334   0.52013   0.00000  Uiso   1.00
C397   C     0.81672   0.00043   0.98003   0.00000  Uiso   1.00
C398   C     0.68326   0.49982   0.01998   0.00000  Uiso   1.00
C399   C     0.99942   0.18335   0.97967   0.00000  Uiso   1.00
C400   C     0.50079   0.31665   0.02033   0.00000  Uiso   1.00
C401   C     0.68329   0.49977   0.97951   0.00000  Uiso   1.00
C402   C     0.81669   0.00047   0.02050   0.00000  Uiso   1.00
C403   C     0.50077   0.31666   0.97986   0.00000  Uiso   1.00
C404   C     0.99945   0.18333   0.02014   0.00000  Uiso   1.00
C405   C     0.74999   0.00001   0.35602   0.00000  Uiso   1.00
C406   C     0.75001   0.49999   0.64397   0.00000  Uiso   1.00
C407   C     0.50004   0.24996   0.35603   0.00000  Uiso   1.00
C408   C     0.99996   0.25000   0.64397   0.00000  Uiso   1.00
C409   C     0.50000   0.25001   0.85602   0.00000  Uiso   1.00
C410   C     0.50002   0.24999   0.14398   0.00000  Uiso   1.00
C411   C     0.75004   0.49999   0.85603   0.00000  Uiso   1.00
C412   C     0.74996   0.00004   0.14397   0.00000  Uiso   1.00
C413   C     0.68022   0.07014   0.24960   0.00000  Uiso   1.00
C414   C     0.81997   0.43004   0.75002   0.00000  Uiso   1.00
C415   C     0.92989   0.18020   0.24964   0.00000  Uiso   1.00
C416   C     0.57011   0.31979   0.75036   0.00000  Uiso   1.00
C417   C     0.81983   0.42995   0.24995   0.00000  Uiso   1.00
C418   C     0.68006   0.06995   0.75000   0.00000  Uiso   1.00
C419   C     0.56981   0.32012   0.25038   0.00000  Uiso   1.00
C420   C     0.93019   0.17988   0.74962   0.00000  Uiso   1.00
C421   C     0.67989   0.43022   0.74963   0.00000  Uiso   1.00
C422   C     0.82011   0.06980   0.25036   0.00000  Uiso   1.00
C423   C     0.93003   0.31996   0.74997   0.00000  Uiso   1.00
C424   C     0.56978   0.17986   0.25040   0.00000  Uiso   1.00
C425   C     0.81980   0.07012   0.75039   0.00000  Uiso   1.00
C426   C     0.68019   0.42988   0.24961   0.00000  Uiso   1.00
C427   C     0.56994   0.18006   0.75000   0.00000  Uiso   1.00
C428   C     0.93017   0.32005   0.25005   0.00000  Uiso   1.00
C429   C     0.62721   0.40037   0.28112   0.00000  Uiso   1.00
C430   C     0.87463   0.09774   0.72065   0.00000  Uiso   1.00
C431   C     0.60050   0.12742   0.28176   0.00000  Uiso   1.00
C432   C     0.90688   0.37966   0.72716   0.00000  Uiso   1.00
C433   C     0.87568   0.09756   0.27911   0.00000  Uiso   1.00
C434   C     0.62496   0.40183   0.72024   0.00000  Uiso   1.00
C435   C     0.90707   0.37988   0.27280   0.00000  Uiso   1.00
C436   C     0.59314   0.12051   0.72677   0.00000  Uiso   1.00
C437   C     0.62057   0.09345   0.72641   0.00000  Uiso   1.00
C438   C     0.87953   0.40684   0.27314   0.00000  Uiso   1.00
C439   C     0.59760   0.37475   0.72070   0.00000  Uiso   1.00
C440   C     0.90305   0.12463   0.27860   0.00000  Uiso   1.00
C441   C     0.87967   0.40693   0.72723   0.00000  Uiso   1.00
C442   C     0.62758   0.10006   0.28143   0.00000  Uiso   1.00
C443   C     0.90172   0.12508   0.72019   0.00000  Uiso   1.00
C444   C     0.60019   0.37299   0.28152   0.00000  Uiso   1.00
C445   C     0.87534   0.15227   0.77935   0.00000  Uiso   1.00
C446   C     0.62279   0.34963   0.21888   0.00000  Uiso   1.00
C447   C     0.84312   0.37034   0.77284   0.00000  Uiso   1.00
C448   C     0.64950   0.12258   0.21824   0.00000  Uiso   1.00
C449   C     0.62507   0.34817   0.77972   0.00000  Uiso   1.00
C450   C     0.87432   0.15244   0.22089   0.00000  Uiso   1.00
C451   C     0.65663   0.12936   0.77357   0.00000  Uiso   1.00
C452   C     0.84293   0.37012   0.22720   0.00000  Uiso   1.00
C453   C     0.87047   0.34316   0.22685   0.00000  Uiso   1.00
C454   C     0.62956   0.15679   0.77323   0.00000  Uiso   1.00
C455   C     0.84695   0.12537   0.22141   0.00000  Uiso   1.00
C456   C     0.65238   0.37528   0.77929   0.00000  Uiso   1.00
C457   C     0.62242   0.14994   0.21857   0.00000  Uiso   1.00
C458   C     0.87033   0.34308   0.77277   0.00000  Uiso   1.00
C459   C     0.64981   0.37701   0.21848   0.00000  Uiso   1.00
C460   C     0.84829   0.12489   0.77985   0.00000  Uiso   1.00
C461   C     0.53358   0.24992   0.45943   0.00000  Uiso   1.00
C462   C     0.96644   0.24975   0.54057   0.00000  Uiso   1.00
C463   C     0.74955   0.46651   0.45925   0.00000  Uiso   1.00
C464   C     0.75035   0.03349   0.54074   0.00000  Uiso   1.00
C465   C     0.96651   0.24970   0.45918   0.00000  Uiso   1.00
C466   C     0.53351   0.24999   0.54082   0.00000  Uiso   1.00
C467   C     0.75029   0.03352   0.45935   0.00000  Uiso   1.00
C468   C     0.74960   0.46648   0.54065   0.00000  Uiso   1.00
C469   C     0.78356   0.00024   0.95944   0.00000  Uiso   1.00
C470   C     0.71642  -0.00000   0.04057   0.00000  Uiso   1.00
C471   C     0.99974   0.21650   0.95926   0.00000  Uiso   1.00
C472   C     0.50045   0.28349   0.04074   0.00000  Uiso   1.00
C473   C     0.71649   0.49991   0.95918   0.00000  Uiso   1.00
C474   C     0.78349   0.00031   0.04082   0.00000  Uiso   1.00
C475   C     0.50041   0.28352   0.95935   0.00000  Uiso   1.00
C476   C     0.99978   0.21648   0.04065   0.00000  Uiso   1.00
C477   C     0.59835   0.34776   0.25050   0.00000  Uiso   1.00
C478   C     0.90168   0.15221   0.74943   0.00000  Uiso   1.00
C479   C     0.65167   0.09777   0.24954   0.00000  Uiso   1.00
C480   C     0.84810   0.40196   0.75006   0.00000  Uiso   1.00
C481   C     0.90219   0.15171   0.24942   0.00000  Uiso   1.00
C482   C     0.59781   0.34829   0.75053   0.00000  Uiso   1.00
C483   C     0.84772   0.40163   0.25044   0.00000  Uiso   1.00
C484   C     0.65196   0.09806   0.74999   0.00000  Uiso   1.00
C485   C     0.59803   0.15196   0.75001   0.00000  Uiso   1.00
C486   C     0.90228   0.34837   0.24956   0.00000  Uiso   1.00
C487   C     0.65218   0.40172   0.74945   0.00000  Uiso   1.00
C488   C     0.84781   0.09829   0.25058   0.00000  Uiso   1.00
C489   C     0.90190   0.34804   0.74994   0.00000  Uiso   1.00
C490   C     0.59833   0.15223   0.25046   0.00000  Uiso   1.00
C491   C     0.84831   0.09779   0.75058   0.00000  Uiso   1.00
C492   C     0.65165   0.40224   0.24950   0.00000  Uiso   1.00
C493   C     0.50003   0.24982   0.47964   0.00000  Uiso   1.00
C494   C     0.99999   0.24985   0.52036   0.00000  Uiso   1.00
C495   C     0.74993   0.00001   0.47964   0.00000  Uiso   1.00
C496   C     0.74996   0.49999   0.52036   0.00000  Uiso   1.00
C497   C     0.75001   0.00010   0.97964   0.00000  Uiso   1.00
C498   C     0.74997   0.00014   0.02036   0.00000  Uiso   1.00
C499   C     0.50009   0.25000   0.97964   0.00000  Uiso   1.00
C500   C     0.50011   0.24999   0.02036   0.00000  Uiso   1.00
H501   H     0.59268   0.25011   0.46483   0.00000  Uiso   1.00
H502   H     0.90734   0.24953   0.53516   0.00000  Uiso   1.00
H503   H     0.74888   0.40745   0.46433   0.00000  Uiso   1.00
H504   H     0.75101   0.09255   0.53566   0.00000  Uiso   1.00
H505   H     0.90739   0.24949   0.46410   0.00000  Uiso   1.00
H506   H     0.59263   0.25018   0.53589   0.00000  Uiso   1.00
H507   H     0.75095   0.09257   0.46460   0.00000  Uiso   1.00
H508   H     0.74892   0.40743   0.53539   0.00000  Uiso   1.00
H509   H     0.84266   0.00055   0.96484   0.00000  Uiso   1.00
H510   H     0.65732   0.49971   0.03517   0.00000  Uiso   1.00
H511   H     0.99915   0.15745   0.96434   0.00000  Uiso   1.00
H512   H     0.50106   0.34255   0.03567   0.00000  Uiso   1.00
H513   H     0.65737   0.49963   0.96411   0.00000  Uiso   1.00
H514   H     0.84261   0.00060   0.03590   0.00000  Uiso   1.00
H515   H     0.50103   0.34257   0.96461   0.00000  Uiso   1.00
H516   H     0.99919   0.15743   0.03540   0.00000  Uiso   1.00
H517   H     0.94099   0.24965   0.40302   0.00000  Uiso   1.00
H518   H     0.55902   0.25016   0.59698   0.00000  Uiso   1.00
H519   H     0.75057   0.05905   0.40330   0.00000  Uiso   1.00
H520   H     0.74935   0.44095   0.59669   0.00000  Uiso   1.00
H521   H     0.55915   0.25001   0.40342   0.00000  Uiso   1.00
H522   H     0.94086   0.24973   0.59656   0.00000  Uiso   1.00
H523   H     0.74926   0.44100   0.40315   0.00000  Uiso   1.00
H524   H     0.75069   0.05900   0.59685   0.00000  Uiso   1.00
H525   H     0.69098   0.49970   0.90302   0.00000  Uiso   1.00
H526   H     0.80901   0.00042   0.09698   0.00000  Uiso   1.00
H527   H     0.50063   0.30905   0.90330   0.00000  Uiso   1.00
H528   H     0.99951   0.19095   0.09670   0.00000  Uiso   1.00
H529   H     0.80914   0.00031   0.90344   0.00000  Uiso   1.00
H530   H     0.69085   0.49989   0.09658   0.00000  Uiso   1.00
H531   H     0.99942   0.19099   0.90315   0.00000  Uiso   1.00
H532   H     0.50069   0.30900   0.09685   0.00000  Uiso   1.00
O533   O     0.75000  -0.00000   0.25000   0.00000  Uiso   1.00
O534   O     0.75000  -0.00000   0.75000   0.00000  Uiso   1.00
O535   O     0.50000   0.25000   0.25000   0.00000  Uiso   1.00
O536   O     0.50000   0.25000   0.75000   0.00000  Uiso   1.00
O537   O     0.75000   0.46963   0.33755   0.00000  Uiso   1.00
O538   O     0.75000   0.03036   0.66245   0.00000  Uiso   1.00
O539   O     0.53037   0.25000   0.33755   0.00000  Uiso   1.00
O540   O     0.96964   0.25000   0.66245   0.00000  Uiso   1.00
O541   O     0.75000   0.03036   0.33755   0.00000  Uiso   1.00
O542   O     0.75000   0.46963   0.66245   0.00000  Uiso   1.00
O543   O     0.96964   0.25000   0.33755   0.00000  Uiso   1.00
O544   O     0.53037   0.25000   0.66245   0.00000  Uiso   1.00
O545   O     0.50000   0.21964   0.83755   0.00000  Uiso   1.00
O546   O     0.50000   0.28036   0.16245   0.00000  Uiso   1.00
O547   O     0.78037  -0.00000   0.83755   0.00000  Uiso   1.00
O548   O     0.71964  -0.00000   0.16245   0.00000  Uiso   1.00
O549   O     0.50000   0.28037   0.83755   0.00000  Uiso   1.00
O550   O     0.50000   0.21964   0.16245   0.00000  Uiso   1.00
O551   O     0.71964  -0.00000   0.83755   0.00000  Uiso   1.00
O552   O     0.78037  -0.00000   0.16245   0.00000  Uiso   1.00
O553   O     0.70725   0.07307   0.27302   0.00000  Uiso   1.00
O554   O     0.79276   0.42692   0.72698   0.00000  Uiso   1.00
O555   O     0.92693   0.20724   0.27302   0.00000  Uiso   1.00
O556   O     0.57308   0.29276   0.72698   0.00000  Uiso   1.00
O557   O     0.79276   0.42692   0.27302   0.00000  Uiso   1.00
O558   O     0.70725   0.07307   0.72698   0.00000  Uiso   1.00
O559   O     0.57308   0.29276   0.27302   0.00000  Uiso   1.00
O560   O     0.92693   0.20724   0.72698   0.00000  Uiso   1.00
O561   O     0.70725   0.42693   0.72698   0.00000  Uiso   1.00
O562   O     0.79276   0.07307   0.27302   0.00000  Uiso   1.00
O563   O     0.92693   0.29275   0.72698   0.00000  Uiso   1.00
O564   O     0.57308   0.20725   0.27302   0.00000  Uiso   1.00
O565   O     0.79276   0.07307   0.72698   0.00000  Uiso   1.00
O566   O     0.70725   0.42693   0.27302   0.00000  Uiso   1.00
O567   O     0.57308   0.20725   0.72698   0.00000  Uiso   1.00
O568   O     0.92693   0.29275   0.27302   0.00000  Uiso   1.00
O569   O     0.95725   0.32307   0.77302   0.00000  Uiso   1.00
O570   O     0.54276   0.17693   0.22698   0.00000  Uiso   1.00
O571   O     0.67693   0.45725   0.77302   0.00000  Uiso   1.00
O572   O     0.82308   0.04275   0.22698   0.00000  Uiso   1.00
O573   O     0.54276   0.17693   0.77302   0.00000  Uiso   1.00
O574   O     0.95725   0.32307   0.22698   0.00000  Uiso   1.00
O575   O     0.82308   0.04275   0.77302   0.00000  Uiso   1.00
O576   O     0.67693   0.45725   0.22698   0.00000  Uiso   1.00
O577   O     0.95725   0.17692   0.22698   0.00000  Uiso   1.00
O578   O     0.54276   0.32308   0.77302   0.00000  Uiso   1.00
O579   O     0.67693   0.04275   0.22698   0.00000  Uiso   1.00
O580   O     0.82308   0.45724   0.77302   0.00000  Uiso   1.00
O581   O     0.54276   0.32308   0.22698   0.00000  Uiso   1.00
O582   O     0.95725   0.17692   0.77302   0.00000  Uiso   1.00
O583   O     0.82308   0.45724   0.22698   0.00000  Uiso   1.00
O584   O     0.67693   0.04275   0.77302   0.00000  Uiso   1.00
Zn585  Zn    0.70660  -0.00000   0.21735   0.00000  Uiso   1.00
Zn586  Zn    0.79341  -0.00000   0.78265   0.00000  Uiso   1.00
Zn587  Zn    0.50000   0.20660   0.21735   0.00000  Uiso   1.00
Zn588  Zn    0.50000   0.29341   0.78265   0.00000  Uiso   1.00
Zn589  Zn    0.79341  -0.00000   0.21735   0.00000  Uiso   1.00
Zn590  Zn    0.70660  -0.00000   0.78265   0.00000  Uiso   1.00
Zn591  Zn    0.50000   0.29341   0.21735   0.00000  Uiso   1.00
Zn592  Zn    0.50000   0.20660   0.78265   0.00000  Uiso   1.00
Zn593  Zn    0.95660   0.25000   0.71735   0.00000  Uiso   1.00
Zn594  Zn    0.54341   0.25000   0.28265   0.00000  Uiso   1.00
Zn595  Zn    0.75000   0.45659   0.71735   0.00000  Uiso   1.00
Zn596  Zn    0.75000   0.04340   0.28265   0.00000  Uiso   1.00
Zn597  Zn    0.54341   0.25000   0.71735   0.00000  Uiso   1.00
Zn598  Zn    0.95660   0.25000   0.28265   0.00000  Uiso   1.00
Zn599  Zn    0.75000   0.04340   0.71735   0.00000  Uiso   1.00
Zn600  Zn    0.75000   0.45659   0.28265   0.00000  Uiso   1.00
C601   C     0.63059   0.42640   0.31431   0.00000  Uiso   1.00
O602   O     0.63426   0.45916   0.30834   0.00000  Uiso   1.00
O603   O     0.62956   0.41327   0.35239   0.00000  Uiso   1.00
H604   H     0.63213   0.43351   0.37235   0.00000  Uiso   1.00
C605   C     0.87300   0.06981   0.68911   0.00000  Uiso   1.00
O606   O     0.86906   0.03745   0.69702   0.00000  Uiso   1.00
O607   O     0.87594   0.08069   0.65036   0.00000  Uiso   1.00
H608   H     0.87444   0.05930   0.63166   0.00000  Uiso   1.00
C609   C     0.57269   0.12839   0.31329   0.00000  Uiso   1.00
O610   O     0.55489   0.10094   0.32067   0.00000  Uiso   1.00
O611   O     0.56711   0.16045   0.33463   0.00000  Uiso   1.00
H612   H     0.54738   0.15764   0.35504   0.00000  Uiso   1.00
C613   C     0.93962   0.38289   0.70184   0.00000  Uiso   1.00
O614   O     0.96074   0.40855   0.70585   0.00000  Uiso   1.00
O615   O     0.94655   0.35595   0.67398   0.00000  Uiso   1.00
H616   H     0.96960   0.36098   0.65855   0.00000  Uiso   1.00
C617   C     0.87756   0.06722   0.30795   0.00000  Uiso   1.00
O618   O     0.85042   0.05860   0.32652   0.00000  Uiso   1.00
O619   O     0.91064   0.04874   0.31396   0.00000  Uiso   1.00
H620   H     0.90875   0.02920   0.33471   0.00000  Uiso   1.00
C621   C     0.62359   0.43170   0.69081   0.00000  Uiso   1.00
O622   O     0.65096   0.43975   0.67234   0.00000  Uiso   1.00
O623   O     0.59075   0.45042   0.68419   0.00000  Uiso   1.00
H624   H     0.59312   0.46989   0.66342   0.00000  Uiso   1.00
C625   C     0.93993   0.38366   0.29830   0.00000  Uiso   1.00
O626   O     0.97062   0.37879   0.28515   0.00000  Uiso   1.00
O627   O     0.93558   0.39284   0.33741   0.00000  Uiso   1.00
H628   H     0.95981   0.39463   0.35173   0.00000  Uiso   1.00
C629   C     0.55885   0.11571   0.70370   0.00000  Uiso   1.00
O630   O     0.54200   0.08683   0.70522   0.00000  Uiso   1.00
O631   O     0.54587   0.14424   0.68040   0.00000  Uiso   1.00
H632   H     0.52236   0.13774   0.66630   0.00000  Uiso   1.00
C633   C     0.61721   0.06115   0.70016   0.00000  Uiso   1.00
O634   O     0.62257   0.03027   0.71257   0.00000  Uiso   1.00
O635   O     0.60782   0.06624   0.66117   0.00000  Uiso   1.00
H636   H     0.60635   0.04233   0.64629   0.00000  Uiso   1.00
C637   C     0.88429   0.44111   0.29614   0.00000  Uiso   1.00
O638   O     0.91295   0.45830   0.29420   0.00000  Uiso   1.00
O639   O     0.85591   0.45370   0.31983   0.00000  Uiso   1.00
H640   H     0.86235   0.47723   0.33385   0.00000  Uiso   1.00
C641   C     0.56950   0.37328   0.68924   0.00000  Uiso   1.00
O642   O     0.53715   0.36925   0.69725   0.00000  Uiso   1.00
O643   O     0.58018   0.37648   0.65047   0.00000  Uiso   1.00
H644   H     0.55868   0.37507   0.63185   0.00000  Uiso   1.00
C645   C     0.93182   0.12550   0.30942   0.00000  Uiso   1.00
O646   O     0.96405   0.12929   0.30074   0.00000  Uiso   1.00
O647   O     0.92186   0.12201   0.34838   0.00000  Uiso   1.00
H648   H     0.94373   0.12301   0.36654   0.00000  Uiso   1.00
C649   C     0.88290   0.43973   0.70201   0.00000  Uiso   1.00
O650   O     0.90842   0.46099   0.70633   0.00000  Uiso   1.00
O651   O     0.85610   0.44660   0.67388   0.00000  Uiso   1.00
H652   H     0.86109   0.46972   0.65857   0.00000  Uiso   1.00
C653   C     0.63126   0.07444   0.31488   0.00000  Uiso   1.00
O654   O     0.63507   0.04162   0.30925   0.00000  Uiso   1.00
O655   O     0.63037   0.08801   0.35282   0.00000  Uiso   1.00
H656   H     0.63317   0.06802   0.37298   0.00000  Uiso   1.00
C657   C     0.93151   0.12376   0.69072   0.00000  Uiso   1.00
O658   O     0.93962   0.15116   0.67233   0.00000  Uiso   1.00
O659   O     0.95004   0.09088   0.68392   0.00000  Uiso   1.00
H660   H     0.96921   0.09315   0.66286   0.00000  Uiso   1.00
C661   C     0.57209   0.37263   0.31280   0.00000  Uiso   1.00
O662   O     0.56600   0.34458   0.33097   0.00000  Uiso   1.00
O663   O     0.55289   0.40468   0.32158   0.00000  Uiso   1.00
H664   H     0.53465   0.40114   0.34337   0.00000  Uiso   1.00
C665   C     0.87690   0.18025   0.81085   0.00000  Uiso   1.00
O666   O     0.88086   0.21260   0.80289   0.00000  Uiso   1.00
O667   O     0.87389   0.16944   0.84962   0.00000  Uiso   1.00
H668   H     0.87536   0.19086   0.86827   0.00000  Uiso   1.00
C669   C     0.61941   0.32361   0.18569   0.00000  Uiso   1.00
O670   O     0.61574   0.29084   0.19166   0.00000  Uiso   1.00
O671   O     0.62044   0.33673   0.14761   0.00000  Uiso   1.00
H672   H     0.61787   0.31649   0.12765   0.00000  Uiso   1.00
C673   C     0.81038   0.36711   0.79815   0.00000  Uiso   1.00
O674   O     0.78923   0.34147   0.79412   0.00000  Uiso   1.00
O675   O     0.80346   0.39403   0.82604   0.00000  Uiso   1.00
H676   H     0.78041   0.38901   0.84146   0.00000  Uiso   1.00
C677   C     0.67731   0.12161   0.18671   0.00000  Uiso   1.00
O678   O     0.69511   0.14906   0.17933   0.00000  Uiso   1.00
O679   O     0.68289   0.08955   0.16537   0.00000  Uiso   1.00
H680   H     0.70262   0.09236   0.14496   0.00000  Uiso   1.00
C681   C     0.62653   0.31827   0.80911   0.00000  Uiso   1.00
O682   O     0.59918   0.31003   0.82751   0.00000  Uiso   1.00
O683   O     0.65948   0.29978   0.81580   0.00000  Uiso   1.00
H684   H     0.65731   0.28051   0.83680   0.00000  Uiso   1.00
C685   C     0.87244   0.18278   0.19205   0.00000  Uiso   1.00
O686   O     0.89958   0.19140   0.17348   0.00000  Uiso   1.00
O687   O     0.83936   0.20126   0.18604   0.00000  Uiso   1.00
H688   H     0.84125   0.22079   0.16529   0.00000  Uiso   1.00
C689   C     0.68901   0.13264   0.79983   0.00000  Uiso   1.00
O690   O     0.71989   0.12729   0.78740   0.00000  Uiso   1.00
O691   O     0.68400   0.14195   0.83881   0.00000  Uiso   1.00
H692   H     0.70796   0.14337   0.85369   0.00000  Uiso   1.00
C693   C     0.81007   0.36634   0.20170   0.00000  Uiso   1.00
O694   O     0.77938   0.37121   0.21485   0.00000  Uiso   1.00
O695   O     0.81442   0.35716   0.16259   0.00000  Uiso   1.00
H696   H     0.79019   0.35536   0.14827   0.00000  Uiso   1.00
C697   C     0.86571   0.30889   0.20386   0.00000  Uiso   1.00
O698   O     0.83705   0.29170   0.20581   0.00000  Uiso   1.00
O699   O     0.89409   0.29630   0.18016   0.00000  Uiso   1.00
H700   H     0.88765   0.27277   0.16615   0.00000  Uiso   1.00
C701   C     0.63444   0.19101   0.79630   0.00000  Uiso   1.00
O702   O     0.66335   0.20782   0.79478   0.00000  Uiso   1.00
O703   O     0.60594   0.20396   0.81960   0.00000  Uiso   1.00
H704   H     0.61250   0.22742   0.83369   0.00000  Uiso   1.00
C705   C     0.81818   0.12450   0.19058   0.00000  Uiso   1.00
O706   O     0.78595   0.12071   0.19926   0.00000  Uiso   1.00
O707   O     0.82814   0.12799   0.15162   0.00000  Uiso   1.00
H708   H     0.80627   0.12699   0.13346   0.00000  Uiso   1.00
C709   C     0.68045   0.37681   0.81079   0.00000  Uiso   1.00
O710   O     0.71280   0.38082   0.80283   0.00000  Uiso   1.00
O711   O     0.66970   0.37368   0.84955   0.00000  Uiso   1.00
H712   H     0.69117   0.37512   0.86821   0.00000  Uiso   1.00
C713   C     0.61874   0.17556   0.18512   0.00000  Uiso   1.00
O714   O     0.61494   0.20838   0.19074   0.00000  Uiso   1.00
O715   O     0.61963   0.16199   0.14718   0.00000  Uiso   1.00
H716   H     0.61683   0.18198   0.12701   0.00000  Uiso   1.00
C717   C     0.86710   0.31027   0.79800   0.00000  Uiso   1.00
O718   O     0.84156   0.28903   0.79370   0.00000  Uiso   1.00
O719   O     0.89392   0.30339   0.82610   0.00000  Uiso   1.00
H720   H     0.88893   0.28027   0.84142   0.00000  Uiso   1.00
C721   C     0.67791   0.37737   0.18720   0.00000  Uiso   1.00
O722   O     0.68400   0.40542   0.16903   0.00000  Uiso   1.00
O723   O     0.69711   0.34532   0.17842   0.00000  Uiso   1.00
H724   H     0.71535   0.34886   0.15663   0.00000  Uiso   1.00
C725   C     0.81853   0.12611   0.80937   0.00000  Uiso   1.00
O726   O     0.81061   0.09869   0.82783   0.00000  Uiso   1.00
O727   O     0.79976   0.15886   0.81608   0.00000  Uiso   1.00
H728   H     0.78037   0.15639   0.83691   0.00000  Uiso   1.00
C729   C     0.46677   0.74972   0.41872   0.00000  Uiso   1.00
C730   C     0.03325   0.75005   0.58127   0.00000  Uiso   1.00
C731   C     0.25028   0.53330   0.41888   0.00000  Uiso   1.00
C732   C     0.24964   0.96670   0.58111   0.00000  Uiso   1.00
C733   C     0.03338   0.74993   0.41895   0.00000  Uiso   1.00
C734   C     0.46664   0.74981   0.58104   0.00000  Uiso   1.00
C735   C     0.24955   0.96675   0.41879   0.00000  Uiso   1.00
C736   C     0.25038   0.53325   0.58120   0.00000  Uiso   1.00
C737   C     0.21675   0.99985   0.91873   0.00000  Uiso   1.00
C738   C     0.28323   0.50030   0.08128   0.00000  Uiso   1.00
C739   C     0.00037   0.78330   0.91888   0.00000  Uiso   1.00
C740   C     0.49977   0.71670   0.08112   0.00000  Uiso   1.00
C741   C     0.28336   0.50019   0.91896   0.00000  Uiso   1.00
C742   C     0.21663   0.50000   0.08105   0.00000  Uiso   1.00
C743   C     0.49971   0.71675   0.91880   0.00000  Uiso   1.00
C744   C     0.00043   0.78325   0.08121   0.00000  Uiso   1.00
C745   C     0.00008   0.74987   0.39850   0.00000  Uiso   1.00
C746   C     0.49993   0.74996   0.60149   0.00000  Uiso   1.00
C747   C     0.24994   0.50003   0.39850   0.00000  Uiso   1.00
C748   C     0.25002   0.99997   0.60150   0.00000  Uiso   1.00
C749   C     0.25007   0.50000   0.89851   0.00000  Uiso   1.00
C750   C     0.24992   0.50012   0.10150   0.00000  Uiso   1.00
C751   C     0.00002   0.75003   0.89850   0.00000  Uiso   1.00
C752   C     0.00007   0.74997   0.10150   0.00000  Uiso   1.00
C753   C     0.06674   0.75004   0.48002   0.00000  Uiso   1.00
C754   C     0.43328   0.74961   0.51997   0.00000  Uiso   1.00
C755   C     0.24918   0.93335   0.47967   0.00000  Uiso   1.00
C756   C     0.25071   0.56665   0.52033   0.00000  Uiso   1.00
C757   C     0.43331   0.74959   0.47950   0.00000  Uiso   1.00
C758   C     0.06671   0.75008   0.52049   0.00000  Uiso   1.00
C759   C     0.25067   0.56666   0.47986   0.00000  Uiso   1.00
C760   C     0.24920   0.93334   0.52013   0.00000  Uiso   1.00
C761   C     0.31672   0.50043   0.98003   0.00000  Uiso   1.00
C762   C     0.18326   0.99982   0.01998   0.00000  Uiso   1.00
C763   C     0.49942   0.68335   0.97967   0.00000  Uiso   1.00
C764   C     0.00079   0.81665   0.02033   0.00000  Uiso   1.00
C765   C     0.18329   0.99977   0.97951   0.00000  Uiso   1.00
C766   C     0.31669   0.50047   0.02050   0.00000  Uiso   1.00
C767   C     0.00077   0.81666   0.97986   0.00000  Uiso   1.00
C768   C     0.49945   0.68333   0.02014   0.00000  Uiso   1.00
C769   C     0.24999   0.50001   0.35602   0.00000  Uiso   1.00
C770   C     0.25001   0.99999   0.64397   0.00000  Uiso   1.00
C771   C     0.00004   0.74996   0.35603   0.00000  Uiso   1.00
C772   C     0.49996   0.75000   0.64397   0.00000  Uiso   1.00
C773   C    -0.00000   0.75001   0.85602   0.00000  Uiso   1.00
C774   C     0.00002   0.74999   0.14398   0.00000  Uiso   1.00
C775   C     0.25004   0.99999   0.85603   0.00000  Uiso   1.00
C776   C     0.24996   0.50004   0.14397   0.00000  Uiso   1.00
C777   C     0.18022   0.57014   0.24960   0.00000  Uiso   1.00
C778   C     0.31997   0.93004   0.75002   0.00000  Uiso   1.00
C779   C     0.42989   0.68020   0.24964   0.00000  Uiso   1.00
C780   C     0.07011   0.81979   0.75036   0.00000  Uiso   1.00
C781   C     0.31983   0.92995   0.24995   0.00000  Uiso   1.00
C782   C     0.18006   0.56995   0.75000   0.00000  Uiso   1.00
C783   C     0.06981   0.82012   0.25038   0.00000  Uiso   1.00
C784   C     0.43019   0.67988   0.74962   0.00000  Uiso   1.00
C785   C     0.17989   0.93022   0.74963   0.00000  Uiso   1.00
C786   C     0.32011   0.56980   0.25036   0.00000  Uiso   1.00
C787   C     0.43003   0.81996   0.74997   0.00000  Uiso   1.00
C788   C     0.06978   0.67986   0.25040   0.00000  Uiso   1.00
C789   C     0.31980   0.57012   0.75039   0.00000  Uiso   1.00
C790   C     0.18019   0.92988   0.24961   0.00000  Uiso   1.00
C791   C     0.06994   0.68006   0.75000   0.00000  Uiso   1.00
C792   C     0.43017   0.82005   0.25005   0.00000  Uiso   1.00
C793   C     0.12721   0.90037   0.28112   0.00000  Uiso   1.00
C794   C     0.37463   0.59774   0.72065   0.00000  Uiso   1.00
C795   C     0.10050   0.62742   0.28176   0.00000  Uiso   1.00
C796   C     0.40688   0.87966   0.72716   0.00000  Uiso   1.00
C797   C     0.37568   0.59756   0.27911   0.00000  Uiso   1.00
C798   C     0.12496   0.90183   0.72024   0.00000  Uiso   1.00
C799   C     0.40707   0.87988   0.27280   0.00000  Uiso   1.00
C800   C     0.09314   0.62051   0.72677   0.00000  Uiso   1.00
C801   C     0.12057   0.59345   0.72641   0.00000  Uiso   1.00
C802   C     0.37953   0.90684   0.27314   0.00000  Uiso   1.00
C803   C     0.09760   0.87475   0.72070   0.00000  Uiso   1.00
C804   C     0.40305   0.62463   0.27860   0.00000  Uiso   1.00
C805   C     0.37967   0.90693   0.72723   0.00000  Uiso   1.00
C806   C     0.12758   0.60006   0.28143   0.00000  Uiso   1.00
C807   C     0.40172   0.62508   0.72019   0.00000  Uiso   1.00
C808   C     0.10019   0.87299   0.28152   0.00000  Uiso   1.00
C809   C     0.37534   0.65227   0.77935   0.00000  Uiso   1.00
C810   C     0.12279   0.84963   0.21888   0.00000  Uiso   1.00
C811   C     0.34312   0.87034   0.77284   0.00000  Uiso   1.00
C812   C     0.14950   0.62258   0.21824   0.00000  Uiso   1.00
C813   C     0.12507   0.84817   0.77972   0.00000  Uiso   1.00
C814   C     0.37432   0.65244   0.22089   0.00000  Uiso   1.00
C815   C     0.15663   0.62936   0.77357   0.00000  Uiso   1.00
C816   C     0.34293   0.87012   0.22720   0.00000  Uiso   1.00
C817   C     0.37047   0.84316   0.22685   0.00000  Uiso   1.00
C818   C     0.12956   0.65679   0.77323   0.00000  Uiso   1.00
C819   C     0.34695   0.62537   0.22141   0.00000  Uiso   1.00
C820   C     0.15238   0.87528   0.77929   0.00000  Uiso   1.00
C821   C     0.12242   0.64994   0.21857   0.00000  Uiso   1.00
C822   C     0.37033   0.84308   0.77277   0.00000  Uiso   1.00
C823   C     0.14981   0.87701   0.21848   0.00000  Uiso   1.00
C824   C     0.34829   0.62489   0.77985   0.00000  Uiso   1.00
C825   C     0.03358   0.74992   0.45943   0.00000  Uiso   1.00
C826   C     0.46644   0.74975   0.54057   0.00000  Uiso   1.00
C827   C     0.24955   0.96651   0.45925   0.00000  Uiso   1.00
C828   C     0.25035   0.53349   0.54074   0.00000  Uiso   1.00
C829   C     0.46651   0.74970   0.45918   0.00000  Uiso   1.00
C830   C     0.03351   0.74999   0.54082   0.00000  Uiso   1.00
C831   C     0.25029   0.53352   0.45935   0.00000  Uiso   1.00
C832   C     0.24960   0.96648   0.54065   0.00000  Uiso   1.00
C833   C     0.28356   0.50024   0.95944   0.00000  Uiso   1.00
C834   C     0.21642   0.50000   0.04057   0.00000  Uiso   1.00
C835   C     0.49974   0.71650   0.95926   0.00000  Uiso   1.00
C836   C     0.00045   0.78349   0.04074   0.00000  Uiso   1.00
C837   C     0.21649   0.99991   0.95918   0.00000  Uiso   1.00
C838   C     0.28349   0.50031   0.04082   0.00000  Uiso   1.00
C839   C     0.00041   0.78352   0.95935   0.00000  Uiso   1.00
C840   C     0.49978   0.71648   0.04065   0.00000  Uiso   1.00
C841   C     0.09835   0.84776   0.25050   0.00000  Uiso   1.00
C842   C     0.40168   0.65221   0.74943   0.00000  Uiso   1.00
C843   C     0.15167   0.59777   0.24954   0.00000  Uiso   1.00
C844   C     0.34810   0.90196   0.75006   0.00000  Uiso   1.00
C845   C     0.40219   0.65171   0.24942   0.00000  Uiso   1.00
C846   C     0.09781   0.84829   0.75053   0.00000  Uiso   1.00
C847   C     0.34772   0.90163   0.25044   0.00000  Uiso   1.00
C848   C     0.15196   0.59806   0.74999   0.00000  Uiso   1.00
C849   C     0.09803   0.65196   0.75001   0.00000  Uiso   1.00
C850   C     0.40228   0.84837   0.24956   0.00000  Uiso   1.00
C851   C     0.15218   0.90172   0.74945   0.00000  Uiso   1.00
C852   C     0.34781   0.59829   0.25058   0.00000  Uiso   1.00
C853   C     0.40190   0.84804   0.74994   0.00000  Uiso   1.00
C854   C     0.09833   0.65223   0.25046   0.00000  Uiso   1.00
C855   C     0.34831   0.59779   0.75058   0.00000  Uiso   1.00
C856   C     0.15165   0.90224   0.24950   0.00000  Uiso   1.00
C857   C     0.00003   0.74982   0.47964   0.00000  Uiso   1.00
C858   C     0.49999   0.74985   0.52036   0.00000  Uiso   1.00
C859   C     0.24993   0.50001   0.47964   0.00000  Uiso   1.00
C860   C     0.24996   0.99999   0.52036   0.00000  Uiso   1.00
C861   C     0.25001   0.50010   0.97964   0.00000  Uiso   1.00
C862   C     0.24997   0.50014   0.02036   0.00000  Uiso   1.00
C863   C     0.00009   0.75000   0.97964   0.00000  Uiso   1.00
C864   C     0.00011   0.74999   0.02036   0.00000  Uiso   1.00
H865   H     0.09268   0.75011   0.46483   0.00000  Uiso   1.00
H866   H     0.40734   0.74953   0.53516   0.00000  Uiso   1.00
H867   H     0.24888   0.90745   0.46433   0.00000  Uiso   1.00
H868   H     0.25101   0.59255   0.53566   0.00000  Uiso   1.00
H869   H     0.40739   0.74949   0.46410   0.00000  Uiso   1.00
H870   H     0.09263   0.75018   0.53589   0.00000  Uiso   1.00
H871   H     0.25095   0.59257   0.46460   0.00000  Uiso   1.00
H872   H     0.24892   0.90743   0.53539   0.00000  Uiso   1.00
H873   H     0.34266   0.50055   0.96484   0.00000  Uiso   1.00
H874   H     0.15732   0.99971   0.03517   0.00000  Uiso   1.00
H875   H     0.49915   0.65745   0.96434   0.00000  Uiso   1.00
H876   H     0.00106   0.84255   0.03567   0.00000  Uiso   1.00
H877   H     0.15737   0.99963   0.96411   0.00000  Uiso   1.00
H878   H     0.34261   0.50060   0.03590   0.00000  Uiso   1.00
H879   H     0.00103   0.84257   0.96461   0.00000  Uiso   1.00
H880   H     0.49919   0.65743   0.03540   0.00000  Uiso   1.00
H881   H     0.44099   0.74965   0.40302   0.00000  Uiso   1.00
H882   H     0.05902   0.75016   0.59698   0.00000  Uiso   1.00
H883   H     0.25057   0.55905   0.40330   0.00000  Uiso   1.00
H884   H     0.24935   0.94095   0.59669   0.00000  Uiso   1.00
H885   H     0.05915   0.75001   0.40342   0.00000  Uiso   1.00
H886   H     0.44086   0.74973   0.59656   0.00000  Uiso   1.00
H887   H     0.24926   0.94100   0.40315   0.00000  Uiso   1.00
H888   H     0.25069   0.55900   0.59685   0.00000  Uiso   1.00
H889   H     0.19098   0.99970   0.90302   0.00000  Uiso   1.00
H890   H     0.30901   0.50042   0.09698   0.00000  Uiso   1.00
H891   H     0.00063   0.80905   0.90330   0.00000  Uiso   1.00
H892   H     0.49951   0.69095   0.09670   0.00000  Uiso   1.00
H893   H     0.30914   0.50031   0.90344   0.00000  Uiso   1.00
H894   H     0.19085   0.99989   0.09658   0.00000  Uiso   1.00
H895   H     0.49942   0.69099   0.90315   0.00000  Uiso   1.00
H896   H     0.00069   0.80900   0.09685   0.00000  Uiso   1.00
O897   O     0.25000   0.50000   0.25000   0.00000  Uiso   1.00
O898   O     0.25000   0.50000   0.75000   0.00000  Uiso   1.00
O899   O     0.00000   0.75000   0.25000   0.00000  Uiso   1.00
O900   O     0.00000   0.75000   0.75000   0.00000  Uiso   1.00
O901   O     0.25000   0.96963   0.33755   0.00000  Uiso   1.00
O902   O     0.25000   0.53036   0.66245   0.00000  Uiso   1.00
O903   O     0.03037   0.75000   0.33755   0.00000  Uiso   1.00
O904   O     0.46964   0.75000   0.66245   0.00000  Uiso   1.00
O905   O     0.25000   0.53036   0.33755   0.00000  Uiso   1.00
O906   O     0.25000   0.96963   0.66245   0.00000  Uiso   1.00
O907   O     0.46964   0.75000   0.33755   0.00000  Uiso   1.00
O908   O     0.03037   0.75000   0.66245   0.00000  Uiso   1.00
O909   O     0.00000   0.71964   0.83755   0.00000  Uiso   1.00
O910   O     0.00000   0.78036   0.16245   0.00000  Uiso   1.00
O911   O     0.28037   0.50000   0.83755   0.00000  Uiso   1.00
O912   O     0.21964   0.50000   0.16245   0.00000  Uiso   1.00
O913   O     0.00000   0.78037   0.83755   0.00000  Uiso   1.00
O914   O     0.00000   0.71964   0.16245   0.00000  Uiso   1.00
O915   O     0.21964   0.50000   0.83755   0.00000  Uiso   1.00
O916   O     0.28037   0.50000   0.16245   0.00000  Uiso   1.00
O917   O     0.20725   0.57307   0.27302   0.00000  Uiso   1.00
O918   O     0.29276   0.92692   0.72698   0.00000  Uiso   1.00
O919   O     0.42693   0.70724   0.27302   0.00000  Uiso   1.00
O920   O     0.07308   0.79276   0.72698   0.00000  Uiso   1.00
O921   O     0.29276   0.92692   0.27302   0.00000  Uiso   1.00
O922   O     0.20725   0.57307   0.72698   0.00000  Uiso   1.00
O923   O     0.07308   0.79276   0.27302   0.00000  Uiso   1.00
O924   O     0.42693   0.70724   0.72698   0.00000  Uiso   1.00
O925   O     0.20725   0.92693   0.72698   0.00000  Uiso   1.00
O926   O     0.29276   0.57307   0.27302   0.00000  Uiso   1.00
O927   O     0.42693   0.79275   0.72698   0.00000  Uiso   1.00
O928   O     0.07308   0.70725   0.27302   0.00000  Uiso   1.00
O929   O     0.29276   0.57307   0.72698   0.00000  Uiso   1.00
O930   O     0.20725   0.92693   0.27302   0.00000  Uiso   1.00
O931   O     0.07308   0.70725   0.72698   0.00000  Uiso   1.00
O932   O     0.42693   0.79275   0.27302   0.00000  Uiso   1.00
O933   O     0.45725   0.82307   0.77302   0.00000  Uiso   1.00
O934   O     0.04276   0.67693   0.22698   0.00000  Uiso   1.00
O935   O     0.17693   0.95725   0.77302   0.00000  Uiso   1.00
O936   O     0.32308   0.54275   0.22698   0.00000  Uiso   1.00
O937   O     0.04276   0.67693   0.77302   0.00000  Uiso   1.00
O938   O     0.45725   0.82307   0.22698   0.00000  Uiso   1.00
O939   O     0.32308   0.54275   0.77302   0.00000  Uiso   1.00
O940   O     0.17693   0.95725   0.22698   0.00000  Uiso   1.00
O941   O     0.45725   0.67692   0.22698   0.00000  Uiso   1.00
O942   O     0.04276   0.82308   0.77302   0.00000  Uiso   1.00
O943   O     0.17693   0.54275   0.22698   0.00000  Uiso   1.00
O944   O     0.32308   0.95724   0.77302   0.00000  Uiso   1.00
O945   O     0.04276   0.82308   0.22698   0.00000  Uiso   1.00
O946   O     0.45725   0.67692   0.77302   0.00000  Uiso   1.00
O947   O     0.32308   0.95724   0.22698   0.00000  Uiso   1.00
O948   O     0.17693   0.54275   0.77302   0.00000  Uiso   1.00
Zn949  Zn    0.20660   0.50000   0.21735   0.00000  Uiso   1.00
Zn950  Zn    0.29341   0.50000   0.78265   0.00000  Uiso   1.00
Zn951  Zn    0.00000   0.70660   0.21735   0.00000  Uiso   1.00
Zn952  Zn    0.00000   0.79341   0.78265   0.00000  Uiso   1.00
Zn953  Zn    0.29341   0.50000   0.21735   0.00000  Uiso   1.00
Zn954  Zn    0.20660   0.50000   0.78265   0.00000  Uiso   1.00
Zn955  Zn    0.00000   0.79341   0.21735   0.00000  Uiso   1.00
Zn956  Zn    0.00000   0.70660   0.78265   0.00000  Uiso   1.00
Zn957  Zn    0.45660   0.75000   0.71735   0.00000  Uiso   1.00
Zn958  Zn    0.04341   0.75000   0.28265   0.00000  Uiso   1.00
Zn959  Zn    0.25000   0.95659   0.71735   0.00000  Uiso   1.00
Zn960  Zn    0.25000   0.54340   0.28265   0.00000  Uiso   1.00
Zn961  Zn    0.04341   0.75000   0.71735   0.00000  Uiso   1.00
Zn962  Zn    0.45660   0.75000   0.28265   0.00000  Uiso   1.00
Zn963  Zn    0.25000   0.54340   0.71735   0.00000  Uiso   1.00
Zn964  Zn    0.25000   0.95659   0.28265   0.00000  Uiso   1.00
C965   C     0.13059   0.92640   0.31431   0.00000  Uiso   1.00
O966   O     0.13426   0.95916   0.30834   0.00000  Uiso   1.00
O967   O     0.12956   0.91327   0.35239   0.00000  Uiso   1.00
H968   H     0.13213   0.93351   0.37235   0.00000  Uiso   1.00
C969   C     0.37300   0.56981   0.68911   0.00000  Uiso   1.00
O970   O     0.36906   0.53745   0.69702   0.00000  Uiso   1.00
O971   O     0.37594   0.58069   0.65036   0.00000  Uiso   1.00
H972   H     0.37444   0.55930   0.63166   0.00000  Uiso   1.00
C973   C     0.07269   0.62839   0.31329   0.00000  Uiso   1.00
O974   O     0.05489   0.60094   0.32067   0.00000  Uiso   1.00
O975   O     0.06711   0.66045   0.33463   0.00000  Uiso   1.00
H976   H     0.04738   0.65764   0.35504   0.00000  Uiso   1.00
C977   C     0.43962   0.88289   0.70184   0.00000  Uiso   1.00
O978   O     0.46074   0.90855   0.70585   0.00000  Uiso   1.00
O979   O     0.44655   0.85595   0.67398   0.00000  Uiso   1.00
H980   H     0.46960   0.86098   0.65855   0.00000  Uiso   1.00
C981   C     0.37756   0.56722   0.30795   0.00000  Uiso   1.00
O982   O     0.35042   0.55860   0.32652   0.00000  Uiso   1.00
O983   O     0.41064   0.54874   0.31396   0.00000  Uiso   1.00
H984   H     0.40875   0.52920   0.33471   0.00000  Uiso   1.00
C985   C     0.12359   0.93170   0.69081   0.00000  Uiso   1.00
O986   O     0.15096   0.93975   0.67234   0.00000  Uiso   1.00
O987   O     0.09075   0.95042   0.68419   0.00000  Uiso   1.00
H988   H     0.09312   0.96989   0.66342   0.00000  Uiso   1.00
C989   C     0.43993   0.88366   0.29830   0.00000  Uiso   1.00
O990   O     0.47062   0.87879   0.28515   0.00000  Uiso   1.00
O991   O     0.43558   0.89284   0.33741   0.00000  Uiso   1.00
H992   H     0.45981   0.89463   0.35173   0.00000  Uiso   1.00
C993   C     0.05885   0.61571   0.70370   0.00000  Uiso   1.00
O994   O     0.04200   0.58683   0.70522   0.00000  Uiso   1.00
O995   O     0.04587   0.64424   0.68040   0.00000  Uiso   1.00
H996   H     0.02236   0.63774   0.66630   0.00000  Uiso   1.00
C997   C     0.11721   0.56115   0.70016   0.00000  Uiso   1.00
O998   O     0.12257   0.53027   0.71257   0.00000  Uiso   1.00
O999   O     0.10782   0.56624   0.66117   0.00000  Uiso   1.00
H1000  H     0.10635   0.54233   0.64629   0.00000  Uiso   1.00
C1001  C     0.38429   0.94111   0.29614   0.00000  Uiso   1.00
O1002  O     0.41295   0.95830   0.29420   0.00000  Uiso   1.00
O1003  O     0.35591   0.95370   0.31983   0.00000  Uiso   1.00
H1004  H     0.36235   0.97723   0.33385   0.00000  Uiso   1.00
C1005  C     0.06950   0.87328   0.68924   0.00000  Uiso   1.00
O1006  O     0.03715   0.86925   0.69725   0.00000  Uiso   1.00
O1007  O     0.08018   0.87648   0.65047   0.00000  Uiso   1.00
H1008  H     0.05868   0.87507   0.63185   0.00000  Uiso   1.00
C1009  C     0.43182   0.62550   0.30942   0.00000  Uiso   1.00
O1010  O     0.46405   0.62929   0.30074   0.00000  Uiso   1.00
O1011  O     0.42186   0.62201   0.34838   0.00000  Uiso   1.00
H1012  H     0.44373   0.62301   0.36654   0.00000  Uiso   1.00
C1013  C     0.38290   0.93973   0.70201   0.00000  Uiso   1.00
O1014  O     0.40842   0.96099   0.70633   0.00000  Uiso   1.00
O1015  O     0.35610   0.94660   0.67388   0.00000  Uiso   1.00
H1016  H     0.36109   0.96972   0.65857   0.00000  Uiso   1.00
C1017  C     0.13126   0.57444   0.31488   0.00000  Uiso   1.00
O1018  O     0.13507   0.54162   0.30925   0.00000  Uiso   1.00
O1019  O     0.13037   0.58801   0.35282   0.00000  Uiso   1.00
H1020  H     0.13317   0.56802   0.37298   0.00000  Uiso   1.00
C1021  C     0.43151   0.62376   0.69072   0.00000  Uiso   1.00
O1022  O     0.43962   0.65116   0.67233   0.00000  Uiso   1.00
O1023  O     0.45004   0.59088   0.68392   0.00000  Uiso   1.00
H1024  H     0.46921   0.59315   0.66286   0.00000  Uiso   1.00
C1025  C     0.07209   0.87263   0.31280   0.00000  Uiso   1.00
O1026  O     0.06600   0.84458   0.33097   0.00000  Uiso   1.00
O1027  O     0.05289   0.90468   0.32158   0.00000  Uiso   1.00
H1028  H     0.03465   0.90114   0.34337   0.00000  Uiso   1.00
C1029  C     0.37690   0.68025   0.81085   0.00000  Uiso   1.00
O1030  O     0.38086   0.71260   0.80289   0.00000  Uiso   1.00
O1031  O     0.37389   0.66944   0.84962   0.00000  Uiso   1.00
H1032  H     0.37536   0.69086   0.86827   0.00000  Uiso   1.00
C1033  C     0.11941   0.82361   0.18569   0.00000  Uiso   1.00
O1034  O     0.11574   0.79084   0.19166   0.00000  Uiso   1.00
O1035  O     0.12044   0.83673   0.14761   0.00000  Uiso   1.00
H1036  H     0.11787   0.81649   0.12765   0.00000  Uiso   1.00
C1037  C     0.31038   0.86711   0.79815   0.00000  Uiso   1.00
O1038  O     0.28923   0.84147   0.79412   0.00000  Uiso   1.00
O1039  O     0.30346   0.89403   0.82604   0.00000  Uiso   1.00
H1040  H     0.28041   0.88901   0.84146   0.00000  Uiso   1.00
C1041  C     0.17731   0.62161   0.18671   0.00000  Uiso   1.00
O1042  O     0.19511   0.64906   0.17933   0.00000  Uiso   1.00
O1043  O     0.18289   0.58955   0.16537   0.00000  Uiso   1.00
H1044  H     0.20262   0.59236   0.14496   0.00000  Uiso   1.00
C1045  C     0.12653   0.81827   0.80911   0.00000  Uiso   1.00
O1046  O     0.09918   0.81003   0.82751   0.00000  Uiso   1.00
O1047  O     0.15948   0.79978   0.81580   0.00000  Uiso   1.00
H1048  H     0.15731   0.78051   0.83680   0.00000  Uiso   1.00
C1049  C     0.37244   0.68278   0.19205   0.00000  Uiso   1.00
O1050  O     0.39958   0.69140   0.17348   0.00000  Uiso   1.00
O1051  O     0.33936   0.70126   0.18604   0.00000  Uiso   1.00
H1052  H     0.34125   0.72079   0.16529   0.00000  Uiso   1.00
C1053  C     0.18901   0.63264   0.79983   0.00000  Uiso   1.00
O1054  O     0.21989   0.62729   0.78740   0.00000  Uiso   1.00
O1055  O     0.18400   0.64195   0.83881   0.00000  Uiso   1.00
H1056  H     0.20796   0.64337   0.85369   0.00000  Uiso   1.00
C1057  C     0.31007   0.86634   0.20170   0.00000  Uiso   1.00
O1058  O     0.27938   0.87121   0.21485   0.00000  Uiso   1.00
O1059  O     0.31442   0.85716   0.16259   0.00000  Uiso   1.00
H1060  H     0.29019   0.85536   0.14827   0.00000  Uiso   1.00
C1061  C     0.36571   0.80889   0.20386   0.00000  Uiso   1.00
O1062  O     0.33705   0.79170   0.20581   0.00000  Uiso   1.00
O1063  O     0.39409   0.79630   0.18016   0.00000  Uiso   1.00
H1064  H     0.38765   0.77277   0.16615   0.00000  Uiso   1.00
C1065  C     0.13444   0.69101   0.79630   0.00000  Uiso   1.00
O1066  O     0.16335   0.70782   0.79478   0.00000  Uiso   1.00
O1067  O     0.10594   0.70396   0.81960   0.00000  Uiso   1.00
H1068  H     0.11250   0.72742   0.83369   0.00000  Uiso   1.00
C1069  C     0.31818   0.62450   0.19058   0.00000  Uiso   1.00
O1070  O     0.28595   0.62071   0.19926   0.00000  Uiso   1.00
O1071  O     0.32814   0.62799   0.15162   0.00000  Uiso   1.00
H1072  H     0.30627   0.62699   0.13346   0.00000  Uiso   1.00
C1073  C     0.18045   0.87681   0.81079   0.00000  Uiso   1.00
O1074  O     0.21280   0.88082   0.80283   0.00000  Uiso   1.00
O1075  O     0.16970   0.87368   0.84955   0.00000  Uiso   1.00
H1076  H     0.19117   0.87512   0.86821   0.00000  Uiso   1.00
C1077  C     0.11874   0.67556   0.18512   0.00000  Uiso   1.00
O1078  O     0.11494   0.70838   0.19074   0.00000  Uiso   1.00
O1079  O     0.11963   0.66199   0.14718   0.00000  Uiso   1.00
H1080  H     0.11683   0.68198   0.12701   0.00000  Uiso   1.00
C1081  C     0.36710   0.81027   0.79800   0.00000  Uiso   1.00
O1082  O     0.34156   0.78903   0.79370   0.00000  Uiso   1.00
O1083  O     0.39392   0.80339   0.82610   0.00000  Uiso   1.00
H1084  H     0.38893   0.78027   0.84142   0.00000  Uiso   1.00
C1085  C     0.17791   0.87737   0.18720   0.00000  Uiso   1.00
O1086  O     0.18400   0.90542   0.16903   0.00000  Uiso   1.00
O1087  O     0.19711   0.84532   0.17842   0.00000  Uiso   1.00
H1088  H     0.21535   0.84886   0.15663   0.00000  Uiso   1.00
C1089  C     0.31853   0.62611   0.80937   0.00000  Uiso   1.00
O1090  O     0.31061   0.59869   0.82783   0.00000  Uiso   1.00
O1091  O     0.29976   0.65886   0.81608   0.00000  Uiso   1.00
H1092  H     0.28037   0.65639   0.83691   0.00000  Uiso   1.00
C1093  C     0.96677   0.74972   0.41872   0.00000  Uiso   1.00
C1094  C     0.53325   0.75005   0.58127   0.00000  Uiso   1.00
C1095  C     0.75028   0.53330   0.41888   0.00000  Uiso   1.00
C1096  C     0.74964   0.96670   0.58111   0.00000  Uiso   1.00
C1097  C     0.53338   0.74993   0.41895   0.00000  Uiso   1.00
C1098  C     0.96664   0.74981   0.58104   0.00000  Uiso   1.00
C1099  C     0.74955   0.96675   0.41879   0.00000  Uiso   1.00
C1100  C     0.75038   0.53325   0.58120   0.00000  Uiso   1.00
C1101  C     0.71675   0.99985   0.91873   0.00000  Uiso   1.00
C1102  C     0.78323   0.50030   0.08128   0.00000  Uiso   1.00
C1103  C     0.50037   0.78330   0.91888   0.00000  Uiso   1.00
C1104  C     0.99977   0.71670   0.08112   0.00000  Uiso   1.00
C1105  C     0.78336   0.50019   0.91896   0.00000  Uiso   1.00
C1106  C     0.71663   0.50000   0.08105   0.00000  Uiso   1.00
C1107  C     0.99971   0.71675   0.91880   0.00000  Uiso   1.00
C1108  C     0.50043   0.78325   0.08121   0.00000  Uiso   1.00
C1109  C     0.50008   0.74987   0.39850   0.00000  Uiso   1.00
C1110  C     0.99993   0.74996   0.60149   0.00000  Uiso   1.00
C1111  C     0.74994   0.50003   0.39850   0.00000  Uiso   1.00
C1112  C     0.75002   0.99997   0.60150   0.00000  Uiso   1.00
C1113  C     0.75007   0.50000   0.89851   0.00000  Uiso   1.00
C1114  C     0.74992   0.50012   0.10150   0.00000  Uiso   1.00
C1115  C     0.50002   0.75003   0.89850   0.00000  Uiso   1.00
C1116  C     0.50007   0.74997   0.10150   0.00000  Uiso   1.00
C1117  C     0.56674   0.75004   0.48002   0.00000  Uiso   1.00
C1118  C     0.93328   0.74961   0.51997   0.00000  Uiso   1.00
C1119  C     0.74918   0.93335   0.47967   0.00000  Uiso   1.00
C1120  C     0.75071   0.56665   0.52033   0.00000  Uiso   1.00
C1121  C     0.93331   0.74959   0.47950   0.00000  Uiso   1.00
C1122  C     0.56671   0.75008   0.52049   0.00000  Uiso   1.00
C1123  C     0.75067   0.56666   0.47986   0.00000  Uiso   1.00
C1124  C     0.74920   0.93334   0.52013   0.00000  Uiso   1.00
C1125  C     0.81672   0.50043   0.98003   0.00000  Uiso   1.00
C1126  C     0.68326   0.99982   0.01998   0.00000  Uiso   1.00
C1127  C     0.99942   0.68335   0.97967   0.00000  Uiso   1.00
C1128  C     0.50079   0.81665   0.02033   0.00000  Uiso   1.00
C1129  C     0.68329   0.99977   0.97951   0.00000  Uiso   1.00
C1130  C     0.81669   0.50047   0.02050   0.00000  Uiso   1.00
C1131  C     0.50077   0.81666   0.97986   0.00000  Uiso   1.00
C1132  C     0.99945   0.68333   0.02014   0.00000  Uiso   1.00
C1133  C     0.74999   0.50001   0.35602   0.00000  Uiso   1.00
C1134  C     0.75001   0.99999   0.64397   0.00000  Uiso   1.00
C1135  C     0.50004   0.74996   0.35603   0.00000  Uiso   1.00
C1136  C     0.99996   0.75000   0.64397   0.00000  Uiso   1.00
C1137  C     0.50000   0.75001   0.85602   0.00000  Uiso   1.00
C1138  C     0.50002   0.74999   0.14398   0.00000  Uiso   1.00
C1139  C     0.75004   0.99999   0.85603   0.00000  Uiso   1.00
C1140  C     0.74996   0.50004   0.14397   0.00000  Uiso   1.00
C1141  C     0.68022   0.57014   0.24960   0.00000  Uiso   1.00
C1142  C     0.81997   0.93004   0.75002   0.00000  Uiso   1.00
C1143  C     0.92989   0.68020   0.24964   0.00000  Uiso   1.00
C1144  C     0.57011   0.81979   0.75036   0.00000  Uiso   1.00
C1145  C     0.81983   0.92995   0.24995   0.00000  Uiso   1.00
C1146  C     0.68006   0.56995   0.75000   0.00000  Uiso   1.00
C1147  C     0.56981   0.82012   0.25038   0.00000  Uiso   1.00
C1148  C     0.93019   0.67988   0.74962   0.00000  Uiso   1.00
C1149  C     0.67989   0.93022   0.74963   0.00000  Uiso   1.00
C1150  C     0.82011   0.56980   0.25036   0.00000  Uiso   1.00
C1151  C     0.93003   0.81996   0.74997   0.00000  Uiso   1.00
C1152  C     0.56978   0.67986   0.25040   0.00000  Uiso   1.00
C1153  C     0.81980   0.57012   0.75039   0.00000  Uiso   1.00
C1154  C     0.68019   0.92988   0.24961   0.00000  Uiso   1.00
C1155  C     0.56994   0.68006   0.75000   0.00000  Uiso   1.00
C1156  C     0.93017   0.82005   0.25005   0.00000  Uiso   1.00
C1157  C     0.62721   0.90037   0.28112   0.00000  Uiso   1.00
C1158  C     0.87463   0.59774   0.72065   0.00000  Uiso   1.00
C1159  C     0.60050   0.62742   0.28176   0.00000  Uiso   1.00
C1160  C     0.90688   0.87966   0.72716   0.00000  Uiso   1.00
C1161  C     0.87568   0.59756   0.27911   0.00000  Uiso   1.00
C1162  C     0.62496   0.90183   0.72024   0.00000  Uiso   1.00
C1163  C     0.90707   0.87988   0.27280   0.00000  Uiso   1.00
C1164  C     0.59314   0.62051   0.72677   0.00000  Uiso   1.00
C1165  C     0.62057   0.59345   0.72641   0.00000  Uiso   1.00
C1166  C     0.87953   0.90684   0.27314   0.00000  Uiso   1.00
C1167  C     0.59760   0.87475   0.72070   0.00000  Uiso   1.00
C1168  C     0.90305   0.62463   0.27860   0.00000  Uiso   1.00
C1169  C     0.87967   0.90693   0.72723   0.00000  Uiso   1.00
C1170  C     0.62758   0.60006   0.28143   0.00000  Uiso   1.00
C1171  C     0.90172   0.62508   0.72019   0.00000  Uiso   1.00
C1172  C     0.60019   0.87299   0.28152   0.00000  Uiso   1.00
C1173  C     0.87534   0.65227   0.77935   0.00000  Uiso   1.00
C1174  C     0.62279   0.84963   0.21888   0.00000  Uiso   1.00
C1175  C     0.84312   0.87034   0.77284   0.00000  Uiso   1.00
C1176  C     0.64950   0.62258   0.21824   0.00000  Uiso   1.00
C1177  C     0.62507   0.84817   0.77972   0.00000  Uiso   1.00
C1178  C     0.87432   0.65244   0.22089   0.00000  Uiso   1.00
C1179  C     0.65663   0.62936   0.77357   0.00000  Uiso   1.00
C1180  C     0.84293   0.87012   0.22720   0.00000  Uiso   1.00
C1181  C     0.87047   0.84316   0.22685   0.00000  Uiso   1.00
C1182  C     0.62956   0.65679   0.77323   0.00000  Uiso   1.00
C1183  C     0.84695   0.62537   0.22141   0.00000  Uiso   1.00
C1184  C     0.65238   0.87528   0.77929   0.00000  Uiso   1.00
C1185  C     0.62242   0.64994   0.21857   0.00000  Uiso   1.00
C1186  C     0.87033   0.84308   0.77277   0.00000  Uiso   1.00
C1187  C     0.64981   0.87701   0.21848   0.00000  Uiso   1.00
C1188  C     0.84829   0.62489   0.77985   0.00000  Uiso   1.00
C1189  C     0.53358   0.74992   0.45943   0.00000  Uiso   1.00
C1190  C     0.96644   0.74975   0.54057   0.00000  Uiso   1.00
C1191  C     0.74955   0.96651   0.45925   0.00000  Uiso   1.00
C1192  C     0.75035   0.53349   0.54074   0.00000  Uiso   1.00
C1193  C     0.96651   0.74970   0.45918   0.00000  Uiso   1.00
C1194  C     0.53351   0.74999   0.54082   0.00000  Uiso   1.00
C1195  C     0.75029   0.53352   0.45935   0.00000  Uiso   1.00
C1196  C     0.74960   0.96648   0.54065   0.00000  Uiso   1.00
C1197  C     0.78356   0.50024   0.95944   0.00000  Uiso   1.00
C1198  C     0.71642   0.50000   0.04057   0.00000  Uiso   1.00
C1199  C     0.99974   0.71650   0.95926   0.00000  Uiso   1.00
C1200  C     0.50045   0.78349   0.04074   0.00000  Uiso   1.00
C1201  C     0.71649   0.99991   0.95918   0.00000  Uiso   1.00
C1202  C     0.78349   0.50031   0.04082   0.00000  Uiso   1.00
C1203  C     0.50041   0.78352   0.95935   0.00000  Uiso   1.00
C1204  C     0.99978   0.71648   0.04065   0.00000  Uiso   1.00
C1205  C     0.59835   0.84776   0.25050   0.00000  Uiso   1.00
C1206  C     0.90168   0.65221   0.74943   0.00000  Uiso   1.00
C1207  C     0.65167   0.59777   0.24954   0.00000  Uiso   1.00
C1208  C     0.84810   0.90196   0.75006   0.00000  Uiso   1.00
C1209  C     0.90219   0.65171   0.24942   0.00000  Uiso   1.00
C1210  C     0.59781   0.84829   0.75053   0.00000  Uiso   1.00
C1211  C     0.84772   0.90163   0.25044   0.00000  Uiso   1.00
C1212  C     0.65196   0.59806   0.74999   0.00000  Uiso   1.00
C1213  C     0.59803   0.65196   0.75001   0.00000  Uiso   1.00
C1214  C     0.90228   0.84837   0.24956   0.00000  Uiso   1.00
C1215  C     0.65218   0.90172   0.74945   0.00000  Uiso   1.00
C1216  C     0.84781   0.59829   0.25058   0.00000  Uiso   1.00
C1217  C     0.90190   0.84804   0.74994   0.00000  Uiso   1.00
C1218  C     0.59833   0.65223   0.25046   0.00000  Uiso   1.00
C1219  C     0.84831   0.59779   0.75058   0.00000  Uiso   1.00
C1220  C     0.65165   0.90224   0.24950   0.00000  Uiso   1.00
C1221  C     0.50003   0.74982   0.47964   0.00000  Uiso   1.00
C1222  C     0.99999   0.74985   0.52036   0.00000  Uiso   1.00
C1223  C     0.74993   0.50001   0.47964   0.00000  Uiso   1.00
C1224  C     0.74996   0.99999   0.52036   0.00000  Uiso   1.00
C1225  C     0.75001   0.50010   0.97964   0.00000  Uiso   1.00
C1226  C     0.74997   0.50014   0.02036   0.00000  Uiso   1.00
C1227  C     0.50009   0.75000   0.97964   0.00000  Uiso   1.00
C1228  C     0.50011   0.74999   0.02036   0.00000  Uiso   1.00
H1229  H     0.59268   0.75011   0.46483   0.00000  Uiso   1.00
H1230  H     0.90734   0.74953   0.53516   0.00000  Uiso   1.00
H1231  H     0.74888   0.90745   0.46433   0.00000  Uiso   1.00
H1232  H     0.75101   0.59255   0.53566   0.00000  Uiso   1.00
H1233  H     0.90739   0.74949   0.46410   0.00000  Uiso   1.00
H1234  H     0.59263   0.75018   0.53589   0.00000  Uiso   1.00
H1235  H     0.75095   0.59257   0.46460   0.00000  Uiso   1.00
H1236  H     0.74892   0.90743   0.53539   0.00000  Uiso   1.00
H1237  H     0.84266   0.50055   0.96484   0.00000  Uiso   1.00
H1238  H     0.65732   0.99971   0.03517   0.00000  Uiso   1.00
H1239  H     0.99915   0.65745   0.96434   0.00000  Uiso   1.00
H1240  H     0.50106   0.84255   0.03567   0.00000  Uiso   1.00
H1241  H     0.65737   0.99963   0.96411   0.00000  Uiso   1.00
H1242  H     0.84261   0.50060   0.03590   0.00000  Uiso   1.00
H1243  H     0.50103   0.84257   0.96461   0.00000  Uiso   1.00
H1244  H     0.99919   0.65743   0.03540   0.00000  Uiso   1.00
H1245  H     0.94099   0.74965   0.40302   0.00000  Uiso   1.00
H1246  H     0.55902   0.75016   0.59698   0.00000  Uiso   1.00
H1247  H     0.75057   0.55905   0.40330   0.00000  Uiso   1.00
H1248  H     0.74935   0.94095   0.59669   0.00000  Uiso   1.00
H1249  H     0.55915   0.75001   0.40342   0.00000  Uiso   1.00
H1250  H     0.94086   0.74973   0.59656   0.00000  Uiso   1.00
H1251  H     0.74926   0.94100   0.40315   0.00000  Uiso   1.00
H1252  H     0.75069   0.55900   0.59685   0.00000  Uiso   1.00
H1253  H     0.69098   0.99970   0.90302   0.00000  Uiso   1.00
H1254  H     0.80901   0.50042   0.09698   0.00000  Uiso   1.00
H1255  H     0.50063   0.80905   0.90330   0.00000  Uiso   1.00
H1256  H     0.99951   0.69095   0.09670   0.00000  Uiso   1.00
H1257  H     0.80914   0.50031   0.90344   0.00000  Uiso   1.00
H1258  H     0.69085   0.99989   0.09658   0.00000  Uiso   1.00
H1259  H     0.99942   0.69099   0.90315   0.00000  Uiso   1.00
H1260  H     0.50069   0.80900   0.09685   0.00000  Uiso   1.00
O1261  O     0.75000   0.50000   0.25000   0.00000  Uiso   1.00
O1262  O     0.75000   0.50000   0.75000   0.00000  Uiso   1.00
O1263  O     0.50000   0.75000   0.25000   0.00000  Uiso   1.00
O1264  O     0.50000   0.75000   0.75000   0.00000  Uiso   1.00
O1265  O     0.75000   0.96963   0.33755   0.00000  Uiso   1.00
O1266  O     0.75000   0.53036   0.66245   0.00000  Uiso   1.00
O1267  O     0.53037   0.75000   0.33755   0.00000  Uiso   1.00
O1268  O     0.96964   0.75000   0.66245   0.00000  Uiso   1.00
O1269  O     0.75000   0.53036   0.33755   0.00000  Uiso   1.00
O1270  O     0.75000   0.96963   0.66245   0.00000  Uiso   1.00
O1271  O     0.96964   0.75000   0.33755   0.00000  Uiso   1.00
O1272  O     0.53037   0.75000   0.66245   0.00000  Uiso   1.00
O1273  O     0.50000   0.71964   0.83755   0.00000  Uiso   1.00
O1274  O     0.50000   0.78036   0.16245   0.00000  Uiso   1.00
O1275  O     0.78037   0.50000   0.83755   0.00000  Uiso   1.00
O1276  O     0.71964   0.50000   0.16245   0.00000  Uiso   1.00
O1277  O     0.50000   0.78037   0.83755   0.00000  Uiso   1.00
O1278  O     0.50000   0.71964   0.16245   0.00000  Uiso   1.00
O1279  O     0.71964   0.50000   0.83755   0.00000  Uiso   1.00
O1280  O     0.78037   0.50000   0.16245   0.00000  Uiso   1.00
O1281  O     0.70725   0.57307   0.27302   0.00000  Uiso   1.00
O1282  O     0.79276   0.92692   0.72698   0.00000  Uiso   1.00
O1283  O     0.92693   0.70724   0.27302   0.00000  Uiso   1.00
O1284  O     0.57308   0.79276   0.72698   0.00000  Uiso   1.00
O1285  O     0.79276   0.92692   0.27302   0.00000  Uiso   1.00
O1286  O     0.70725   0.57307   0.72698   0.00000  Uiso   1.00
O1287  O     0.57308   0.79276   0.27302   0.00000  Uiso   1.00
O1288  O     0.92693   0.70724   0.72698   0.00000  Uiso   1.00
O1289  O     0.70725   0.92693   0.72698   0.00000  Uiso   1.00
O1290  O     0.79276   0.57307   0.27302   0.00000  Uiso   1.00
O1291  O     0.92693   0.79275   0.72698   0.00000  Uiso   1.00
O1292  O     0.57308   0.70725   0.27302   0.00000  Uiso   1.00
O1293  O     0.79276   0.57307   0.72698   0.00000  Uiso   1.00
O1294  O     0.70725   0.92693   0.27302   0.00000  Uiso   1.00
O1295  O     0.57308   0.70725   0.72698   0.00000  Uiso   1.00
O1296  O     0.92693   0.79275   0.27302   0.00000  Uiso   1.00
O1297  O     0.95725   0.82307   0.77302   0.00000  Uiso   1.00
O1298  O     0.54276   0.67693   0.22698   0.00000  Uiso   1.00
O1299  O     0.67693   0.95725   0.77302   0.00000  Uiso   1.00
O1300  O     0.82308   0.54275   0.22698   0.00000  Uiso   1.00
O1301  O     0.54276   0.67693   0.77302   0.00000  Uiso   1.00
O1302  O     0.95725   0.82307   0.22698   0.00000  Uiso   1.00
O1303  O     0.82308   0.54275   0.77302   0.00000  Uiso   1.00
O1304  O     0.67693   0.95725   0.22698   0.00000  Uiso   1.00
O1305  O     0.95725   0.67692   0.22698   0.00000  Uiso   1.00
O1306  O     0.54276   0.82308   0.77302   0.00000  Uiso   1.00
O1307  O     0.67693   0.54275   0.22698   0.00000  Uiso   1.00
O1308  O     0.82308   0.95724   0.77302   0.00000  Uiso   1.00
O1309  O     0.54276   0.82308   0.22698   0.00000  Uiso   1.00
O1310  O     0.95725   0.67692   0.77302   0.00000  Uiso   1.00
O1311  O     0.82308   0.95724   0.22698   0.00000  Uiso   1.00
O1312  O     0.67693   0.54275   0.77302   0.00000  Uiso   1.00
Zn1313 Zn    0.70660   0.50000   0.21735   0.00000  Uiso   1.00
Zn1314 Zn    0.79341   0.50000   0.78265   0.00000  Uiso   1.00
Zn1315 Zn    0.50000   0.70660   0.21735   0.00000  Uiso   1.00
Zn1316 Zn    0.50000   0.79341   0.78265   0.00000  Uiso   1.00
Zn1317 Zn    0.79341   0.50000   0.21735   0.00000  Uiso   1.00
Zn1318 Zn    0.70660   0.50000   0.78265   0.00000  Uiso   1.00
Zn1319 Zn    0.50000   0.79341   0.21735   0.00000  Uiso   1.00
Zn1320 Zn    0.50000   0.70660   0.78265   0.00000  Uiso   1.00
Zn1321 Zn    0.95660   0.75000   0.71735   0.00000  Uiso   1.00
Zn1322 Zn    0.54341   0.75000   0.28265   0.00000  Uiso   1.00
Zn1323 Zn    0.75000   0.95659   0.71735   0.00000  Uiso   1.00
Zn1324 Zn    0.75000   0.54340   0.28265   0.00000  Uiso   1.00
Zn1325 Zn    0.54341   0.75000   0.71735   0.00000  Uiso   1.00
Zn1326 Zn    0.95660   0.75000   0.28265   0.00000  Uiso   1.00
Zn1327 Zn    0.75000   0.54340   0.71735   0.00000  Uiso   1.00
Zn1328 Zn    0.75000   0.95659   0.28265   0.00000  Uiso   1.00
C1329  C     0.63059   0.92640   0.31431   0.00000  Uiso   1.00
O1330  O     0.63426   0.95916   0.30834   0.00000  Uiso   1.00
O1331  O     0.62956   0.91327   0.35239   0.00000  Uiso   1.00
H1332  H     0.63213   0.93351   0.37235   0.00000  Uiso   1.00
C1333  C     0.87300   0.56981   0.68911   0.00000  Uiso   1.00
O1334  O     0.86906   0.53745   0.69702   0.00000  Uiso   1.00
O1335  O     0.87594   0.58069   0.65036   0.00000  Uiso   1.00
H1336  H     0.87444   0.55930   0.63166   0.00000  Uiso   1.00
C1337  C     0.57269   0.62839   0.31329   0.00000  Uiso   1.00
O1338  O     0.55489   0.60094   0.32067   0.00000  Uiso   1.00
O1339  O     0.56711   0.66045   0.33463   0.00000  Uiso   1.00
H1340  H     0.54738   0.65764   0.35504   0.00000  Uiso   1.00
C1341  C     0.93962   0.88289   0.70184   0.00000  Uiso   1.00
O1342  O     0.96074   0.90855   0.70585   0.00000  Uiso   1.00
O1343  O     0.94655   0.85595   0.67398   0.00000  Uiso   1.00
H1344  H     0.96960   0.86098   0.65855   0.00000  Uiso   1.00
C1345  C     0.87756   0.56722   0.30795   0.00000  Uiso   1.00
O1346  O     0.85042   0.55860   0.32652   0.00000  Uiso   1.00
O1347  O     0.91064   0.54874   0.31396   0.00000  Uiso   1.00
H1348  H     0.90875   0.52920   0.33471   0.00000  Uiso   1.00
C1349  C     0.62359   0.93170   0.69081   0.00000  Uiso   1.00
O1350  O     0.65096   0.93975   0.67234   0.00000  Uiso   1.00
O1351  O     0.59075   0.95042   0.68419   0.00000  Uiso   1.00
H1352  H     0.59312   0.96989   0.66342   0.00000  Uiso   1.00
C1353  C     0.93993   0.88366   0.29830   0.00000  Uiso   1.00
O1354  O     0.97062   0.87879   0.28515   0.00000  Uiso   1.00
O1355  O     0.93558   0.89284   0.33741   0.00000  Uiso   1.00
H1356  H     0.95981   0.89463   0.35173   0.00000  Uiso   1.00
C1357  C     0.55885   0.61571   0.70370   0.00000  Uiso   1.00
O1358  O     0.54200   0.58683   0.70522   0.00000  Uiso   1.00
O1359  O     0.54587   0.64424   0.68040   0.00000  Uiso   1.00
H1360  H     0.52236   0.63774   0.66630   0.00000  Uiso   1.00
C1361  C     0.61721   0.56115   0.70016   0.00000  Uiso   1.00
O1362  O     0.62257   0.53027   0.71257   0.00000  Uiso   1.00
O1363  O     0.60782   0.56624   0.66117   0.00000  Uiso   1.00
H1364  H     0.60635   0.54233   0.64629   0.00000  Uiso   1.00
C1365  C     0.88429   0.94111   0.29614   0.00000  Uiso   1.00
O1366  O     0.91295   0.95830   0.29420   0.00000  Uiso   1.00
O1367  O     0.85591   0.95370   0.31983   0.00000  Uiso   1.00
H1368  H     0.86235   0.97723   0.33385   0.00000  Uiso   1.00
C1369  C     0.56950   0.87328   0.68924   0.00000  Uiso   1.00
O1370  O     0.53715   0.86925   0.69725   0.00000  Uiso   1.00
O1371  O     0.58018   0.87648   0.65047   0.00000  Uiso   1.00
H1372  H     0.55868   0.87507   0.63185   0.00000  Uiso   1.00
C1373  C     0.93182   0.62550   0.30942   0.00000  Uiso   1.00
O1374  O     0.96405   0.62929   0.30074   0.00000  Uiso   1.00
O1375  O     0.92186   0.62201   0.34838   0.00000  Uiso   1.00
H1376  H     0.94373   0.62301   0.36654   0.00000  Uiso   1.00
C1377  C     0.88290   0.93973   0.70201   0.00000  Uiso   1.00
O1378  O     0.90842   0.96099   0.70633   0.00000  Uiso   1.00
O1379  O     0.85610   0.94660   0.67388   0.00000  Uiso   1.00
H1380  H     0.86109   0.96972   0.65857   0.00000  Uiso   1.00
C1381  C     0.63126   0.57444   0.31488   0.00000  Uiso   1.00
O1382  O     0.63507   0.54162   0.30925   0.00000  Uiso   1.00
O1383  O     0.63037   0.58801   0.35282   0.00000  Uiso   1.00
H1384  H     0.63317   0.56802   0.37298   0.00000  Uiso   1.00
C1385  C     0.93151   0.62376   0.69072   0.00000  Uiso   1.00
O1386  O     0.93962   0.65116   0.67233   0.00000  Uiso   1.00
O1387  O     0.95004   0.59088   0.68392   0.00000  Uiso   1.00
H1388  H     0.96921   0.59315   0.66286   0.00000  Uiso   1.00
C1389  C     0.57209   0.87263   0.31280   0.00000  Uiso   1.00
O1390  O     0.56600   0.84458   0.33097   0.00000  Uiso   1.00
O1391  O     0.55289   0.90468   0.32158   0.00000  Uiso   1.00
H1392  H     0.53465   0.90114   0.34337   0.00000  Uiso   1.00
C1393  C     0.87690   0.68025   0.81085   0.00000  Uiso   1.00
O1394  O     0.88086   0.71260   0.80289   0.00000  Uiso   1.00
O1395  O     0.87389   0.66944   0.84962   0.00000  Uiso   1.00
H1396  H     0.87536   0.69086   0.86827   0.00000  Uiso   1.00
C1397  C     0.61941   0.82361   0.18569   0.00000  Uiso   1.00
O1398  O     0.61574   0.79084   0.19166   0.00000  Uiso   1.00
O1399  O     0.62044   0.83673   0.14761   0.00000  Uiso   1.00
H1400  H     0.61787   0.81649   0.12765   0.00000  Uiso   1.00
C1401  C     0.81038   0.86711   0.79815   0.00000  Uiso   1.00
O1402  O     0.78923   0.84147   0.79412   0.00000  Uiso   1.00
O1403  O     0.80346   0.89403   0.82604   0.00000  Uiso   1.00
H1404  H     0.78041   0.88901   0.84146   0.00000  Uiso   1.00
C1405  C     0.67731   0.62161   0.18671   0.00000  Uiso   1.00
O1406  O     0.69511   0.64906   0.17933   0.00000  Uiso   1.00
O1407  O     0.68289   0.58955   0.16537   0.00000  Uiso   1.00
H1408  H     0.70262   0.59236   0.14496   0.00000  Uiso   1.00
C1409  C     0.62653   0.81827   0.80911   0.00000  Uiso   1.00
O1410  O     0.59918   0.81003   0.82751   0.00000  Uiso   1.00
O1411  O     0.65948   0.79978   0.81580   0.00000  Uiso   1.00
H1412  H     0.65731   0.78051   0.83680   0.00000  Uiso   1.00
C1413  C     0.87244   0.68278   0.19205   0.00000  Uiso   1.00
O1414  O     0.89958   0.69140   0.17348   0.00000  Uiso   1.00
O1415  O     0.83936   0.70126   0.18604   0.00000  Uiso   1.00
H1416  H     0.84125   0.72079   0.16529   0.00000  Uiso   1.00
C1417  C     0.68901   0.63264   0.79983   0.00000  Uiso   1.00
O1418  O     0.71989   0.62729   0.78740   0.00000  Uiso   1.00
O1419  O     0.68400   0.64195   0.83881   0.00000  Uiso   1.00
H1420  H     0.70796   0.64337   0.85369   0.00000  Uiso   1.00
C1421  C     0.81007   0.86634   0.20170   0.00000  Uiso   1.00
O1422  O     0.77938   0.87121   0.21485   0.00000  Uiso   1.00
O1423  O     0.81442   0.85716   0.16259   0.00000  Uiso   1.00
H1424  H     0.79019   0.85536   0.14827   0.00000  Uiso   1.00
C1425  C     0.86571   0.80889   0.20386   0.00000  Uiso   1.00
O1426  O     0.83705   0.79170   0.20581   0.00000  Uiso   1.00
O1427  O     0.89409   0.79630   0.18016   0.00000  Uiso   1.00
H1428  H     0.88765   0.77277   0.16615   0.00000  Uiso   1.00
C1429  C     0.63444   0.69101   0.79630   0.00000  Uiso   1.00
O1430  O     0.66335   0.70782   0.79478   0.00000  Uiso   1.00
O1431  O     0.60594   0.70396   0.81960   0.00000  Uiso   1.00
H1432  H     0.61250   0.72742   0.83369   0.00000  Uiso   1.00
C1433  C     0.81818   0.62450   0.19058   0.00000  Uiso   1.00
O1434  O     0.78595   0.62071   0.19926   0.00000  Uiso   1.00
O1435  O     0.82814   0.62799   0.15162   0.00000  Uiso   1.00
H1436  H     0.80627   0.62699   0.13346   0.00000  Uiso   1.00
C1437  C     0.68045   0.87681   0.81079   0.00000  Uiso   1.00
O1438  O     0.71280   0.88082   0.80283   0.00000  Uiso   1.00
O1439  O     0.66970   0.87368   0.84955   0.00000  Uiso   1.00
H1440  H     0.69117   0.87512   0.86821   0.00000  Uiso   1.00
C1441  C     0.61874   0.67556   0.18512   0.00000  Uiso   1.00
O1442  O     0.61494   0.70838   0.19074   0.00000  Uiso   1.00
O1443  O     0.61963   0.66199   0.14718   0.00000  Uiso   1.00
H1444  H     0.61683   0.68198   0.12701   0.00000  Uiso   1.00
C1445  C     0.86710   0.81027   0.79800   0.00000  Uiso   1.00
O1446  O     0.84156   0.78903   0.79370   0.00000  Uiso   1.00
O1447  O     0.89392   0.80339   0.82610   0.00000  Uiso   1.00
H1448  H     0.88893   0.78027   0.84142   0.00000  Uiso   1.00
C1449  C     0.67791   0.87737   0.18720   0.00000  Uiso   1.00
O1450  O     0.68400   0.90542   0.16903   0.00000  Uiso   1.00
O1451  O     0.69711   0.84532   0.17842   0.00000  Uiso   1.00
H1452  H     0.71535   0.84886   0.15663   0.00000  Uiso   1.00
C1453  C     0.81853   0.62611   0.80937   0.00000  Uiso   1.00
O1454  O     0.81061   0.59869   0.82783   0.00000  Uiso   1.00
O1455  O     0.79976   0.65886   0.81608   0.00000  Uiso   1.00
H1456  H     0.78037   0.65639   0.83691   0.00000  Uiso   1.00
loop_
_geom_bond_atom_site_label_1
_geom_bond_atom_site_label_2
_geom_bond_distance
_geom_bond_site_symmetry_2
_ccdc_geom_bond_type
C1     C101    1.395   .     A
C1     H153    1.084   .     S
C1     C381    1.404   .     S
C2     C102    1.395   .     A
C2     H154    1.084   .     S
C2     C382    1.404   1_455 S
C3     C19     1.404   .     A
C3     C103    1.395   .     A
C3     H155    1.084   .     S
C4     C104    1.395   .     A
C4     C20     1.404   .     A
C4     H156    1.084   .     S
C5     C97     1.395   .     A
C5     C17     1.403   .     A
C5     H157    1.084   .     S
C6     H158    1.084   .     S
C6     C98     1.395   .     A
C6     C18     1.403   .     A
C7     C99     1.395   .     A
C7     H159    1.084   .     S
C7     C747    1.404   .     S
C8     C100    1.395   .     A
C8     H160    1.084   .     S
C8     C748    1.404   1_545 S
C9     H161    1.084   .     S
C9     C109    1.395   .     A
C9     C749    1.404   .     S
C10    H162    1.084   .     S
C10    C22     1.404   .     A
C10    C110    1.395   .     A
C11    C23     1.404   .     A
C11    H163    1.084   .     S
C11    C111    1.395   .     A
C12    C112    1.395   .     A
C12    H164    1.084   .     S
C12    C388    1.404   .     S
C13    C21     1.403   .     A
C13    C105    1.395   .     A
C13    H165    1.084   .     S
C14    C22     1.403   .     A
C14    C106    1.395   .     S
C14    H894    1.084   1_545 S
C15    H167    1.084   .     S
C15    C107    1.395   .     A
C15    C387    1.404   .     S
C16    H168    1.084   .     S
C16    C108    1.395   .     A
C16    C24     1.404   .     A
C17    C43     1.464   .     S
C17    C365    1.404   1_455 S
C18    C44     1.464   .     S
C18    C366    1.404   .     S
C19    C41     1.464   .     S
C19    C735    1.404   1_545 S
C20    C42     1.464   .     S
C20    C736    1.404   .     S
C21    C737    1.404   1_545 S
C21    C775    1.464   1_545 S
C22    C48     1.464   .     S
C23    C379    1.404   1_455 S
C23    C45     1.464   .     S
C24    C46     1.464   .     S
C24    C376    1.404   1_455 S
C25    H137    1.084   .     S
C25    C97     1.402   .     A
C25    C30     1.395   .     A
C26    H138    1.084   .     S
C26    C98     1.402   .     A
C26    C29     1.395   .     A
C27    C99     1.402   .     A
C27    H139    1.084   .     S
C27    C32     1.395   .     A
C28    C31     1.395   .     A
C28    H140    1.084   .     S
C28    C100    1.402   .     A
C29    H141    1.084   .     S
C29    C101    1.402   .     A
C30    C102    1.402   .     A
C30    H142    1.084   .     S
C31    H143    1.084   .     S
C31    C103    1.402   .     A
C32    C104    1.402   .     A
C32    H144    1.084   .     S
C33    C105    1.402   .     A
C33    H145    1.084   .     S
C33    C38     1.395   1_556 S
C34    C834    1.402   .     A
C34    H146    1.084   .     S
C34    C37     1.395   1_554 S
C35    C107    1.402   .     A
C35    H147    1.084   .     S
C35    C40     1.395   1_556 S
C36    H148    1.084   .     S
C36    C108    1.402   .     A
C36    C39     1.395   1_554 S
C37    C109    1.402   .     A
C37    H149    1.084   .     S
C37    C34     1.395   1_556 S
C38    C110    1.402   .     A
C38    H150    1.084   .     S
C38    C33     1.395   1_554 S
C39    C111    1.402   .     A
C39    H151    1.084   .     S
C39    C36     1.395   1_556 S
C40    C112    1.402   .     A
C40    H152    1.084   .     S
C40    C35     1.395   1_554 S
C41    O177    1.280   .     A
C41    O901    1.279   1_545 S
C42    O178    1.280   .     A
C42    O902    1.279   .     S
C43    O175    1.279   .     A
C43    O543    1.278   1_455 S
C44    O176    1.279   .     A
C44    O544    1.278   .     S
C45    O181    1.279   .     S
C45    O185    1.280   .     S
C46    O186    1.280   .     A
C46    O182    1.279   .     S
C47    C749    1.464   .     S
C47    O911    1.279   .     S
C47    O915    1.278   .     S
C48    O188    1.278   .     A
C48    O184    1.279   .     A
C49    C115    1.451   .     S
C49    O215    1.274   .     A
C49    O189    1.278   .     A
C50    O216    1.276   .     A
C50    O190    1.275   .     A
C50    C116    1.452   .     S
C51    O191    1.279   .     A
C51    C117    1.452   .     S
C51    O213    1.275   .     A
C52    O214    1.275   .     A
C52    C118    1.452   .     S
C52    O192    1.279   .     A
C53    O219    1.280   .     A
C53    O193    1.276   .     A
C53    C119    1.452   .     S
C54    O194    1.278   .     A
C54    C120    1.452   .     S
C54    O220    1.278   .     A
C55    O217    1.278   .     A
C55    O195    1.274   .     A
C55    C113    1.452   .     S
C56    O218    1.278   .     A
C56    O196    1.274   .     A
C56    C114    1.452   .     S
C57    C123    1.452   .     S
C57    O197    1.275   .     A
C57    O207    1.279   .     A
C58    O208    1.279   .     A
C58    O198    1.275   .     A
C58    C124    1.452   .     S
C59    O205    1.275   .     A
C59    C125    1.452   .     S
C59    O199    1.276   .     A
C60    O200    1.274   .     A
C60    O206    1.278   .     A
C60    C126    1.451   .     S
C61    C127    1.452   .     S
C61    O211    1.274   .     A
C61    O201    1.278   .     A
C62    O212    1.274   .     A
C62    O202    1.278   .     A
C62    C128    1.452   .     S
C63    O203    1.278   .     A
C63    O209    1.278   .     A
C63    C121    1.451   .     S
C64    O204    1.280   .     A
C64    O210    1.276   .     A
C64    C122    1.452   .     S
C65    C128    1.412   .     A
C65    C80     1.406   .     A
C65    C237    1.492   .     S
C66    C79     1.406   .     A
C66    C241    1.492   .     S
C66    C127    1.412   .     A
C67    C245    1.490   .     S
C67    C126    1.412   .     A
C67    C78     1.406   .     A
C68    C249    1.487   .     S
C68    C77     1.406   .     A
C68    C125    1.410   .     A
C69    C76     1.407   .     A
C69    C124    1.413   .     A
C69    C253    1.491   .     S
C70    C257    1.491   .     S
C70    C75     1.407   .     A
C70    C123    1.413   .     A
C71    C122    1.413   .     A
C71    C74     1.408   .     A
C71    C261    1.492   .     S
C72    C73     1.408   .     A
C72    C121    1.411   .     A
C72    C265    1.492   .     S
C73    C120    1.413   .     A
C73    C269    1.492   .     S
C74    C273    1.491   .     S
C74    C119    1.411   .     A
C75    C277    1.492   .     S
C75    C118    1.412   .     A
C76    C281    1.492   .     S
C76    C117    1.412   .     A
C77    C285    1.487   .     S
C77    C116    1.410   .     A
C78    C115    1.412   .     A
C78    C289    1.492   .     S
C79    C293    1.491   .     S
C79    C114    1.413   .     A
C80    C297    1.491   .     S
C80    C113    1.413   .     A
C81    C301    1.492   .     S
C81    C114    1.412   .     A
C81    C96     1.407   .     A
C82    C305    1.492   .     S
C82    C95     1.406   .     A
C82    C113    1.412   .     A
C83    C94     1.406   .     A
C83    C309    1.487   .     S
C83    C116    1.410   .     A
C84    C93     1.406   .     A
C84    C313    1.490   .     S
C84    C115    1.412   .     A
C85    C317    1.491   .     S
C85    C92     1.407   .     A
C85    C118    1.413   .     A
C86    C117    1.413   .     A
C86    C321    1.491   .     S
C86    C91     1.407   .     A
C87    C325    1.492   .     S
C87    C90     1.408   .     A
C87    C120    1.413   .     A
C88    C119    1.413   .     A
C88    C89     1.408   .     A
C88    C329    1.492   .     S
C89    C122    1.411   .     A
C89    C333    1.491   .     S
C90    C121    1.411   .     A
C90    C337    1.492   .     S
C91    C341    1.492   .     S
C91    C124    1.412   .     A
C92    C123    1.412   .     A
C92    C345    1.492   .     S
C93    C126    1.412   .     A
C93    C349    1.492   .     S
C94    C125    1.410   .     A
C94    C353    1.487   .     S
C95    C128    1.413   .     A
C95    C357    1.491   .     S
C96    C127    1.413   .     A
C96    C361    1.491   .     S
C97    C129    1.411   .     A
C98    C130    1.411   .     A
C99    C859    1.411   .     S
C100   C860    1.411   1_545 S
C101   C493    1.411   .     S
C102   C494    1.411   1_455 S
C103   C131    1.411   .     A
C104   C132    1.411   .     A
C105   C133    1.411   .     A
C106   C762    1.402   1_545 A
C106   C134    1.411   .     S
C107   C499    1.411   .     S
C108   C136    1.411   .     A
C109   C861    1.411   .     S
C110   C134    1.411   .     A
C111   C135    1.411   .     A
C112   C500    1.411   .     S
C129   C465    1.411   1_455 S
C129   C494    1.404   1_455 S
C130   C466    1.411   .     S
C130   C493    1.404   .     S
C131   C827    1.411   1_545 S
C131   C860    1.404   1_545 S
C132   C828    1.411   .     S
C132   C859    1.404   .     S
C133   C837    1.411   1_545 S
C133   C134    1.404   1_556 S
C134   C133    1.404   1_554 S
C135   C471    1.411   1_455 S
C135   C136    1.404   1_556 S
C136   C476    1.411   1_455 S
C136   C135    1.404   1_554 S
H166   C742    1.084   .     S
O169   Zn225   1.947   .     S
O169   Zn232   1.944   .     S
O169   Zn221   1.941   .     S
O169   Zn964   1.946   1_545 S
O170   Zn226   1.947   .     S
O170   Zn235   1.946   .     S
O170   Zn222   1.941   .     S
O170   Zn959   1.944   1_545 S
O171   Zn230   1.941   .     S
O171   Zn223   1.944   .     S
O171   Zn227   1.946   .     S
O171   Zn598   1.947   1_455 S
O172   Zn233   1.947   .     S
O172   Zn224   1.944   .     S
O172   Zn228   1.946   .     S
O172   Zn593   1.941   1_455 S
O173   Zn236   1.951   .     S
O173   C769    1.279   .     S
O174   Zn235   1.951   .     S
O174   C770    1.279   1_545 S
O175   Zn230   1.953   .     S
O176   Zn229   1.953   .     S
O177   Zn232   1.952   .     S
O178   Zn231   1.952   .     S
O179   Zn234   1.950   .     S
O179   C407    1.278   .     S
O180   Zn233   1.950   .     S
O180   C408    1.278   1_455 S
O181   Zn228   1.951   .     S
O182   Zn227   1.951   .     S
O183   Zn222   1.953   .     S
O183   C775    1.279   1_545 S
O184   Zn221   1.953   .     S
O185   Zn224   1.952   .     S
O186   Zn223   1.952   .     S
O187   Zn226   1.950   .     S
O187   C775    1.278   1_545 S
O188   Zn225   1.950   .     S
O189   Zn232   1.928   .     S
O190   Zn231   1.928   .     S
O191   Zn234   1.930   .     S
O192   Zn233   1.930   .     S
O193   Zn236   1.930   .     S
O194   Zn235   1.930   .     S
O195   Zn230   1.931   .     S
O196   Zn229   1.931   .     S
O197   Zn231   1.931   .     S
O198   Zn232   1.931   .     S
O199   Zn229   1.930   .     S
O200   Zn230   1.930   .     S
O201   Zn235   1.929   .     S
O202   Zn236   1.929   .     S
O203   Zn233   1.929   .     S
O204   Zn234   1.929   .     S
O205   Zn588   1.928   .     S
O206   Zn223   1.928   .     S
O207   Zn954   1.930   .     S
O208   Zn225   1.930   .     S
O209   Zn228   1.930   .     S
O210   Zn591   1.930   .     S
O211   Zn222   1.931   .     S
O212   Zn949   1.931   .     S
O213   Zn587   1.931   .     S
O214   Zn224   1.931   .     S
O215   Zn221   1.930   .     S
O216   Zn950   1.930   .     S
O217   Zn227   1.929   .     S
O218   Zn592   1.929   .     S
O219   Zn953   1.929   .     S
O220   Zn226   1.929   .     S
Zn221  O940    1.931   1_545 S
Zn222  O944    1.930   1_545 S
Zn223  O577    1.931   1_455 S
Zn224  O569    1.928   1_455 S
Zn225  O947    1.929   1_545 S
Zn226  O935    1.930   1_545 S
Zn227  O574    1.930   1_455 S
Zn228  O582    1.929   1_455 S
Zn229  O536    1.941   .     S
Zn231  O898    1.944   .     S
Zn234  O535    1.947   .     S
Zn236  O897    1.946   .     S
C237   O238    1.223   .     D
C237   O239    1.398   .     S
O239   H240    1.014   .     S
C241   O243    1.398   .     S
C241   O242    1.223   .     D
O243   H244    1.014   .     S
C245   O246    1.223   .     D
C245   O247    1.398   .     S
O247   H248    1.014   .     S
C249   O250    1.222   .     D
C249   O251    1.398   .     S
O251   H252    1.014   .     S
C253   O254    1.223   .     D
C253   O255    1.399   .     S
O255   H256    1.014   .     S
C257   O258    1.223   .     D
C257   O259    1.399   .     S
O259   H260    1.014   .     S
C261   O262    1.223   .     D
C261   O263    1.398   .     S
O263   H264    1.014   .     S
C265   O267    1.399   .     S
C265   O266    1.223   .     D
O267   H268    1.013   .     S
C269   O270    1.223   .     D
C269   O271    1.398   .     S
O271   H272    1.014   .     S
C273   O275    1.399   .     S
C273   O274    1.223   .     D
O275   H276    1.013   .     S
C277   O279    1.398   .     S
C277   O278    1.223   .     D
O279   H280    1.014   .     S
C281   O283    1.398   .     S
C281   O282    1.223   .     D
O283   H284    1.014   .     S
C285   O287    1.398   .     S
C285   O286    1.222   .     D
O287   H288    1.014   .     S
C289   O290    1.223   .     D
C289   O291    1.398   .     S
O291   H292    1.014   .     S
C293   O294    1.223   .     D
C293   O295    1.399   .     S
O295   H296    1.014   .     S
C297   O299    1.398   .     S
C297   O298    1.223   .     D
O299   H300    1.014   .     S
C301   O302    1.223   .     D
C301   O303    1.398   .     S
O303   H304    1.014   .     S
C305   O307    1.398   .     S
C305   O306    1.223   .     D
O307   H308    1.014   .     S
C309   O310    1.222   .     D
C309   O311    1.398   .     S
O311   H312    1.014   .     S
C313   O315    1.398   .     S
C313   O314    1.223   .     D
O315   H316    1.014   .     S
C317   O319    1.399   .     S
C317   O318    1.223   .     D
O319   H320    1.014   .     S
C321   O322    1.223   .     D
C321   O323    1.399   .     S
O323   H324    1.014   .     S
C325   O327    1.398   .     S
C325   O326    1.223   .     D
O327   H328    1.014   .     S
C329   O331    1.398   .     S
C329   O330    1.223   .     D
O331   H332    1.014   .     S
C333   O334    1.223   .     D
C333   O335    1.399   .     S
O335   H336    1.013   .     S
C337   O338    1.223   .     D
C337   O339    1.399   .     S
O339   H340    1.013   .     S
C341   O343    1.398   .     S
C341   O342    1.223   .     D
O343   H344    1.014   .     S
C345   O347    1.398   .     S
C345   O346    1.223   .     D
O347   H348    1.014   .     S
C349   O350    1.223   .     D
C349   O351    1.398   .     S
O351   H352    1.014   .     S
C353   O355    1.398   .     S
C353   O354    1.222   .     D
O355   H356    1.014   .     S
C357   O358    1.223   .     D
C357   O359    1.398   .     S
O359   H360    1.014   .     S
C361   O363    1.398   .     S
C361   O362    1.223   .     D
O363   H364    1.014   .     S
C365   C465    1.395   .     A
C365   H517    1.084   .     S
C365   C17     1.404   1_655 S
C366   C466    1.395   .     A
C366   H518    1.084   .     S
C367   C383    1.404   .     A
C367   C467    1.395   .     A
C367   H519    1.084   .     S
C368   C468    1.395   .     A
C368   C384    1.404   .     A
C368   H520    1.084   .     S
C369   C461    1.395   .     A
C369   C381    1.403   .     A
C369   H521    1.084   .     S
C370   H522    1.084   .     S
C370   C462    1.395   .     A
C370   C382    1.403   .     A
C371   C463    1.395   .     A
C371   H523    1.084   .     S
C371   C1111   1.404   .     S
C372   C464    1.395   .     A
C372   H524    1.084   .     S
C372   C1112   1.404   1_545 S
C373   H525    1.084   .     S
C373   C473    1.395   .     A
C373   C1113   1.404   .     S
C374   H526    1.084   .     S
C374   C386    1.404   .     A
C374   C474    1.395   .     A
C375   C387    1.404   .     A
C375   H527    1.084   .     S
C375   C475    1.395   .     A
C376   C476    1.395   .     A
C376   H528    1.084   .     S
C376   C24     1.404   1_655 S
C377   C385    1.403   .     A
C377   C469    1.395   .     A
C377   H529    1.084   .     S
C378   C386    1.403   .     A
C378   C470    1.395   .     S
C378   H1258   1.084   1_545 S
C379   H531    1.084   .     S
C379   C471    1.395   .     A
C379   C23     1.404   1_655 S
C380   H532    1.084   .     S
C380   C472    1.395   .     A
C380   C388    1.404   .     A
C381   C407    1.464   .     S
C382   C408    1.464   .     S
C382   C2      1.404   1_655 S
C383   C405    1.464   .     S
C383   C1099   1.404   1_545 S
C384   C406    1.464   .     S
C384   C1100   1.404   .     S
C385   C1101   1.404   1_545 S
C385   C1139   1.464   1_545 S
C386   C412    1.464   .     S
C387   C409    1.464   .     S
C388   C410    1.464   .     S
C389   H501    1.084   .     S
C389   C461    1.402   .     A
C389   C394    1.395   .     A
C390   H502    1.084   .     S
C390   C462    1.402   .     A
C390   C393    1.395   .     A
C391   C463    1.402   .     A
C391   H503    1.084   .     S
C391   C396    1.395   .     A
C392   C395    1.395   .     A
C392   H504    1.084   .     S
C392   C464    1.402   .     A
C393   H505    1.084   .     S
C393   C465    1.402   .     A
C394   C466    1.402   .     A
C394   H506    1.084   .     S
C395   H507    1.084   .     S
C395   C467    1.402   .     A
C396   C468    1.402   .     A
C396   H508    1.084   .     S
C397   C469    1.402   .     A
C397   H509    1.084   .     S
C397   C402    1.395   1_556 S
C398   C1198   1.402   .     A
C398   H510    1.084   .     S
C398   C401    1.395   1_554 S
C399   C471    1.402   .     A
C399   H511    1.084   .     S
C399   C404    1.395   1_556 S
C400   H512    1.084   .     S
C400   C472    1.402   .     A
C400   C403    1.395   1_554 S
C401   C473    1.402   .     A
C401   H513    1.084   .     S
C401   C398    1.395   1_556 S
C402   C474    1.402   .     A
C402   H514    1.084   .     S
C402   C397    1.395   1_554 S
C403   C475    1.402   .     A
C403   H515    1.084   .     S
C403   C400    1.395   1_556 S
C404   C476    1.402   .     A
C404   H516    1.084   .     S
C404   C399    1.395   1_554 S
C405   O541    1.280   .     A
C405   O1265   1.279   1_545 S
C406   O542    1.280   .     A
C406   O1266   1.279   .     S
C407   O539    1.279   .     A
C408   O540    1.279   .     A
C408   O180    1.278   1_655 S
C409   O545    1.279   .     S
C409   O549    1.280   .     S
C410   O550    1.280   .     A
C410   O546    1.279   .     S
C411   C1113   1.464   .     S
C411   O1275   1.279   .     S
C411   O1279   1.278   .     S
C412   O552    1.278   .     A
C412   O548    1.279   .     A
C413   C479    1.451   .     S
C413   O579    1.274   .     A
C413   O553    1.278   .     A
C414   O580    1.276   .     A
C414   O554    1.275   .     A
C414   C480    1.452   .     S
C415   O555    1.279   .     A
C415   C481    1.452   .     S
C415   O577    1.275   .     A
C416   O578    1.275   .     A
C416   C482    1.452   .     S
C416   O556    1.279   .     A
C417   O583    1.280   .     A
C417   O557    1.276   .     A
C417   C483    1.452   .     S
C418   O558    1.278   .     A
C418   C484    1.452   .     S
C418   O584    1.278   .     A
C419   O581    1.278   .     A
C419   O559    1.274   .     A
C419   C477    1.452   .     S
C420   O582    1.278   .     A
C420   O560    1.274   .     A
C420   C478    1.452   .     S
C421   C487    1.452   .     S
C421   O561    1.275   .     A
C421   O571    1.279   .     A
C422   O572    1.279   .     A
C422   O562    1.275   .     A
C422   C488    1.452   .     S
C423   O569    1.275   .     A
C423   C489    1.452   .     S
C423   O563    1.276   .     A
C424   O564    1.274   .     A
C424   O570    1.278   .     A
C424   C490    1.451   .     S
C425   C491    1.452   .     S
C425   O575    1.274   .     A
C425   O565    1.278   .     A
C426   O576    1.274   .     A
C426   O566    1.278   .     A
C426   C492    1.452   .     S
C427   O567    1.278   .     A
C427   O573    1.278   .     A
C427   C485    1.451   .     S
C428   O568    1.280   .     A
C428   O574    1.276   .     A
C428   C486    1.452   .     S
C429   C492    1.412   .     A
C429   C444    1.406   .     A
C429   C601    1.492   .     S
C430   C443    1.406   .     A
C430   C605    1.492   .     S
C430   C491    1.412   .     A
C431   C609    1.490   .     S
C431   C490    1.412   .     A
C431   C442    1.406   .     A
C432   C613    1.487   .     S
C432   C441    1.406   .     A
C432   C489    1.410   .     A
C433   C440    1.407   .     A
C433   C488    1.413   .     A
C433   C617    1.491   .     S
C434   C621    1.491   .     S
C434   C439    1.407   .     A
C434   C487    1.413   .     A
C435   C486    1.413   .     A
C435   C438    1.408   .     A
C435   C625    1.492   .     S
C436   C437    1.408   .     A
C436   C485    1.411   .     A
C436   C629    1.492   .     S
C437   C484    1.413   .     A
C437   C633    1.492   .     S
C438   C637    1.491   .     S
C438   C483    1.411   .     A
C439   C641    1.492   .     S
C439   C482    1.412   .     A
C440   C645    1.492   .     S
C440   C481    1.412   .     A
C441   C649    1.487   .     S
C441   C480    1.410   .     A
C442   C479    1.412   .     A
C442   C653    1.492   .     S
C443   C657    1.491   .     S
C443   C478    1.413   .     A
C444   C661    1.491   .     S
C444   C477    1.413   .     A
C445   C665    1.492   .     S
C445   C478    1.412   .     A
C445   C460    1.407   .     A
C446   C669    1.492   .     S
C446   C459    1.406   .     A
C446   C477    1.412   .     A
C447   C458    1.406   .     A
C447   C673    1.487   .     S
C447   C480    1.410   .     A
C448   C457    1.406   .     A
C448   C677    1.490   .     S
C448   C479    1.412   .     A
C449   C681    1.491   .     S
C449   C456    1.407   .     A
C449   C482    1.413   .     A
C450   C481    1.413   .     A
C450   C685    1.491   .     S
C450   C455    1.407   .     A
C451   C689    1.492   .     S
C451   C454    1.408   .     A
C451   C484    1.413   .     A
C452   C483    1.413   .     A
C452   C453    1.408   .     A
C452   C693    1.492   .     S
C453   C486    1.411   .     A
C453   C697    1.491   .     S
C454   C485    1.411   .     A
C454   C701    1.492   .     S
C455   C705    1.492   .     S
C455   C488    1.412   .     A
C456   C487    1.412   .     A
C456   C709    1.492   .     S
C457   C490    1.412   .     A
C457   C713    1.492   .     S
C458   C489    1.410   .     A
C458   C717    1.487   .     S
C459   C492    1.413   .     A
C459   C721    1.491   .     S
C460   C491    1.413   .     A
C460   C725    1.491   .     S
C461   C493    1.411   .     A
C462   C494    1.411   .     A
C463   C1223   1.411   .     S
C464   C1224   1.411   1_545 S
C465   C129    1.411   1_655 S
C467   C495    1.411   .     A
C468   C496    1.411   .     A
C469   C497    1.411   .     A
C470   C1126   1.402   1_545 A
C470   C498    1.411   .     S
C471   C135    1.411   1_655 S
C472   C500    1.411   .     A
C473   C1225   1.411   .     S
C474   C498    1.411   .     A
C475   C499    1.411   .     A
C476   C136    1.411   1_655 S
C494   C102    1.411   1_655 S
C494   C129    1.404   1_655 S
C495   C1191   1.411   1_545 S
C495   C1224   1.404   1_545 S
C496   C1192   1.411   .     S
C496   C1223   1.404   .     S
C497   C1201   1.411   1_545 S
C497   C498    1.404   1_556 S
C498   C497    1.404   1_554 S
C499   C500    1.404   1_556 S
C500   C499    1.404   1_554 S
H530   C1106   1.084   .     S
O533   Zn589   1.947   .     S
O533   Zn596   1.944   .     S
O533   Zn585   1.941   .     S
O533   Zn1328  1.946   1_545 S
O534   Zn590   1.947   .     S
O534   Zn599   1.946   .     S
O534   Zn586   1.941   .     S
O534   Zn1323  1.944   1_545 S
O535   Zn594   1.941   .     S
O535   Zn587   1.944   .     S
O535   Zn591   1.946   .     S
O536   Zn597   1.947   .     S
O536   Zn588   1.944   .     S
O536   Zn592   1.946   .     S
O537   Zn600   1.951   .     S
O537   C1133   1.279   .     S
O538   Zn599   1.951   .     S
O538   C1134   1.279   1_545 S
O539   Zn594   1.953   .     S
O540   Zn593   1.953   .     S
O541   Zn596   1.952   .     S
O542   Zn595   1.952   .     S
O543   Zn598   1.950   .     S
O543   C43     1.278   1_655 S
O544   Zn597   1.950   .     S
O545   Zn592   1.951   .     S
O546   Zn591   1.951   .     S
O547   Zn586   1.953   .     S
O547   C1139   1.279   1_545 S
O548   Zn585   1.953   .     S
O549   Zn588   1.952   .     S
O550   Zn587   1.952   .     S
O551   Zn590   1.950   .     S
O551   C1139   1.278   1_545 S
O552   Zn589   1.950   .     S
O553   Zn596   1.928   .     S
O554   Zn595   1.928   .     S
O555   Zn598   1.930   .     S
O556   Zn597   1.930   .     S
O557   Zn600   1.930   .     S
O558   Zn599   1.930   .     S
O559   Zn594   1.931   .     S
O560   Zn593   1.931   .     S
O561   Zn595   1.931   .     S
O562   Zn596   1.931   .     S
O563   Zn593   1.930   .     S
O564   Zn594   1.930   .     S
O565   Zn599   1.929   .     S
O566   Zn600   1.929   .     S
O567   Zn597   1.929   .     S
O568   Zn598   1.929   .     S
O569   Zn224   1.928   1_655 S
O570   Zn587   1.928   .     S
O571   Zn1318  1.930   .     S
O572   Zn589   1.930   .     S
O573   Zn592   1.930   .     S
O574   Zn227   1.930   1_655 S
O575   Zn586   1.931   .     S
O576   Zn1313  1.931   .     S
O577   Zn223   1.931   1_655 S
O578   Zn588   1.931   .     S
O579   Zn585   1.930   .     S
O580   Zn1314  1.930   .     S
O581   Zn591   1.929   .     S
O582   Zn228   1.929   1_655 S
O583   Zn1317  1.929   .     S
O584   Zn590   1.929   .     S
Zn585  O1304   1.931   1_545 S
Zn586  O1308   1.930   1_545 S
Zn589  O1311   1.929   1_545 S
Zn590  O1299   1.930   1_545 S
Zn593  O172    1.941   1_655 S
Zn595  O1262   1.944   .     S
Zn598  O171    1.947   1_655 S
Zn600  O1261   1.946   .     S
C601   O602    1.223   .     D
C601   O603    1.398   .     S
O603   H604    1.014   .     S
C605   O607    1.398   .     S
C605   O606    1.223   .     D
O607   H608    1.014   .     S
C609   O610    1.223   .     D
C609   O611    1.398   .     S
O611   H612    1.014   .     S
C613   O614    1.222   .     D
C613   O615    1.398   .     S
O615   H616    1.014   .     S
C617   O618    1.223   .     D
C617   O619    1.399   .     S
O619   H620    1.014   .     S
C621   O622    1.223   .     D
C621   O623    1.399   .     S
O623   H624    1.014   .     S
C625   O626    1.223   .     D
C625   O627    1.398   .     S
O627   H628    1.014   .     S
C629   O631    1.399   .     S
C629   O630    1.223   .     D
O631   H632    1.013   .     S
C633   O634    1.223   .     D
C633   O635    1.398   .     S
O635   H636    1.014   .     S
C637   O639    1.399   .     S
C637   O638    1.223   .     D
O639   H640    1.013   .     S
C641   O643    1.398   .     S
C641   O642    1.223   .     D
O643   H644    1.014   .     S
C645   O647    1.398   .     S
C645   O646    1.223   .     D
O647   H648    1.014   .     S
C649   O651    1.398   .     S
C649   O650    1.222   .     D
O651   H652    1.014   .     S
C653   O654    1.223   .     D
C653   O655    1.398   .     S
O655   H656    1.014   .     S
C657   O658    1.223   .     D
C657   O659    1.399   .     S
O659   H660    1.014   .     S
C661   O663    1.398   .     S
C661   O662    1.223   .     D
O663   H664    1.014   .     S
C665   O666    1.223   .     D
C665   O667    1.398   .     S
O667   H668    1.014   .     S
C669   O671    1.398   .     S
C669   O670    1.223   .     D
O671   H672    1.014   .     S
C673   O674    1.222   .     D
C673   O675    1.398   .     S
O675   H676    1.014   .     S
C677   O679    1.398   .     S
C677   O678    1.223   .     D
O679   H680    1.014   .     S
C681   O683    1.399   .     S
C681   O682    1.223   .     D
O683   H684    1.014   .     S
C685   O686    1.223   .     D
C685   O687    1.399   .     S
O687   H688    1.014   .     S
C689   O691    1.398   .     S
C689   O690    1.223   .     D
O691   H692    1.014   .     S
C693   O695    1.398   .     S
C693   O694    1.223   .     D
O695   H696    1.014   .     S
C697   O698    1.223   .     D
C697   O699    1.399   .     S
O699   H700    1.013   .     S
C701   O702    1.223   .     D
C701   O703    1.399   .     S
O703   H704    1.013   .     S
C705   O707    1.398   .     S
C705   O706    1.223   .     D
O707   H708    1.014   .     S
C709   O711    1.398   .     S
C709   O710    1.223   .     D
O711   H712    1.014   .     S
C713   O714    1.223   .     D
C713   O715    1.398   .     S
O715   H716    1.014   .     S
C717   O719    1.398   .     S
C717   O718    1.222   .     D
O719   H720    1.014   .     S
C721   O722    1.223   .     D
C721   O723    1.398   .     S
O723   H724    1.014   .     S
C725   O727    1.398   .     S
C725   O726    1.223   .     D
O727   H728    1.014   .     S
C729   C829    1.395   .     A
C729   H881    1.084   .     S
C729   C1109   1.404   .     S
C730   C830    1.395   .     A
C730   H882    1.084   .     S
C730   C1110   1.404   1_455 S
C731   C747    1.404   .     A
C731   C831    1.395   .     A
C731   H883    1.084   .     S
C732   C832    1.395   .     A
C732   C748    1.404   .     A
C732   H884    1.084   .     S
C733   C825    1.395   .     A
C733   C745    1.403   .     A
C733   H885    1.084   .     S
C734   H886    1.084   .     S
C734   C826    1.395   .     A
C734   C746    1.403   .     A
C735   C827    1.395   .     A
C735   H887    1.084   .     S
C735   C19     1.404   1_565 S
C736   C828    1.395   .     A
C736   H888    1.084   .     S
C737   H889    1.084   .     S
C737   C837    1.395   .     A
C737   C21     1.404   1_565 S
C738   H890    1.084   .     S
C738   C750    1.404   .     A
C738   C838    1.395   .     A
C739   C751    1.404   .     A
C739   H891    1.084   .     S
C739   C839    1.395   .     A
C740   C840    1.395   .     A
C740   H892    1.084   .     S
C740   C1116   1.404   .     S
C741   C749    1.403   .     A
C741   C833    1.395   .     A
C741   H893    1.084   .     S
C742   C750    1.403   .     A
C742   C834    1.395   .     S
C743   H895    1.084   .     S
C743   C835    1.395   .     A
C743   C1115   1.404   .     S
C744   H896    1.084   .     S
C744   C836    1.395   .     A
C744   C752    1.404   .     A
C745   C771    1.464   .     S
C745   C1093   1.404   1_455 S
C746   C772    1.464   .     S
C746   C1094   1.404   .     S
C747   C769    1.464   .     S
C748   C770    1.464   .     S
C748   C8      1.404   1_565 S
C750   C776    1.464   .     S
C751   C1107   1.404   1_455 S
C751   C773    1.464   .     S
C752   C774    1.464   .     S
C752   C1104   1.404   1_455 S
C753   H865    1.084   .     S
C753   C825    1.402   .     A
C753   C758    1.395   .     A
C754   H866    1.084   .     S
C754   C826    1.402   .     A
C754   C757    1.395   .     A
C755   C827    1.402   .     A
C755   H867    1.084   .     S
C755   C760    1.395   .     A
C756   C759    1.395   .     A
C756   H868    1.084   .     S
C756   C828    1.402   .     A
C757   H869    1.084   .     S
C757   C829    1.402   .     A
C758   C830    1.402   .     A
C758   H870    1.084   .     S
C759   H871    1.084   .     S
C759   C831    1.402   .     A
C760   C832    1.402   .     A
C760   H872    1.084   .     S
C761   C833    1.402   .     A
C761   H873    1.084   .     S
C761   C766    1.395   1_556 S
C762   C106    1.402   1_565 A
C762   H874    1.084   .     S
C762   C765    1.395   1_554 S
C763   C835    1.402   .     A
C763   H875    1.084   .     S
C763   C768    1.395   1_556 S
C764   H876    1.084   .     S
C764   C836    1.402   .     A
C764   C767    1.395   1_554 S
C765   C837    1.402   .     A
C765   H877    1.084   .     S
C765   C762    1.395   1_556 S
C766   C838    1.402   .     A
C766   H878    1.084   .     S
C766   C761    1.395   1_554 S
C767   C839    1.402   .     A
C767   H879    1.084   .     S
C767   C764    1.395   1_556 S
C768   C840    1.402   .     A
C768   H880    1.084   .     S
C768   C763    1.395   1_554 S
C769   O905    1.280   .     A
C770   O906    1.280   .     A
C770   O174    1.279   1_565 S
C771   O903    1.279   .     A
C771   O1271   1.278   1_455 S
C772   O904    1.279   .     A
C772   O1272   1.278   .     S
C773   O909    1.279   .     S
C773   O913    1.280   .     S
C774   O914    1.280   .     A
C774   O910    1.279   .     S
C775   C21     1.464   1_565 S
C775   O183    1.279   1_565 S
C775   O187    1.278   1_565 S
C776   O916    1.278   .     A
C776   O912    1.279   .     A
C777   C843    1.451   .     S
C777   O943    1.274   .     A
C777   O917    1.278   .     A
C778   O944    1.276   .     A
C778   O918    1.275   .     A
C778   C844    1.452   .     S
C779   O919    1.279   .     A
C779   C845    1.452   .     S
C779   O941    1.275   .     A
C780   O942    1.275   .     A
C780   C846    1.452   .     S
C780   O920    1.279   .     A
C781   O947    1.280   .     A
C781   O921    1.276   .     A
C781   C847    1.452   .     S
C782   O922    1.278   .     A
C782   C848    1.452   .     S
C782   O948    1.278   .     A
C783   O945    1.278   .     A
C783   O923    1.274   .     A
C783   C841    1.452   .     S
C784   O946    1.278   .     A
C784   O924    1.274   .     A
C784   C842    1.452   .     S
C785   C851    1.452   .     S
C785   O925    1.275   .     A
C785   O935    1.279   .     A
C786   O936    1.279   .     A
C786   O926    1.275   .     A
C786   C852    1.452   .     S
C787   O933    1.275   .     A
C787   C853    1.452   .     S
C787   O927    1.276   .     A
C788   O928    1.274   .     A
C788   O934    1.278   .     A
C788   C854    1.451   .     S
C789   C855    1.452   .     S
C789   O939    1.274   .     A
C789   O929    1.278   .     A
C790   O940    1.274   .     A
C790   O930    1.278   .     A
C790   C856    1.452   .     S
C791   O931    1.278   .     A
C791   O937    1.278   .     A
C791   C849    1.451   .     S
C792   O932    1.280   .     A
C792   O938    1.276   .     A
C792   C850    1.452   .     S
C793   C856    1.412   .     A
C793   C808    1.406   .     A
C793   C965    1.492   .     S
C794   C807    1.406   .     A
C794   C969    1.492   .     S
C794   C855    1.412   .     A
C795   C973    1.490   .     S
C795   C854    1.412   .     A
C795   C806    1.406   .     A
C796   C977    1.487   .     S
C796   C805    1.406   .     A
C796   C853    1.410   .     A
C797   C804    1.407   .     A
C797   C852    1.413   .     A
C797   C981    1.491   .     S
C798   C985    1.491   .     S
C798   C803    1.407   .     A
C798   C851    1.413   .     A
C799   C850    1.413   .     A
C799   C802    1.408   .     A
C799   C989    1.492   .     S
C800   C801    1.408   .     A
C800   C849    1.411   .     A
C800   C993    1.492   .     S
C801   C848    1.413   .     A
C801   C997    1.492   .     S
C802   C1001   1.491   .     S
C802   C847    1.411   .     A
C803   C1005   1.492   .     S
C803   C846    1.412   .     A
C804   C1009   1.492   .     S
C804   C845    1.412   .     A
C805   C1013   1.487   .     S
C805   C844    1.410   .     A
C806   C843    1.412   .     A
C806   C1017   1.492   .     S
C807   C1021   1.491   .     S
C807   C842    1.413   .     A
C808   C1025   1.491   .     S
C808   C841    1.413   .     A
C809   C1029   1.492   .     S
C809   C842    1.412   .     A
C809   C824    1.407   .     A
C810   C1033   1.492   .     S
C810   C823    1.406   .     A
C810   C841    1.412   .     A
C811   C822    1.406   .     A
C811   C1037   1.487   .     S
C811   C844    1.410   .     A
C812   C821    1.406   .     A
C812   C1041   1.490   .     S
C812   C843    1.412   .     A
C813   C1045   1.491   .     S
C813   C820    1.407   .     A
C813   C846    1.413   .     A
C814   C845    1.413   .     A
C814   C1049   1.491   .     S
C814   C819    1.407   .     A
C815   C1053   1.492   .     S
C815   C818    1.408   .     A
C815   C848    1.413   .     A
C816   C847    1.413   .     A
C816   C817    1.408   .     A
C816   C1057   1.492   .     S
C817   C850    1.411   .     A
C817   C1061   1.491   .     S
C818   C849    1.411   .     A
C818   C1065   1.492   .     S
C819   C1069   1.492   .     S
C819   C852    1.412   .     A
C820   C851    1.412   .     A
C820   C1073   1.492   .     S
C821   C854    1.412   .     A
C821   C1077   1.492   .     S
C822   C853    1.410   .     A
C822   C1081   1.487   .     S
C823   C856    1.413   .     A
C823   C1085   1.491   .     S
C824   C855    1.413   .     A
C824   C1089   1.491   .     S
C825   C857    1.411   .     A
C826   C858    1.411   .     A
C827   C131    1.411   1_565 S
C829   C1221   1.411   .     S
C830   C1222   1.411   1_455 S
C831   C859    1.411   .     A
C832   C860    1.411   .     A
C833   C861    1.411   .     A
C834   C862    1.411   .     S
C835   C1227   1.411   .     S
C836   C864    1.411   .     A
C837   C133    1.411   1_565 S
C838   C862    1.411   .     A
C839   C863    1.411   .     A
C840   C1228   1.411   .     S
C857   C1193   1.411   1_455 S
C857   C1222   1.404   1_455 S
C858   C1194   1.411   .     S
C858   C1221   1.404   .     S
C860   C100    1.411   1_565 S
C860   C131    1.404   1_565 S
C861   C862    1.404   1_556 S
C862   C861    1.404   1_554 S
C863   C1199   1.411   1_455 S
C863   C864    1.404   1_556 S
C864   C1204   1.411   1_455 S
C864   C863    1.404   1_554 S
H894   C14     1.084   1_565 S
O897   Zn953   1.947   .     S
O897   Zn960   1.944   .     S
O897   Zn949   1.941   .     S
O898   Zn954   1.947   .     S
O898   Zn963   1.946   .     S
O898   Zn950   1.941   .     S
O899   Zn958   1.941   .     S
O899   Zn951   1.944   .     S
O899   Zn955   1.946   .     S
O899   Zn1326  1.947   1_455 S
O900   Zn961   1.947   .     S
O900   Zn952   1.944   .     S
O900   Zn956   1.946   .     S
O900   Zn1321  1.941   1_455 S
O901   Zn964   1.951   .     S
O901   C41     1.279   1_565 S
O902   Zn963   1.951   .     S
O903   Zn958   1.953   .     S
O904   Zn957   1.953   .     S
O905   Zn960   1.952   .     S
O906   Zn959   1.952   .     S
O907   Zn962   1.950   .     S
O907   C1135   1.278   .     S
O908   Zn961   1.950   .     S
O908   C1136   1.278   1_455 S
O909   Zn956   1.951   .     S
O910   Zn955   1.951   .     S
O911   Zn950   1.953   .     S
O912   Zn949   1.953   .     S
O913   Zn952   1.952   .     S
O914   Zn951   1.952   .     S
O915   Zn954   1.950   .     S
O916   Zn953   1.950   .     S
O917   Zn960   1.928   .     S
O918   Zn959   1.928   .     S
O919   Zn962   1.930   .     S
O920   Zn961   1.930   .     S
O921   Zn964   1.930   .     S
O922   Zn963   1.930   .     S
O923   Zn958   1.931   .     S
O924   Zn957   1.931   .     S
O925   Zn959   1.931   .     S
O926   Zn960   1.931   .     S
O927   Zn957   1.930   .     S
O928   Zn958   1.930   .     S
O929   Zn963   1.929   .     S
O930   Zn964   1.929   .     S
O931   Zn961   1.929   .     S
O932   Zn962   1.929   .     S
O933   Zn1316  1.928   .     S
O934   Zn951   1.928   .     S
O935   Zn226   1.930   1_565 S
O936   Zn953   1.930   .     S
O937   Zn956   1.930   .     S
O938   Zn1319  1.930   .     S
O939   Zn950   1.931   .     S
O940   Zn221   1.931   1_565 S
O941   Zn1315  1.931   .     S
O942   Zn952   1.931   .     S
O943   Zn949   1.930   .     S
O944   Zn222   1.930   1_565 S
O945   Zn955   1.929   .     S
O946   Zn1320  1.929   .     S
O947   Zn225   1.929   1_565 S
O948   Zn954   1.929   .     S
Zn951  O1305   1.931   1_455 S
Zn952  O1297   1.928   1_455 S
Zn955  O1302   1.930   1_455 S
Zn956  O1310   1.929   1_455 S
Zn957  O1264   1.941   .     S
Zn959  O170    1.944   1_565 S
Zn962  O1263   1.947   .     S
Zn964  O169    1.946   1_565 S
C965   O966    1.223   .     D
C965   O967    1.398   .     S
O967   H968    1.014   .     S
C969   O971    1.398   .     S
C969   O970    1.223   .     D
O971   H972    1.014   .     S
C973   O974    1.223   .     D
C973   O975    1.398   .     S
O975   H976    1.014   .     S
C977   O978    1.222   .     D
C977   O979    1.398   .     S
O979   H980    1.014   .     S
C981   O982    1.223   .     D
C981   O983    1.399   .     S
O983   H984    1.014   .     S
C985   O986    1.223   .     D
C985   O987    1.399   .     S
O987   H988    1.014   .     S
C989   O990    1.223   .     D
C989   O991    1.398   .     S
O991   H992    1.014   .     S
C993   O995    1.399   .     S
C993   O994    1.223   .     D
O995   H996    1.013   .     S
C997   O998    1.223   .     D
C997   O999    1.398   .     S
O999   H1000   1.014   .     S
C1001  O1003   1.399   .     S
C1001  O1002   1.223   .     D
O1003  H1004   1.013   .     S
C1005  O1007   1.398   .     S
C1005  O1006   1.223   .     D
O1007  H1008   1.014   .     S
C1009  O1011   1.398   .     S
C1009  O1010   1.223   .     D
O1011  H1012   1.014   .     S
C1013  O1015   1.398   .     S
C1013  O1014   1.222   .     D
O1015  H1016   1.014   .     S
C1017  O1018   1.223   .     D
C1017  O1019   1.398   .     S
O1019  H1020   1.014   .     S
C1021  O1022   1.223   .     D
C1021  O1023   1.399   .     S
O1023  H1024   1.014   .     S
C1025  O1027   1.398   .     S
C1025  O1026   1.223   .     D
O1027  H1028   1.014   .     S
C1029  O1030   1.223   .     D
C1029  O1031   1.398   .     S
O1031  H1032   1.014   .     S
C1033  O1035   1.398   .     S
C1033  O1034   1.223   .     D
O1035  H1036   1.014   .     S
C1037  O1038   1.222   .     D
C1037  O1039   1.398   .     S
O1039  H1040   1.014   .     S
C1041  O1043   1.398   .     S
C1041  O1042   1.223   .     D
O1043  H1044   1.014   .     S
C1045  O1047   1.399   .     S
C1045  O1046   1.223   .     D
O1047  H1048   1.014   .     S
C1049  O1050   1.223   .     D
C1049  O1051   1.399   .     S
O1051  H1052   1.014   .     S
C1053  O1055   1.398   .     S
C1053  O1054   1.223   .     D
O1055  H1056   1.014   .     S
C1057  O1059   1.398   .     S
C1057  O1058   1.223   .     D
O1059  H1060   1.014   .     S
C1061  O1062   1.223   .     D
C1061  O1063   1.399   .     S
O1063  H1064   1.013   .     S
C1065  O1066   1.223   .     D
C1065  O1067   1.399   .     S
O1067  H1068   1.013   .     S
C1069  O1071   1.398   .     S
C1069  O1070   1.223   .     D
O1071  H1072   1.014   .     S
C1073  O1075   1.398   .     S
C1073  O1074   1.223   .     D
O1075  H1076   1.014   .     S
C1077  O1078   1.223   .     D
C1077  O1079   1.398   .     S
O1079  H1080   1.014   .     S
C1081  O1083   1.398   .     S
C1081  O1082   1.222   .     D
O1083  H1084   1.014   .     S
C1085  O1086   1.223   .     D
C1085  O1087   1.398   .     S
O1087  H1088   1.014   .     S
C1089  O1091   1.398   .     S
C1089  O1090   1.223   .     D
O1091  H1092   1.014   .     S
C1093  C1193   1.395   .     A
C1093  H1245   1.084   .     S
C1093  C745    1.404   1_655 S
C1094  C1194   1.395   .     A
C1094  H1246   1.084   .     S
C1095  C1111   1.404   .     A
C1095  C1195   1.395   .     A
C1095  H1247   1.084   .     S
C1096  C1196   1.395   .     A
C1096  C1112   1.404   .     A
C1096  H1248   1.084   .     S
C1097  C1189   1.395   .     A
C1097  C1109   1.403   .     A
C1097  H1249   1.084   .     S
C1098  H1250   1.084   .     S
C1098  C1190   1.395   .     A
C1098  C1110   1.403   .     A
C1099  C1191   1.395   .     A
C1099  H1251   1.084   .     S
C1099  C383    1.404   1_565 S
C1100  C1192   1.395   .     A
C1100  H1252   1.084   .     S
C1101  H1253   1.084   .     S
C1101  C1201   1.395   .     A
C1101  C385    1.404   1_565 S
C1102  H1254   1.084   .     S
C1102  C1114   1.404   .     A
C1102  C1202   1.395   .     A
C1103  C1115   1.404   .     A
C1103  H1255   1.084   .     S
C1103  C1203   1.395   .     A
C1104  C1204   1.395   .     A
C1104  H1256   1.084   .     S
C1104  C752    1.404   1_655 S
C1105  C1113   1.403   .     A
C1105  C1197   1.395   .     A
C1105  H1257   1.084   .     S
C1106  C1114   1.403   .     A
C1106  C1198   1.395   .     S
C1107  H1259   1.084   .     S
C1107  C1199   1.395   .     A
C1107  C751    1.404   1_655 S
C1108  H1260   1.084   .     S
C1108  C1200   1.395   .     A
C1108  C1116   1.404   .     A
C1109  C1135   1.464   .     S
C1110  C1136   1.464   .     S
C1110  C730    1.404   1_655 S
C1111  C1133   1.464   .     S
C1112  C1134   1.464   .     S
C1112  C372    1.404   1_565 S
C1114  C1140   1.464   .     S
C1115  C1137   1.464   .     S
C1116  C1138   1.464   .     S
C1117  H1229   1.084   .     S
C1117  C1189   1.402   .     A
C1117  C1122   1.395   .     A
C1118  H1230   1.084   .     S
C1118  C1190   1.402   .     A
C1118  C1121   1.395   .     A
C1119  C1191   1.402   .     A
C1119  H1231   1.084   .     S
C1119  C1124   1.395   .     A
C1120  C1123   1.395   .     A
C1120  H1232   1.084   .     S
C1120  C1192   1.402   .     A
C1121  H1233   1.084   .     S
C1121  C1193   1.402   .     A
C1122  C1194   1.402   .     A
C1122  H1234   1.084   .     S
C1123  H1235   1.084   .     S
C1123  C1195   1.402   .     A
C1124  C1196   1.402   .     A
C1124  H1236   1.084   .     S
C1125  C1197   1.402   .     A
C1125  H1237   1.084   .     S
C1125  C1130   1.395   1_556 S
C1126  C470    1.402   1_565 A
C1126  H1238   1.084   .     S
C1126  C1129   1.395   1_554 S
C1127  C1199   1.402   .     A
C1127  H1239   1.084   .     S
C1127  C1132   1.395   1_556 S
C1128  H1240   1.084   .     S
C1128  C1200   1.402   .     A
C1128  C1131   1.395   1_554 S
C1129  C1201   1.402   .     A
C1129  H1241   1.084   .     S
C1129  C1126   1.395   1_556 S
C1130  C1202   1.402   .     A
C1130  H1242   1.084   .     S
C1130  C1125   1.395   1_554 S
C1131  C1203   1.402   .     A
C1131  H1243   1.084   .     S
C1131  C1128   1.395   1_556 S
C1132  C1204   1.402   .     A
C1132  H1244   1.084   .     S
C1132  C1127   1.395   1_554 S
C1133  O1269   1.280   .     A
C1134  O1270   1.280   .     A
C1134  O538    1.279   1_565 S
C1135  O1267   1.279   .     A
C1136  O1268   1.279   .     A
C1136  O908    1.278   1_655 S
C1137  O1273   1.279   .     S
C1137  O1277   1.280   .     S
C1138  O1278   1.280   .     A
C1138  O1274   1.279   .     S
C1139  C385    1.464   1_565 S
C1139  O547    1.279   1_565 S
C1139  O551    1.278   1_565 S
C1140  O1280   1.278   .     A
C1140  O1276   1.279   .     A
C1141  C1207   1.451   .     S
C1141  O1307   1.274   .     A
C1141  O1281   1.278   .     A
C1142  O1308   1.276   .     A
C1142  O1282   1.275   .     A
C1142  C1208   1.452   .     S
C1143  O1283   1.279   .     A
C1143  C1209   1.452   .     S
C1143  O1305   1.275   .     A
C1144  O1306   1.275   .     A
C1144  C1210   1.452   .     S
C1144  O1284   1.279   .     A
C1145  O1311   1.280   .     A
C1145  O1285   1.276   .     A
C1145  C1211   1.452   .     S
C1146  O1286   1.278   .     A
C1146  C1212   1.452   .     S
C1146  O1312   1.278   .     A
C1147  O1309   1.278   .     A
C1147  O1287   1.274   .     A
C1147  C1205   1.452   .     S
C1148  O1310   1.278   .     A
C1148  O1288   1.274   .     A
C1148  C1206   1.452   .     S
C1149  C1215   1.452   .     S
C1149  O1289   1.275   .     A
C1149  O1299   1.279   .     A
C1150  O1300   1.279   .     A
C1150  O1290   1.275   .     A
C1150  C1216   1.452   .     S
C1151  O1297   1.275   .     A
C1151  C1217   1.452   .     S
C1151  O1291   1.276   .     A
C1152  O1292   1.274   .     A
C1152  O1298   1.278   .     A
C1152  C1218   1.451   .     S
C1153  C1219   1.452   .     S
C1153  O1303   1.274   .     A
C1153  O1293   1.278   .     A
C1154  O1304   1.274   .     A
C1154  O1294   1.278   .     A
C1154  C1220   1.452   .     S
C1155  O1295   1.278   .     A
C1155  O1301   1.278   .     A
C1155  C1213   1.451   .     S
C1156  O1296   1.280   .     A
C1156  O1302   1.276   .     A
C1156  C1214   1.452   .     S
C1157  C1220   1.412   .     A
C1157  C1172   1.406   .     A
C1157  C1329   1.492   .     S
C1158  C1171   1.406   .     A
C1158  C1333   1.492   .     S
C1158  C1219   1.412   .     A
C1159  C1337   1.490   .     S
C1159  C1218   1.412   .     A
C1159  C1170   1.406   .     A
C1160  C1341   1.487   .     S
C1160  C1169   1.406   .     A
C1160  C1217   1.410   .     A
C1161  C1168   1.407   .     A
C1161  C1216   1.413   .     A
C1161  C1345   1.491   .     S
C1162  C1349   1.491   .     S
C1162  C1167   1.407   .     A
C1162  C1215   1.413   .     A
C1163  C1214   1.413   .     A
C1163  C1166   1.408   .     A
C1163  C1353   1.492   .     S
C1164  C1165   1.408   .     A
C1164  C1213   1.411   .     A
C1164  C1357   1.492   .     S
C1165  C1212   1.413   .     A
C1165  C1361   1.492   .     S
C1166  C1365   1.491   .     S
C1166  C1211   1.411   .     A
C1167  C1369   1.492   .     S
C1167  C1210   1.412   .     A
C1168  C1373   1.492   .     S
C1168  C1209   1.412   .     A
C1169  C1377   1.487   .     S
C1169  C1208   1.410   .     A
C1170  C1207   1.412   .     A
C1170  C1381   1.492   .     S
C1171  C1385   1.491   .     S
C1171  C1206   1.413   .     A
C1172  C1389   1.491   .     S
C1172  C1205   1.413   .     A
C1173  C1393   1.492   .     S
C1173  C1206   1.412   .     A
C1173  C1188   1.407   .     A
C1174  C1397   1.492   .     S
C1174  C1187   1.406   .     A
C1174  C1205   1.412   .     A
C1175  C1186   1.406   .     A
C1175  C1401   1.487   .     S
C1175  C1208   1.410   .     A
C1176  C1185   1.406   .     A
C1176  C1405   1.490   .     S
C1176  C1207   1.412   .     A
C1177  C1409   1.491   .     S
C1177  C1184   1.407   .     A
C1177  C1210   1.413   .     A
C1178  C1209   1.413   .     A
C1178  C1413   1.491   .     S
C1178  C1183   1.407   .     A
C1179  C1417   1.492   .     S
C1179  C1182   1.408   .     A
C1179  C1212   1.413   .     A
C1180  C1211   1.413   .     A
C1180  C1181   1.408   .     A
C1180  C1421   1.492   .     S
C1181  C1214   1.411   .     A
C1181  C1425   1.491   .     S
C1182  C1213   1.411   .     A
C1182  C1429   1.492   .     S
C1183  C1433   1.492   .     S
C1183  C1216   1.412   .     A
C1184  C1215   1.412   .     A
C1184  C1437   1.492   .     S
C1185  C1218   1.412   .     A
C1185  C1441   1.492   .     S
C1186  C1217   1.410   .     A
C1186  C1445   1.487   .     S
C1187  C1220   1.413   .     A
C1187  C1449   1.491   .     S
C1188  C1219   1.413   .     A
C1188  C1453   1.491   .     S
C1189  C1221   1.411   .     A
C1190  C1222   1.411   .     A
C1191  C495    1.411   1_565 S
C1193  C857    1.411   1_655 S
C1195  C1223   1.411   .     A
C1196  C1224   1.411   .     A
C1197  C1225   1.411   .     A
C1198  C1226   1.411   .     S
C1199  C863    1.411   1_655 S
C1200  C1228   1.411   .     A
C1201  C497    1.411   1_565 S
C1202  C1226   1.411   .     A
C1203  C1227   1.411   .     A
C1204  C864    1.411   1_655 S
C1222  C830    1.411   1_655 S
C1222  C857    1.404   1_655 S
C1224  C464    1.411   1_565 S
C1224  C495    1.404   1_565 S
C1225  C1226   1.404   1_556 S
C1226  C1225   1.404   1_554 S
C1227  C1228   1.404   1_556 S
C1228  C1227   1.404   1_554 S
H1258  C378    1.084   1_565 S
O1261  Zn1317  1.947   .     S
O1261  Zn1324  1.944   .     S
O1261  Zn1313  1.941   .     S
O1262  Zn1318  1.947   .     S
O1262  Zn1327  1.946   .     S
O1262  Zn1314  1.941   .     S
O1263  Zn1322  1.941   .     S
O1263  Zn1315  1.944   .     S
O1263  Zn1319  1.946   .     S
O1264  Zn1325  1.947   .     S
O1264  Zn1316  1.944   .     S
O1264  Zn1320  1.946   .     S
O1265  Zn1328  1.951   .     S
O1265  C405    1.279   1_565 S
O1266  Zn1327  1.951   .     S
O1267  Zn1322  1.953   .     S
O1268  Zn1321  1.953   .     S
O1269  Zn1324  1.952   .     S
O1270  Zn1323  1.952   .     S
O1271  Zn1326  1.950   .     S
O1271  C771    1.278   1_655 S
O1272  Zn1325  1.950   .     S
O1273  Zn1320  1.951   .     S
O1274  Zn1319  1.951   .     S
O1275  Zn1314  1.953   .     S
O1276  Zn1313  1.953   .     S
O1277  Zn1316  1.952   .     S
O1278  Zn1315  1.952   .     S
O1279  Zn1318  1.950   .     S
O1280  Zn1317  1.950   .     S
O1281  Zn1324  1.928   .     S
O1282  Zn1323  1.928   .     S
O1283  Zn1326  1.930   .     S
O1284  Zn1325  1.930   .     S
O1285  Zn1328  1.930   .     S
O1286  Zn1327  1.930   .     S
O1287  Zn1322  1.931   .     S
O1288  Zn1321  1.931   .     S
O1289  Zn1323  1.931   .     S
O1290  Zn1324  1.931   .     S
O1291  Zn1321  1.930   .     S
O1292  Zn1322  1.930   .     S
O1293  Zn1327  1.929   .     S
O1294  Zn1328  1.929   .     S
O1295  Zn1325  1.929   .     S
O1296  Zn1326  1.929   .     S
O1297  Zn952   1.928   1_655 S
O1298  Zn1315  1.928   .     S
O1299  Zn590   1.930   1_565 S
O1300  Zn1317  1.930   .     S
O1301  Zn1320  1.930   .     S
O1302  Zn955   1.930   1_655 S
O1303  Zn1314  1.931   .     S
O1304  Zn585   1.931   1_565 S
O1305  Zn951   1.931   1_655 S
O1306  Zn1316  1.931   .     S
O1307  Zn1313  1.930   .     S
O1308  Zn586   1.930   1_565 S
O1309  Zn1319  1.929   .     S
O1310  Zn956   1.929   1_655 S
O1311  Zn589   1.929   1_565 S
O1312  Zn1318  1.929   .     S
Zn1321 O900    1.941   1_655 S
Zn1323 O534    1.944   1_565 S
Zn1326 O899    1.947   1_655 S
Zn1328 O533    1.946   1_565 S
C1329  O1330   1.223   .     D
C1329  O1331   1.398   .     S
O1331  H1332   1.014   .     S
C1333  O1335   1.398   .     S
C1333  O1334   1.223   .     D
O1335  H1336   1.014   .     S
C1337  O1338   1.223   .     D
C1337  O1339   1.398   .     S
O1339  H1340   1.014   .     S
C1341  O1342   1.222   .     D
C1341  O1343   1.398   .     S
O1343  H1344   1.014   .     S
C1345  O1346   1.223   .     D
C1345  O1347   1.399   .     S
O1347  H1348   1.014   .     S
C1349  O1350   1.223   .     D
C1349  O1351   1.399   .     S
O1351  H1352   1.014   .     S
C1353  O1354   1.223   .     D
C1353  O1355   1.398   .     S
O1355  H1356   1.014   .     S
C1357  O1359   1.399   .     S
C1357  O1358   1.223   .     D
O1359  H1360   1.013   .     S
C1361  O1362   1.223   .     D
C1361  O1363   1.398   .     S
O1363  H1364   1.014   .     S
C1365  O1367   1.399   .     S
C1365  O1366   1.223   .     D
O1367  H1368   1.013   .     S
C1369  O1371   1.398   .     S
C1369  O1370   1.223   .     D
O1371  H1372   1.014   .     S
C1373  O1375   1.398   .     S
C1373  O1374   1.223   .     D
O1375  H1376   1.014   .     S
C1377  O1379   1.398   .     S
C1377  O1378   1.222   .     D
O1379  H1380   1.014   .     S
C1381  O1382   1.223   .     D
C1381  O1383   1.398   .     S
O1383  H1384   1.014   .     S
C1385  O1386   1.223   .     D
C1385  O1387   1.399   .     S
O1387  H1388   1.014   .     S
C1389  O1391   1.398   .     S
C1389  O1390   1.223   .     D
O1391  H1392   1.014   .     S
C1393  O1394   1.223   .     D
C1393  O1395   1.398   .     S
O1395  H1396   1.014   .     S
C1397  O1399   1.398   .     S
C1397  O1398   1.223   .     D
O1399  H1400   1.014   .     S
C1401  O1402   1.222   .     D
C1401  O1403   1.398   .     S
O1403  H1404   1.014   .     S
C1405  O1407   1.398   .     S
C1405  O1406   1.223   .     D
O1407  H1408   1.014   .     S
C1409  O1411   1.399   .     S
C1409  O1410   1.223   .     D
O1411  H1412   1.014   .     S
C1413  O1414   1.223   .     D
C1413  O1415   1.399   .     S
O1415  H1416   1.014   .     S
C1417  O1419   1.398   .     S
C1417  O1418   1.223   .     D
O1419  H1420   1.014   .     S
C1421  O1423   1.398   .     S
C1421  O1422   1.223   .     D
O1423  H1424   1.014   .     S
C1425  O1426   1.223   .     D
C1425  O1427   1.399   .     S
O1427  H1428   1.013   .     S
C1429  O1430   1.223   .     D
C1429  O1431   1.399   .     S
O1431  H1432   1.013   .     S
C1433  O1435   1.398   .     S
C1433  O1434   1.223   .     D
O1435  H1436   1.014   .     S
C1437  O1439   1.398   .     S
C1437  O1438   1.223   .     D
O1439  H1440   1.014   .     S
C1441  O1442   1.223   .     D
C1441  O1443   1.398   .     S
O1443  H1444   1.014   .     S
C1445  O1447   1.398   .     S
C1445  O1446   1.222   .     D
O1447  H1448   1.014   .     S
C1449  O1450   1.223   .     D
C1449  O1451   1.398   .     S
O1451  H1452   1.014   .     S
C1453  O1455   1.398   .     S
C1453  O1454   1.223   .     D
O1455  H1456   1.014   .     S
