data_str_m1_o10_o18_pcu_sym.203
_audit_creation_date              2020-01-03
_audit_creation_method            'Materials Studio'
_symmetry_space_group_name_H-M    'P1'
_symmetry_Int_Tables_number       1
_symmetry_cell_setting            triclinic
loop_
_symmetry_equiv_pos_as_xyz
  x,y,z
_cell_length_a                    32.5929
_cell_length_b                    32.5649
_cell_length_c                    35.7432
_cell_angle_alpha                 98.2811
_cell_angle_beta                  72.6352
_cell_angle_gamma                 98.8764
loop_
_atom_site_label
_atom_site_type_symbol
_atom_site_fract_x
_atom_site_fract_y
_atom_site_fract_z
_atom_site_U_iso_or_equiv
_atom_site_adp_type
_atom_site_occupancy
C1     C     0.05239   0.15969   0.25908   0.00000  Uiso   1.00
C2     C     0.20349   0.13660   0.45835   0.00000  Uiso   1.00
C3     C     0.22075   0.11400   0.47891   0.00000  Uiso   1.00
C4     C     0.28126   0.17364   0.24096   0.00000  Uiso   1.00
C5     C     0.21407   0.12340   0.01941   0.00000  Uiso   1.00
C6     C     0.19052   0.15700   0.03980   0.00000  Uiso   1.00
C7     C     0.23054   0.09923   0.03972   0.00000  Uiso   1.00
C8     C     0.22297   0.10727   0.08031   0.00000  Uiso   1.00
C9     C     0.17847   0.16127   0.08174   0.00000  Uiso   1.00
C10    C     0.32786   0.17636   0.23678   0.00000  Uiso   1.00
C11    C     0.00714   0.15788   0.26193   0.00000  Uiso   1.00
C12    C     0.12783   0.24260   0.41616   0.00000  Uiso   1.00
C13    C     0.18155   0.32226   0.23750   0.00000  Uiso   1.00
C14    C     0.15183   0.01208   0.26163   0.00000  Uiso   1.00
C15    C     0.15530   0.05627   0.25935   0.00000  Uiso   1.00
C16    C     0.17700   0.27775   0.24121   0.00000  Uiso   1.00
C17    C     0.18851   0.14507   0.14400   0.00000  Uiso   1.00
C18    C     0.14625   0.18889   0.35613   0.00000  Uiso   1.00
C19    C     0.14302   0.20404   0.39808   0.00000  Uiso   1.00
C20    C     0.19669   0.13775   0.10133   0.00000  Uiso   1.00
C21    C     0.12986   0.25739   0.45472   0.00000  Uiso   1.00
C22    C     0.21818   0.00705   0.20775   0.00000  Uiso   1.00
C23    C     0.15866   0.18047   0.41929   0.00000  Uiso   1.00
C24    C     0.14314   0.18443   0.10531   0.00000  Uiso   1.00
C25    C     0.11153   0.29589   0.47284   0.00000  Uiso   1.00
C26    C     0.11088   0.26809   0.39535   0.00000  Uiso   1.00
C27    C     0.16326   0.19529   0.45698   0.00000  Uiso   1.00
C28    C     0.14883   0.23453   0.47508   0.00000  Uiso   1.00
C29    C     0.18141   0.17146   0.47723   0.00000  Uiso   1.00
C30    C     0.17913   0.18395   0.01734   0.00000  Uiso   1.00
C31    C     0.16975   0.22462   0.03280   0.00000  Uiso   1.00
C32    C     0.15478   0.25000   0.01252   0.00000  Uiso   1.00
H33    H     0.24951   0.07423   0.02414   0.00000  Uiso   1.00
H34    H     0.01075   0.20873   0.19169   0.00000  Uiso   1.00
H35    H     0.31747   0.14139   0.28530   0.00000  Uiso   1.00
H36    H     0.12427   0.33182   0.28371   0.00000  Uiso   1.00
H37    H     0.23665   0.08890   0.09554   0.00000  Uiso   1.00
H38    H     0.23867   0.08836   0.46309   0.00000  Uiso   1.00
H39    H     0.16668   0.14992   0.40565   0.00000  Uiso   1.00
H40    H     0.17647   0.23817   0.06006   0.00000  Uiso   1.00
H41    H     0.21027   0.12739   0.42713   0.00000  Uiso   1.00
H42    H     0.15216   0.29565   0.05507   0.00000  Uiso   1.00
N43    N     0.24735   0.02151   0.18405   0.00000  Uiso   1.00
N44    N     0.11491   0.20270   0.12424   0.00000  Uiso   1.00
N45    N     0.09683   0.32655   0.48707   0.00000  Uiso   1.00
N46    N     0.09737   0.28851   0.37889   0.00000  Uiso   1.00
O47    O     0.16667   0.16667   0.25000   0.00000  Uiso   1.00
O48    O     0.15693   0.12393   0.16625   0.00000  Uiso   1.00
O49    O     0.12687   0.20646   0.33749   0.00000  Uiso   1.00
O50    O     0.21088   0.17493   0.15877   0.00000  Uiso   1.00
O51    O     0.17198   0.16135   0.33749   0.00000  Uiso   1.00
O52    O     0.14692   0.29022   0.02876   0.00000  Uiso   1.00
O53    O     0.02542   0.19727   0.20779   0.00000  Uiso   1.00
O54    O     0.17849   0.08101   0.27820   0.00000  Uiso   1.00
O55    O     0.14581   0.26136   0.26767   0.00000  Uiso   1.00
O56    O     0.07452   0.13251   0.23607   0.00000  Uiso   1.00
O57    O     0.26785   0.19179   0.21805   0.00000  Uiso   1.00
O58    O     0.06990   0.18960   0.27820   0.00000  Uiso   1.00
O59    O     0.25440   0.15277   0.26767   0.00000  Uiso   1.00
O60    O     0.13800   0.06903   0.23607   0.00000  Uiso   1.00
O61    O     0.20437   0.25527   0.21805   0.00000  Uiso   1.00
Zn62   Zn    0.19244   0.14090   0.28277   0.00000  Uiso   1.00
Zn63   Zn    0.13459   0.12378   0.22257   0.00000  Uiso   1.00
Zn64   Zn    0.21166   0.19664   0.21188   0.00000  Uiso   1.00
Zn65   Zn    0.12798   0.20535   0.28277   0.00000  Uiso   1.00
C66    C     0.38573   0.15969   0.25908   0.00000  Uiso   1.00
C67    C     0.53682   0.13660   0.45835   0.00000  Uiso   1.00
C68    C     0.55409   0.11400   0.47891   0.00000  Uiso   1.00
C69    C     0.61459   0.17364   0.24096   0.00000  Uiso   1.00
C70    C     0.54741   0.12340   0.01941   0.00000  Uiso   1.00
C71    C     0.52385   0.15700   0.03980   0.00000  Uiso   1.00
C72    C     0.56387   0.09923   0.03972   0.00000  Uiso   1.00
C73    C     0.55631   0.10727   0.08031   0.00000  Uiso   1.00
C74    C     0.51180   0.16127   0.08174   0.00000  Uiso   1.00
C75    C     0.66119   0.17636   0.23678   0.00000  Uiso   1.00
C76    C     0.34047   0.15788   0.26193   0.00000  Uiso   1.00
C77    C     0.46117   0.24260   0.41616   0.00000  Uiso   1.00
C78    C     0.51488   0.32226   0.23750   0.00000  Uiso   1.00
C79    C     0.48516   0.01208   0.26163   0.00000  Uiso   1.00
C80    C     0.48863   0.05627   0.25935   0.00000  Uiso   1.00
C81    C     0.51034   0.27775   0.24121   0.00000  Uiso   1.00
C82    C     0.52184   0.14507   0.14400   0.00000  Uiso   1.00
C83    C     0.47958   0.18889   0.35613   0.00000  Uiso   1.00
C84    C     0.47635   0.20404   0.39808   0.00000  Uiso   1.00
C85    C     0.53002   0.13775   0.10133   0.00000  Uiso   1.00
C86    C     0.46320   0.25739   0.45472   0.00000  Uiso   1.00
C87    C     0.55151   0.00705   0.20775   0.00000  Uiso   1.00
C88    C     0.49200   0.18047   0.41929   0.00000  Uiso   1.00
C89    C     0.47647   0.18443   0.10531   0.00000  Uiso   1.00
C90    C     0.44486   0.29589   0.47284   0.00000  Uiso   1.00
C91    C     0.44422   0.26809   0.39535   0.00000  Uiso   1.00
C92    C     0.49659   0.19529   0.45698   0.00000  Uiso   1.00
C93    C     0.48217   0.23453   0.47508   0.00000  Uiso   1.00
C94    C     0.51474   0.17146   0.47723   0.00000  Uiso   1.00
C95    C     0.51246   0.18395   0.01734   0.00000  Uiso   1.00
C96    C     0.50308   0.22462   0.03280   0.00000  Uiso   1.00
C97    C     0.48812   0.25000   0.01252   0.00000  Uiso   1.00
H98    H     0.58284   0.07423   0.02414   0.00000  Uiso   1.00
H99    H     0.34409   0.20873   0.19169   0.00000  Uiso   1.00
H100   H     0.65080   0.14139   0.28530   0.00000  Uiso   1.00
H101   H     0.45760   0.33182   0.28371   0.00000  Uiso   1.00
H102   H     0.56998   0.08890   0.09554   0.00000  Uiso   1.00
H103   H     0.57200   0.08836   0.46309   0.00000  Uiso   1.00
H104   H     0.50001   0.14992   0.40565   0.00000  Uiso   1.00
H105   H     0.50980   0.23817   0.06006   0.00000  Uiso   1.00
H106   H     0.54360   0.12739   0.42713   0.00000  Uiso   1.00
H107   H     0.48550   0.29565   0.05507   0.00000  Uiso   1.00
N108   N     0.58069   0.02151   0.18405   0.00000  Uiso   1.00
N109   N     0.44824   0.20270   0.12424   0.00000  Uiso   1.00
N110   N     0.43016   0.32655   0.48707   0.00000  Uiso   1.00
N111   N     0.43071   0.28851   0.37889   0.00000  Uiso   1.00
O112   O     0.50000   0.16667   0.25000   0.00000  Uiso   1.00
O113   O     0.49027   0.12393   0.16625   0.00000  Uiso   1.00
O114   O     0.46020   0.20646   0.33749   0.00000  Uiso   1.00
O115   O     0.54421   0.17493   0.15877   0.00000  Uiso   1.00
O116   O     0.50532   0.16135   0.33749   0.00000  Uiso   1.00
O117   O     0.48026   0.29022   0.02876   0.00000  Uiso   1.00
O118   O     0.35875   0.19727   0.20779   0.00000  Uiso   1.00
O119   O     0.51182   0.08101   0.27820   0.00000  Uiso   1.00
O120   O     0.47914   0.26136   0.26767   0.00000  Uiso   1.00
O121   O     0.40785   0.13251   0.23607   0.00000  Uiso   1.00
O122   O     0.60119   0.19179   0.21805   0.00000  Uiso   1.00
O123   O     0.40323   0.18960   0.27820   0.00000  Uiso   1.00
O124   O     0.58773   0.15277   0.26767   0.00000  Uiso   1.00
O125   O     0.47133   0.06903   0.23607   0.00000  Uiso   1.00
O126   O     0.53771   0.25527   0.21805   0.00000  Uiso   1.00
Zn127  Zn    0.52577   0.14090   0.28277   0.00000  Uiso   1.00
Zn128  Zn    0.46792   0.12378   0.22257   0.00000  Uiso   1.00
Zn129  Zn    0.54500   0.19664   0.21188   0.00000  Uiso   1.00
Zn130  Zn    0.46131   0.20535   0.28277   0.00000  Uiso   1.00
C131   C     0.71906   0.15969   0.25908   0.00000  Uiso   1.00
C132   C     0.87016   0.13660   0.45835   0.00000  Uiso   1.00
C133   C     0.88742   0.11400   0.47891   0.00000  Uiso   1.00
C134   C     0.94793   0.17364   0.24096   0.00000  Uiso   1.00
C135   C     0.88074   0.12340   0.01941   0.00000  Uiso   1.00
C136   C     0.85718   0.15700   0.03980   0.00000  Uiso   1.00
C137   C     0.89721   0.09923   0.03972   0.00000  Uiso   1.00
C138   C     0.88964   0.10727   0.08031   0.00000  Uiso   1.00
C139   C     0.84514   0.16127   0.08174   0.00000  Uiso   1.00
C140   C     0.99452   0.17636   0.23678   0.00000  Uiso   1.00
C141   C     0.67380   0.15788   0.26193   0.00000  Uiso   1.00
C142   C     0.79450   0.24260   0.41616   0.00000  Uiso   1.00
C143   C     0.84821   0.32226   0.23750   0.00000  Uiso   1.00
C144   C     0.81849   0.01208   0.26163   0.00000  Uiso   1.00
C145   C     0.82196   0.05627   0.25935   0.00000  Uiso   1.00
C146   C     0.84367   0.27775   0.24121   0.00000  Uiso   1.00
C147   C     0.85518   0.14507   0.14400   0.00000  Uiso   1.00
C148   C     0.81291   0.18889   0.35613   0.00000  Uiso   1.00
C149   C     0.80969   0.20404   0.39808   0.00000  Uiso   1.00
C150   C     0.86335   0.13775   0.10133   0.00000  Uiso   1.00
C151   C     0.79653   0.25739   0.45472   0.00000  Uiso   1.00
C152   C     0.88485   0.00705   0.20775   0.00000  Uiso   1.00
C153   C     0.82533   0.18047   0.41929   0.00000  Uiso   1.00
C154   C     0.80980   0.18443   0.10531   0.00000  Uiso   1.00
C155   C     0.77819   0.29589   0.47284   0.00000  Uiso   1.00
C156   C     0.77755   0.26809   0.39535   0.00000  Uiso   1.00
C157   C     0.82992   0.19529   0.45698   0.00000  Uiso   1.00
C158   C     0.81550   0.23453   0.47508   0.00000  Uiso   1.00
C159   C     0.84807   0.17146   0.47723   0.00000  Uiso   1.00
C160   C     0.84580   0.18395   0.01734   0.00000  Uiso   1.00
C161   C     0.83642   0.22462   0.03280   0.00000  Uiso   1.00
C162   C     0.82145   0.25000   0.01252   0.00000  Uiso   1.00
H163   H     0.91618   0.07423   0.02414   0.00000  Uiso   1.00
H164   H     0.67742   0.20873   0.19169   0.00000  Uiso   1.00
H165   H     0.98414   0.14139   0.28530   0.00000  Uiso   1.00
H166   H     0.79094   0.33182   0.28371   0.00000  Uiso   1.00
H167   H     0.90332   0.08890   0.09554   0.00000  Uiso   1.00
H168   H     0.90533   0.08836   0.46309   0.00000  Uiso   1.00
H169   H     0.83335   0.14992   0.40565   0.00000  Uiso   1.00
H170   H     0.84313   0.23817   0.06006   0.00000  Uiso   1.00
H171   H     0.87693   0.12739   0.42713   0.00000  Uiso   1.00
H172   H     0.81883   0.29565   0.05507   0.00000  Uiso   1.00
N173   N     0.91402   0.02151   0.18405   0.00000  Uiso   1.00
N174   N     0.78157   0.20270   0.12424   0.00000  Uiso   1.00
N175   N     0.76350   0.32655   0.48707   0.00000  Uiso   1.00
N176   N     0.76404   0.28851   0.37889   0.00000  Uiso   1.00
O177   O     0.83333   0.16667   0.25000   0.00000  Uiso   1.00
O178   O     0.82360   0.12393   0.16625   0.00000  Uiso   1.00
O179   O     0.79354   0.20646   0.33749   0.00000  Uiso   1.00
O180   O     0.87755   0.17493   0.15877   0.00000  Uiso   1.00
O181   O     0.83865   0.16135   0.33749   0.00000  Uiso   1.00
O182   O     0.81359   0.29022   0.02876   0.00000  Uiso   1.00
O183   O     0.69208   0.19727   0.20779   0.00000  Uiso   1.00
O184   O     0.84515   0.08101   0.27820   0.00000  Uiso   1.00
O185   O     0.81247   0.26136   0.26767   0.00000  Uiso   1.00
O186   O     0.74119   0.13251   0.23607   0.00000  Uiso   1.00
O187   O     0.93452   0.19179   0.21805   0.00000  Uiso   1.00
O188   O     0.73656   0.18960   0.27820   0.00000  Uiso   1.00
O189   O     0.92106   0.15277   0.26767   0.00000  Uiso   1.00
O190   O     0.80467   0.06903   0.23607   0.00000  Uiso   1.00
O191   O     0.87104   0.25527   0.21805   0.00000  Uiso   1.00
Zn192  Zn    0.85910   0.14090   0.28277   0.00000  Uiso   1.00
Zn193  Zn    0.80125   0.12378   0.22257   0.00000  Uiso   1.00
Zn194  Zn    0.87833   0.19664   0.21188   0.00000  Uiso   1.00
Zn195  Zn    0.79465   0.20535   0.28277   0.00000  Uiso   1.00
C196   C     0.05239   0.49302   0.25908   0.00000  Uiso   1.00
C197   C     0.20349   0.46994   0.45835   0.00000  Uiso   1.00
C198   C     0.22075   0.44734   0.47891   0.00000  Uiso   1.00
C199   C     0.28126   0.50698   0.24096   0.00000  Uiso   1.00
C200   C     0.21407   0.45673   0.01941   0.00000  Uiso   1.00
C201   C     0.19052   0.49034   0.03980   0.00000  Uiso   1.00
C202   C     0.23054   0.43257   0.03972   0.00000  Uiso   1.00
C203   C     0.22297   0.44060   0.08031   0.00000  Uiso   1.00
C204   C     0.17847   0.49461   0.08174   0.00000  Uiso   1.00
C205   C     0.32786   0.50969   0.23678   0.00000  Uiso   1.00
C206   C     0.00714   0.49122   0.26193   0.00000  Uiso   1.00
C207   C     0.12783   0.57593   0.41616   0.00000  Uiso   1.00
C208   C     0.18155   0.65560   0.23750   0.00000  Uiso   1.00
C209   C     0.15183   0.34541   0.26163   0.00000  Uiso   1.00
C210   C     0.15530   0.38960   0.25935   0.00000  Uiso   1.00
C211   C     0.17700   0.61108   0.24121   0.00000  Uiso   1.00
C212   C     0.18851   0.47841   0.14400   0.00000  Uiso   1.00
C213   C     0.14625   0.52222   0.35613   0.00000  Uiso   1.00
C214   C     0.14302   0.53737   0.39808   0.00000  Uiso   1.00
C215   C     0.19669   0.47108   0.10133   0.00000  Uiso   1.00
C216   C     0.12986   0.59072   0.45472   0.00000  Uiso   1.00
C217   C     0.21818   0.34038   0.20775   0.00000  Uiso   1.00
C218   C     0.15866   0.51381   0.41929   0.00000  Uiso   1.00
C219   C     0.14314   0.51776   0.10531   0.00000  Uiso   1.00
C220   C     0.11153   0.62923   0.47284   0.00000  Uiso   1.00
C221   C     0.11088   0.60142   0.39535   0.00000  Uiso   1.00
C222   C     0.16326   0.52862   0.45698   0.00000  Uiso   1.00
C223   C     0.14883   0.56787   0.47508   0.00000  Uiso   1.00
C224   C     0.18141   0.50479   0.47723   0.00000  Uiso   1.00
C225   C     0.17913   0.51729   0.01734   0.00000  Uiso   1.00
C226   C     0.16975   0.55795   0.03280   0.00000  Uiso   1.00
C227   C     0.15478   0.58333   0.01252   0.00000  Uiso   1.00
H228   H     0.24951   0.40757   0.02414   0.00000  Uiso   1.00
H229   H     0.01075   0.54206   0.19169   0.00000  Uiso   1.00
H230   H     0.31747   0.47472   0.28530   0.00000  Uiso   1.00
H231   H     0.12427   0.66515   0.28371   0.00000  Uiso   1.00
H232   H     0.23665   0.42223   0.09554   0.00000  Uiso   1.00
H233   H     0.23867   0.42169   0.46309   0.00000  Uiso   1.00
H234   H     0.16668   0.48325   0.40565   0.00000  Uiso   1.00
H235   H     0.17647   0.57150   0.06006   0.00000  Uiso   1.00
H236   H     0.21027   0.46073   0.42713   0.00000  Uiso   1.00
H237   H     0.15216   0.62898   0.05507   0.00000  Uiso   1.00
N238   N     0.24735   0.35484   0.18405   0.00000  Uiso   1.00
N239   N     0.11491   0.53603   0.12424   0.00000  Uiso   1.00
N240   N     0.09683   0.65988   0.48707   0.00000  Uiso   1.00
N241   N     0.09737   0.62185   0.37889   0.00000  Uiso   1.00
O242   O     0.16667   0.50000   0.25000   0.00000  Uiso   1.00
O243   O     0.15693   0.45726   0.16625   0.00000  Uiso   1.00
O244   O     0.12687   0.53979   0.33749   0.00000  Uiso   1.00
O245   O     0.21088   0.50826   0.15877   0.00000  Uiso   1.00
O246   O     0.17198   0.49468   0.33749   0.00000  Uiso   1.00
O247   O     0.14692   0.62355   0.02876   0.00000  Uiso   1.00
O248   O     0.02542   0.53061   0.20779   0.00000  Uiso   1.00
O249   O     0.17849   0.41434   0.27820   0.00000  Uiso   1.00
O250   O     0.14581   0.59469   0.26767   0.00000  Uiso   1.00
O251   O     0.07452   0.46584   0.23607   0.00000  Uiso   1.00
O252   O     0.26785   0.52512   0.21805   0.00000  Uiso   1.00
O253   O     0.06990   0.52293   0.27820   0.00000  Uiso   1.00
O254   O     0.25440   0.48610   0.26767   0.00000  Uiso   1.00
O255   O     0.13800   0.40236   0.23607   0.00000  Uiso   1.00
O256   O     0.20437   0.58860   0.21805   0.00000  Uiso   1.00
Zn257  Zn    0.19244   0.47423   0.28277   0.00000  Uiso   1.00
Zn258  Zn    0.13459   0.45711   0.22257   0.00000  Uiso   1.00
Zn259  Zn    0.21166   0.52997   0.21188   0.00000  Uiso   1.00
Zn260  Zn    0.12798   0.53868   0.28277   0.00000  Uiso   1.00
C261   C     0.38573   0.49302   0.25908   0.00000  Uiso   1.00
C262   C     0.53682   0.46994   0.45835   0.00000  Uiso   1.00
C263   C     0.55409   0.44734   0.47891   0.00000  Uiso   1.00
C264   C     0.61459   0.50698   0.24096   0.00000  Uiso   1.00
C265   C     0.54741   0.45673   0.01941   0.00000  Uiso   1.00
C266   C     0.52385   0.49034   0.03980   0.00000  Uiso   1.00
C267   C     0.56387   0.43257   0.03972   0.00000  Uiso   1.00
C268   C     0.55631   0.44060   0.08031   0.00000  Uiso   1.00
C269   C     0.51180   0.49461   0.08174   0.00000  Uiso   1.00
C270   C     0.66119   0.50969   0.23678   0.00000  Uiso   1.00
C271   C     0.34047   0.49122   0.26193   0.00000  Uiso   1.00
C272   C     0.46117   0.57593   0.41616   0.00000  Uiso   1.00
C273   C     0.51488   0.65560   0.23750   0.00000  Uiso   1.00
C274   C     0.48516   0.34541   0.26163   0.00000  Uiso   1.00
C275   C     0.48863   0.38960   0.25935   0.00000  Uiso   1.00
C276   C     0.51034   0.61108   0.24121   0.00000  Uiso   1.00
C277   C     0.52184   0.47841   0.14400   0.00000  Uiso   1.00
C278   C     0.47958   0.52222   0.35613   0.00000  Uiso   1.00
C279   C     0.47635   0.53737   0.39808   0.00000  Uiso   1.00
C280   C     0.53002   0.47108   0.10133   0.00000  Uiso   1.00
C281   C     0.46320   0.59072   0.45472   0.00000  Uiso   1.00
C282   C     0.55151   0.34038   0.20775   0.00000  Uiso   1.00
C283   C     0.49200   0.51381   0.41929   0.00000  Uiso   1.00
C284   C     0.47647   0.51776   0.10531   0.00000  Uiso   1.00
C285   C     0.44486   0.62923   0.47284   0.00000  Uiso   1.00
C286   C     0.44422   0.60142   0.39535   0.00000  Uiso   1.00
C287   C     0.49659   0.52862   0.45698   0.00000  Uiso   1.00
C288   C     0.48217   0.56787   0.47508   0.00000  Uiso   1.00
C289   C     0.51474   0.50479   0.47723   0.00000  Uiso   1.00
C290   C     0.51246   0.51729   0.01734   0.00000  Uiso   1.00
C291   C     0.50308   0.55795   0.03280   0.00000  Uiso   1.00
C292   C     0.48812   0.58333   0.01252   0.00000  Uiso   1.00
H293   H     0.58284   0.40757   0.02414   0.00000  Uiso   1.00
H294   H     0.34409   0.54206   0.19169   0.00000  Uiso   1.00
H295   H     0.65080   0.47472   0.28530   0.00000  Uiso   1.00
H296   H     0.45760   0.66515   0.28371   0.00000  Uiso   1.00
H297   H     0.56998   0.42223   0.09554   0.00000  Uiso   1.00
H298   H     0.57200   0.42169   0.46309   0.00000  Uiso   1.00
H299   H     0.50001   0.48325   0.40565   0.00000  Uiso   1.00
H300   H     0.50980   0.57150   0.06006   0.00000  Uiso   1.00
H301   H     0.54360   0.46073   0.42713   0.00000  Uiso   1.00
H302   H     0.48550   0.62898   0.05507   0.00000  Uiso   1.00
N303   N     0.58069   0.35484   0.18405   0.00000  Uiso   1.00
N304   N     0.44824   0.53603   0.12424   0.00000  Uiso   1.00
N305   N     0.43016   0.65988   0.48707   0.00000  Uiso   1.00
N306   N     0.43071   0.62185   0.37889   0.00000  Uiso   1.00
O307   O     0.50000   0.50000   0.25000   0.00000  Uiso   1.00
O308   O     0.49027   0.45726   0.16625   0.00000  Uiso   1.00
O309   O     0.46020   0.53979   0.33749   0.00000  Uiso   1.00
O310   O     0.54421   0.50826   0.15877   0.00000  Uiso   1.00
O311   O     0.50532   0.49468   0.33749   0.00000  Uiso   1.00
O312   O     0.48026   0.62355   0.02876   0.00000  Uiso   1.00
O313   O     0.35875   0.53061   0.20779   0.00000  Uiso   1.00
O314   O     0.51182   0.41434   0.27820   0.00000  Uiso   1.00
O315   O     0.47914   0.59469   0.26767   0.00000  Uiso   1.00
O316   O     0.40785   0.46584   0.23607   0.00000  Uiso   1.00
O317   O     0.60119   0.52512   0.21805   0.00000  Uiso   1.00
O318   O     0.40323   0.52293   0.27820   0.00000  Uiso   1.00
O319   O     0.58773   0.48610   0.26767   0.00000  Uiso   1.00
O320   O     0.47133   0.40236   0.23607   0.00000  Uiso   1.00
O321   O     0.53771   0.58860   0.21805   0.00000  Uiso   1.00
Zn322  Zn    0.52577   0.47423   0.28277   0.00000  Uiso   1.00
Zn323  Zn    0.46792   0.45711   0.22257   0.00000  Uiso   1.00
Zn324  Zn    0.54500   0.52997   0.21188   0.00000  Uiso   1.00
Zn325  Zn    0.46131   0.53868   0.28277   0.00000  Uiso   1.00
C326   C     0.71906   0.49302   0.25908   0.00000  Uiso   1.00
C327   C     0.87016   0.46994   0.45835   0.00000  Uiso   1.00
C328   C     0.88742   0.44734   0.47891   0.00000  Uiso   1.00
C329   C     0.94793   0.50698   0.24096   0.00000  Uiso   1.00
C330   C     0.88074   0.45673   0.01941   0.00000  Uiso   1.00
C331   C     0.85718   0.49034   0.03980   0.00000  Uiso   1.00
C332   C     0.89721   0.43257   0.03972   0.00000  Uiso   1.00
C333   C     0.88964   0.44060   0.08031   0.00000  Uiso   1.00
C334   C     0.84514   0.49461   0.08174   0.00000  Uiso   1.00
C335   C     0.99452   0.50969   0.23678   0.00000  Uiso   1.00
C336   C     0.67380   0.49122   0.26193   0.00000  Uiso   1.00
C337   C     0.79450   0.57593   0.41616   0.00000  Uiso   1.00
C338   C     0.84821   0.65560   0.23750   0.00000  Uiso   1.00
C339   C     0.81849   0.34541   0.26163   0.00000  Uiso   1.00
C340   C     0.82196   0.38960   0.25935   0.00000  Uiso   1.00
C341   C     0.84367   0.61108   0.24121   0.00000  Uiso   1.00
C342   C     0.85518   0.47841   0.14400   0.00000  Uiso   1.00
C343   C     0.81291   0.52222   0.35613   0.00000  Uiso   1.00
C344   C     0.80969   0.53737   0.39808   0.00000  Uiso   1.00
C345   C     0.86335   0.47108   0.10133   0.00000  Uiso   1.00
C346   C     0.79653   0.59072   0.45472   0.00000  Uiso   1.00
C347   C     0.88485   0.34038   0.20775   0.00000  Uiso   1.00
C348   C     0.82533   0.51381   0.41929   0.00000  Uiso   1.00
C349   C     0.80980   0.51776   0.10531   0.00000  Uiso   1.00
C350   C     0.77819   0.62923   0.47284   0.00000  Uiso   1.00
C351   C     0.77755   0.60142   0.39535   0.00000  Uiso   1.00
C352   C     0.82992   0.52862   0.45698   0.00000  Uiso   1.00
C353   C     0.81550   0.56787   0.47508   0.00000  Uiso   1.00
C354   C     0.84807   0.50479   0.47723   0.00000  Uiso   1.00
C355   C     0.84580   0.51729   0.01734   0.00000  Uiso   1.00
C356   C     0.83642   0.55795   0.03280   0.00000  Uiso   1.00
C357   C     0.82145   0.58333   0.01252   0.00000  Uiso   1.00
H358   H     0.91618   0.40757   0.02414   0.00000  Uiso   1.00
H359   H     0.67742   0.54206   0.19169   0.00000  Uiso   1.00
H360   H     0.98414   0.47472   0.28530   0.00000  Uiso   1.00
H361   H     0.79094   0.66515   0.28371   0.00000  Uiso   1.00
H362   H     0.90332   0.42223   0.09554   0.00000  Uiso   1.00
H363   H     0.90533   0.42169   0.46309   0.00000  Uiso   1.00
H364   H     0.83335   0.48325   0.40565   0.00000  Uiso   1.00
H365   H     0.84313   0.57150   0.06006   0.00000  Uiso   1.00
H366   H     0.87693   0.46073   0.42713   0.00000  Uiso   1.00
H367   H     0.81883   0.62898   0.05507   0.00000  Uiso   1.00
N368   N     0.91402   0.35484   0.18405   0.00000  Uiso   1.00
N369   N     0.78157   0.53603   0.12424   0.00000  Uiso   1.00
N370   N     0.76350   0.65988   0.48707   0.00000  Uiso   1.00
N371   N     0.76404   0.62185   0.37889   0.00000  Uiso   1.00
O372   O     0.83333   0.50000   0.25000   0.00000  Uiso   1.00
O373   O     0.82360   0.45726   0.16625   0.00000  Uiso   1.00
O374   O     0.79354   0.53979   0.33749   0.00000  Uiso   1.00
O375   O     0.87755   0.50826   0.15877   0.00000  Uiso   1.00
O376   O     0.83865   0.49468   0.33749   0.00000  Uiso   1.00
O377   O     0.81359   0.62355   0.02876   0.00000  Uiso   1.00
O378   O     0.69208   0.53061   0.20779   0.00000  Uiso   1.00
O379   O     0.84515   0.41434   0.27820   0.00000  Uiso   1.00
O380   O     0.81247   0.59469   0.26767   0.00000  Uiso   1.00
O381   O     0.74119   0.46584   0.23607   0.00000  Uiso   1.00
O382   O     0.93452   0.52512   0.21805   0.00000  Uiso   1.00
O383   O     0.73656   0.52293   0.27820   0.00000  Uiso   1.00
O384   O     0.92106   0.48610   0.26767   0.00000  Uiso   1.00
O385   O     0.80467   0.40236   0.23607   0.00000  Uiso   1.00
O386   O     0.87104   0.58860   0.21805   0.00000  Uiso   1.00
Zn387  Zn    0.85910   0.47423   0.28277   0.00000  Uiso   1.00
Zn388  Zn    0.80125   0.45711   0.22257   0.00000  Uiso   1.00
Zn389  Zn    0.87833   0.52997   0.21188   0.00000  Uiso   1.00
Zn390  Zn    0.79465   0.53868   0.28277   0.00000  Uiso   1.00
C391   C     0.05239   0.82635   0.25908   0.00000  Uiso   1.00
C392   C     0.20349   0.80327   0.45835   0.00000  Uiso   1.00
C393   C     0.22075   0.78067   0.47891   0.00000  Uiso   1.00
C394   C     0.28126   0.84031   0.24096   0.00000  Uiso   1.00
C395   C     0.21407   0.79006   0.01941   0.00000  Uiso   1.00
C396   C     0.19052   0.82367   0.03980   0.00000  Uiso   1.00
C397   C     0.23054   0.76590   0.03972   0.00000  Uiso   1.00
C398   C     0.22297   0.77393   0.08031   0.00000  Uiso   1.00
C399   C     0.17847   0.82794   0.08174   0.00000  Uiso   1.00
C400   C     0.32786   0.84303   0.23678   0.00000  Uiso   1.00
C401   C     0.00714   0.82455   0.26193   0.00000  Uiso   1.00
C402   C     0.12783   0.90927   0.41616   0.00000  Uiso   1.00
C403   C     0.18155   0.98893   0.23750   0.00000  Uiso   1.00
C404   C     0.15183   0.67874   0.26163   0.00000  Uiso   1.00
C405   C     0.15530   0.72294   0.25935   0.00000  Uiso   1.00
C406   C     0.17700   0.94441   0.24121   0.00000  Uiso   1.00
C407   C     0.18851   0.81174   0.14400   0.00000  Uiso   1.00
C408   C     0.14625   0.85555   0.35613   0.00000  Uiso   1.00
C409   C     0.14302   0.87070   0.39808   0.00000  Uiso   1.00
C410   C     0.19669   0.80442   0.10133   0.00000  Uiso   1.00
C411   C     0.12986   0.92406   0.45472   0.00000  Uiso   1.00
C412   C     0.21818   0.67372   0.20775   0.00000  Uiso   1.00
C413   C     0.15866   0.84714   0.41929   0.00000  Uiso   1.00
C414   C     0.14314   0.85110   0.10531   0.00000  Uiso   1.00
C415   C     0.11153   0.96256   0.47284   0.00000  Uiso   1.00
C416   C     0.11088   0.93475   0.39535   0.00000  Uiso   1.00
C417   C     0.16326   0.86195   0.45698   0.00000  Uiso   1.00
C418   C     0.14883   0.90120   0.47508   0.00000  Uiso   1.00
C419   C     0.18141   0.83813   0.47723   0.00000  Uiso   1.00
C420   C     0.17913   0.85062   0.01734   0.00000  Uiso   1.00
C421   C     0.16975   0.89129   0.03280   0.00000  Uiso   1.00
C422   C     0.15478   0.91667   0.01252   0.00000  Uiso   1.00
H423   H     0.24951   0.74090   0.02414   0.00000  Uiso   1.00
H424   H     0.01075   0.87540   0.19169   0.00000  Uiso   1.00
H425   H     0.31747   0.80805   0.28530   0.00000  Uiso   1.00
H426   H     0.12427   0.99848   0.28371   0.00000  Uiso   1.00
H427   H     0.23665   0.75556   0.09554   0.00000  Uiso   1.00
H428   H     0.23867   0.75502   0.46309   0.00000  Uiso   1.00
H429   H     0.16668   0.81659   0.40565   0.00000  Uiso   1.00
H430   H     0.17647   0.90484   0.06006   0.00000  Uiso   1.00
H431   H     0.21027   0.79406   0.42713   0.00000  Uiso   1.00
H432   H     0.15216   0.96232   0.05507   0.00000  Uiso   1.00
N433   N     0.24735   0.68817   0.18405   0.00000  Uiso   1.00
N434   N     0.11491   0.86937   0.12424   0.00000  Uiso   1.00
N435   N     0.09683   0.99322   0.48707   0.00000  Uiso   1.00
N436   N     0.09737   0.95518   0.37889   0.00000  Uiso   1.00
O437   O     0.16667   0.83333   0.25000   0.00000  Uiso   1.00
O438   O     0.15693   0.79060   0.16625   0.00000  Uiso   1.00
O439   O     0.12687   0.87313   0.33749   0.00000  Uiso   1.00
O440   O     0.21088   0.84159   0.15877   0.00000  Uiso   1.00
O441   O     0.17198   0.82802   0.33749   0.00000  Uiso   1.00
O442   O     0.14692   0.95688   0.02876   0.00000  Uiso   1.00
O443   O     0.02542   0.86394   0.20779   0.00000  Uiso   1.00
O444   O     0.17849   0.74768   0.27820   0.00000  Uiso   1.00
O445   O     0.14581   0.92803   0.26767   0.00000  Uiso   1.00
O446   O     0.07452   0.79917   0.23607   0.00000  Uiso   1.00
O447   O     0.26785   0.85845   0.21805   0.00000  Uiso   1.00
O448   O     0.06990   0.85627   0.27820   0.00000  Uiso   1.00
O449   O     0.25440   0.81944   0.26767   0.00000  Uiso   1.00
O450   O     0.13800   0.73570   0.23607   0.00000  Uiso   1.00
O451   O     0.20437   0.92193   0.21805   0.00000  Uiso   1.00
Zn452  Zn    0.19244   0.80756   0.28277   0.00000  Uiso   1.00
Zn453  Zn    0.13459   0.79044   0.22257   0.00000  Uiso   1.00
Zn454  Zn    0.21166   0.86331   0.21188   0.00000  Uiso   1.00
Zn455  Zn    0.12798   0.87202   0.28277   0.00000  Uiso   1.00
C456   C     0.38573   0.82635   0.25908   0.00000  Uiso   1.00
C457   C     0.53682   0.80327   0.45835   0.00000  Uiso   1.00
C458   C     0.55409   0.78067   0.47891   0.00000  Uiso   1.00
C459   C     0.61459   0.84031   0.24096   0.00000  Uiso   1.00
C460   C     0.54741   0.79006   0.01941   0.00000  Uiso   1.00
C461   C     0.52385   0.82367   0.03980   0.00000  Uiso   1.00
C462   C     0.56387   0.76590   0.03972   0.00000  Uiso   1.00
C463   C     0.55631   0.77393   0.08031   0.00000  Uiso   1.00
C464   C     0.51180   0.82794   0.08174   0.00000  Uiso   1.00
C465   C     0.66119   0.84303   0.23678   0.00000  Uiso   1.00
C466   C     0.34047   0.82455   0.26193   0.00000  Uiso   1.00
C467   C     0.46117   0.90927   0.41616   0.00000  Uiso   1.00
C468   C     0.51488   0.98893   0.23750   0.00000  Uiso   1.00
C469   C     0.48516   0.67874   0.26163   0.00000  Uiso   1.00
C470   C     0.48863   0.72294   0.25935   0.00000  Uiso   1.00
C471   C     0.51034   0.94441   0.24121   0.00000  Uiso   1.00
C472   C     0.52184   0.81174   0.14400   0.00000  Uiso   1.00
C473   C     0.47958   0.85555   0.35613   0.00000  Uiso   1.00
C474   C     0.47635   0.87070   0.39808   0.00000  Uiso   1.00
C475   C     0.53002   0.80442   0.10133   0.00000  Uiso   1.00
C476   C     0.46320   0.92406   0.45472   0.00000  Uiso   1.00
C477   C     0.55151   0.67372   0.20775   0.00000  Uiso   1.00
C478   C     0.49200   0.84714   0.41929   0.00000  Uiso   1.00
C479   C     0.47647   0.85110   0.10531   0.00000  Uiso   1.00
C480   C     0.44486   0.96256   0.47284   0.00000  Uiso   1.00
C481   C     0.44422   0.93475   0.39535   0.00000  Uiso   1.00
C482   C     0.49659   0.86195   0.45698   0.00000  Uiso   1.00
C483   C     0.48217   0.90120   0.47508   0.00000  Uiso   1.00
C484   C     0.51474   0.83813   0.47723   0.00000  Uiso   1.00
C485   C     0.51246   0.85062   0.01734   0.00000  Uiso   1.00
C486   C     0.50308   0.89129   0.03280   0.00000  Uiso   1.00
C487   C     0.48812   0.91667   0.01252   0.00000  Uiso   1.00
H488   H     0.58284   0.74090   0.02414   0.00000  Uiso   1.00
H489   H     0.34409   0.87540   0.19169   0.00000  Uiso   1.00
H490   H     0.65080   0.80805   0.28530   0.00000  Uiso   1.00
H491   H     0.45760   0.99848   0.28371   0.00000  Uiso   1.00
H492   H     0.56998   0.75556   0.09554   0.00000  Uiso   1.00
H493   H     0.57200   0.75502   0.46309   0.00000  Uiso   1.00
H494   H     0.50001   0.81659   0.40565   0.00000  Uiso   1.00
H495   H     0.50980   0.90484   0.06006   0.00000  Uiso   1.00
H496   H     0.54360   0.79406   0.42713   0.00000  Uiso   1.00
H497   H     0.48550   0.96232   0.05507   0.00000  Uiso   1.00
N498   N     0.58069   0.68817   0.18405   0.00000  Uiso   1.00
N499   N     0.44824   0.86937   0.12424   0.00000  Uiso   1.00
N500   N     0.43016   0.99322   0.48707   0.00000  Uiso   1.00
N501   N     0.43071   0.95518   0.37889   0.00000  Uiso   1.00
O502   O     0.50000   0.83333   0.25000   0.00000  Uiso   1.00
O503   O     0.49027   0.79060   0.16625   0.00000  Uiso   1.00
O504   O     0.46020   0.87313   0.33749   0.00000  Uiso   1.00
O505   O     0.54421   0.84159   0.15877   0.00000  Uiso   1.00
O506   O     0.50532   0.82802   0.33749   0.00000  Uiso   1.00
O507   O     0.48026   0.95688   0.02876   0.00000  Uiso   1.00
O508   O     0.35875   0.86394   0.20779   0.00000  Uiso   1.00
O509   O     0.51182   0.74768   0.27820   0.00000  Uiso   1.00
O510   O     0.47914   0.92803   0.26767   0.00000  Uiso   1.00
O511   O     0.40785   0.79917   0.23607   0.00000  Uiso   1.00
O512   O     0.60119   0.85845   0.21805   0.00000  Uiso   1.00
O513   O     0.40323   0.85627   0.27820   0.00000  Uiso   1.00
O514   O     0.58773   0.81944   0.26767   0.00000  Uiso   1.00
O515   O     0.47133   0.73570   0.23607   0.00000  Uiso   1.00
O516   O     0.53771   0.92193   0.21805   0.00000  Uiso   1.00
Zn517  Zn    0.52577   0.80756   0.28277   0.00000  Uiso   1.00
Zn518  Zn    0.46792   0.79044   0.22257   0.00000  Uiso   1.00
Zn519  Zn    0.54500   0.86331   0.21188   0.00000  Uiso   1.00
Zn520  Zn    0.46131   0.87202   0.28277   0.00000  Uiso   1.00
C521   C     0.71906   0.82635   0.25908   0.00000  Uiso   1.00
C522   C     0.87016   0.80327   0.45835   0.00000  Uiso   1.00
C523   C     0.88742   0.78067   0.47891   0.00000  Uiso   1.00
C524   C     0.94793   0.84031   0.24096   0.00000  Uiso   1.00
C525   C     0.88074   0.79006   0.01941   0.00000  Uiso   1.00
C526   C     0.85718   0.82367   0.03980   0.00000  Uiso   1.00
C527   C     0.89721   0.76590   0.03972   0.00000  Uiso   1.00
C528   C     0.88964   0.77393   0.08031   0.00000  Uiso   1.00
C529   C     0.84514   0.82794   0.08174   0.00000  Uiso   1.00
C530   C     0.99452   0.84303   0.23678   0.00000  Uiso   1.00
C531   C     0.67380   0.82455   0.26193   0.00000  Uiso   1.00
C532   C     0.79450   0.90927   0.41616   0.00000  Uiso   1.00
C533   C     0.84821   0.98893   0.23750   0.00000  Uiso   1.00
C534   C     0.81849   0.67874   0.26163   0.00000  Uiso   1.00
C535   C     0.82196   0.72294   0.25935   0.00000  Uiso   1.00
C536   C     0.84367   0.94441   0.24121   0.00000  Uiso   1.00
C537   C     0.85518   0.81174   0.14400   0.00000  Uiso   1.00
C538   C     0.81291   0.85555   0.35613   0.00000  Uiso   1.00
C539   C     0.80969   0.87070   0.39808   0.00000  Uiso   1.00
C540   C     0.86335   0.80442   0.10133   0.00000  Uiso   1.00
C541   C     0.79653   0.92406   0.45472   0.00000  Uiso   1.00
C542   C     0.88485   0.67372   0.20775   0.00000  Uiso   1.00
C543   C     0.82533   0.84714   0.41929   0.00000  Uiso   1.00
C544   C     0.80980   0.85110   0.10531   0.00000  Uiso   1.00
C545   C     0.77819   0.96256   0.47284   0.00000  Uiso   1.00
C546   C     0.77755   0.93475   0.39535   0.00000  Uiso   1.00
C547   C     0.82992   0.86195   0.45698   0.00000  Uiso   1.00
C548   C     0.81550   0.90120   0.47508   0.00000  Uiso   1.00
C549   C     0.84807   0.83813   0.47723   0.00000  Uiso   1.00
C550   C     0.84580   0.85062   0.01734   0.00000  Uiso   1.00
C551   C     0.83642   0.89129   0.03280   0.00000  Uiso   1.00
C552   C     0.82145   0.91667   0.01252   0.00000  Uiso   1.00
H553   H     0.91618   0.74090   0.02414   0.00000  Uiso   1.00
H554   H     0.67742   0.87540   0.19169   0.00000  Uiso   1.00
H555   H     0.98414   0.80805   0.28530   0.00000  Uiso   1.00
H556   H     0.79094   0.99848   0.28371   0.00000  Uiso   1.00
H557   H     0.90332   0.75556   0.09554   0.00000  Uiso   1.00
H558   H     0.90533   0.75502   0.46309   0.00000  Uiso   1.00
H559   H     0.83335   0.81659   0.40565   0.00000  Uiso   1.00
H560   H     0.84313   0.90484   0.06006   0.00000  Uiso   1.00
H561   H     0.87693   0.79406   0.42713   0.00000  Uiso   1.00
H562   H     0.81883   0.96232   0.05507   0.00000  Uiso   1.00
N563   N     0.91402   0.68817   0.18405   0.00000  Uiso   1.00
N564   N     0.78157   0.86937   0.12424   0.00000  Uiso   1.00
N565   N     0.76350   0.99322   0.48707   0.00000  Uiso   1.00
N566   N     0.76404   0.95518   0.37889   0.00000  Uiso   1.00
O567   O     0.83333   0.83333   0.25000   0.00000  Uiso   1.00
O568   O     0.82360   0.79060   0.16625   0.00000  Uiso   1.00
O569   O     0.79354   0.87313   0.33749   0.00000  Uiso   1.00
O570   O     0.87755   0.84159   0.15877   0.00000  Uiso   1.00
O571   O     0.83865   0.82802   0.33749   0.00000  Uiso   1.00
O572   O     0.81359   0.95688   0.02876   0.00000  Uiso   1.00
O573   O     0.69208   0.86394   0.20779   0.00000  Uiso   1.00
O574   O     0.84515   0.74768   0.27820   0.00000  Uiso   1.00
O575   O     0.81247   0.92803   0.26767   0.00000  Uiso   1.00
O576   O     0.74119   0.79917   0.23607   0.00000  Uiso   1.00
O577   O     0.93452   0.85845   0.21805   0.00000  Uiso   1.00
O578   O     0.73656   0.85627   0.27820   0.00000  Uiso   1.00
O579   O     0.92106   0.81944   0.26767   0.00000  Uiso   1.00
O580   O     0.80467   0.73570   0.23607   0.00000  Uiso   1.00
O581   O     0.87104   0.92193   0.21805   0.00000  Uiso   1.00
Zn582  Zn    0.85910   0.80756   0.28277   0.00000  Uiso   1.00
Zn583  Zn    0.80125   0.79044   0.22257   0.00000  Uiso   1.00
Zn584  Zn    0.87833   0.86331   0.21188   0.00000  Uiso   1.00
Zn585  Zn    0.79465   0.87202   0.28277   0.00000  Uiso   1.00
C586   C     0.05239   0.15969   0.75908   0.00000  Uiso   1.00
C587   C     0.20349   0.13660   0.95835   0.00000  Uiso   1.00
C588   C     0.22075   0.11400   0.97891   0.00000  Uiso   1.00
C589   C     0.28126   0.17364   0.74096   0.00000  Uiso   1.00
C590   C     0.21407   0.12340   0.51941   0.00000  Uiso   1.00
C591   C     0.19052   0.15700   0.53980   0.00000  Uiso   1.00
C592   C     0.23054   0.09923   0.53972   0.00000  Uiso   1.00
C593   C     0.22297   0.10727   0.58031   0.00000  Uiso   1.00
C594   C     0.17847   0.16127   0.58174   0.00000  Uiso   1.00
C595   C     0.32786   0.17636   0.73678   0.00000  Uiso   1.00
C596   C     0.00714   0.15788   0.76193   0.00000  Uiso   1.00
C597   C     0.12783   0.24260   0.91616   0.00000  Uiso   1.00
C598   C     0.18155   0.32226   0.73750   0.00000  Uiso   1.00
C599   C     0.15183   0.01208   0.76163   0.00000  Uiso   1.00
C600   C     0.15530   0.05627   0.75935   0.00000  Uiso   1.00
C601   C     0.17700   0.27775   0.74121   0.00000  Uiso   1.00
C602   C     0.18851   0.14507   0.64400   0.00000  Uiso   1.00
C603   C     0.14625   0.18889   0.85613   0.00000  Uiso   1.00
C604   C     0.14302   0.20404   0.89808   0.00000  Uiso   1.00
C605   C     0.19669   0.13775   0.60133   0.00000  Uiso   1.00
C606   C     0.12986   0.25739   0.95472   0.00000  Uiso   1.00
C607   C     0.21818   0.00705   0.70775   0.00000  Uiso   1.00
C608   C     0.15866   0.18047   0.91929   0.00000  Uiso   1.00
C609   C     0.14314   0.18443   0.60531   0.00000  Uiso   1.00
C610   C     0.11153   0.29589   0.97284   0.00000  Uiso   1.00
C611   C     0.11088   0.26809   0.89535   0.00000  Uiso   1.00
C612   C     0.16326   0.19529   0.95698   0.00000  Uiso   1.00
C613   C     0.14883   0.23453   0.97508   0.00000  Uiso   1.00
C614   C     0.18141   0.17146   0.97723   0.00000  Uiso   1.00
C615   C     0.17913   0.18395   0.51734   0.00000  Uiso   1.00
C616   C     0.16975   0.22462   0.53280   0.00000  Uiso   1.00
C617   C     0.15478   0.25000   0.51252   0.00000  Uiso   1.00
H618   H     0.24951   0.07423   0.52414   0.00000  Uiso   1.00
H619   H     0.01075   0.20873   0.69169   0.00000  Uiso   1.00
H620   H     0.31747   0.14139   0.78530   0.00000  Uiso   1.00
H621   H     0.12427   0.33182   0.78371   0.00000  Uiso   1.00
H622   H     0.23665   0.08890   0.59554   0.00000  Uiso   1.00
H623   H     0.23867   0.08836   0.96309   0.00000  Uiso   1.00
H624   H     0.16668   0.14992   0.90565   0.00000  Uiso   1.00
H625   H     0.17647   0.23817   0.56006   0.00000  Uiso   1.00
H626   H     0.21027   0.12739   0.92713   0.00000  Uiso   1.00
H627   H     0.15216   0.29565   0.55507   0.00000  Uiso   1.00
N628   N     0.24735   0.02151   0.68405   0.00000  Uiso   1.00
N629   N     0.11491   0.20270   0.62424   0.00000  Uiso   1.00
N630   N     0.09683   0.32655   0.98707   0.00000  Uiso   1.00
N631   N     0.09737   0.28851   0.87889   0.00000  Uiso   1.00
O632   O     0.16667   0.16667   0.75000   0.00000  Uiso   1.00
O633   O     0.15693   0.12393   0.66625   0.00000  Uiso   1.00
O634   O     0.12687   0.20646   0.83749   0.00000  Uiso   1.00
O635   O     0.21088   0.17493   0.65877   0.00000  Uiso   1.00
O636   O     0.17198   0.16135   0.83749   0.00000  Uiso   1.00
O637   O     0.14692   0.29022   0.52876   0.00000  Uiso   1.00
O638   O     0.02542   0.19727   0.70779   0.00000  Uiso   1.00
O639   O     0.17849   0.08101   0.77820   0.00000  Uiso   1.00
O640   O     0.14581   0.26136   0.76767   0.00000  Uiso   1.00
O641   O     0.07452   0.13251   0.73607   0.00000  Uiso   1.00
O642   O     0.26785   0.19179   0.71805   0.00000  Uiso   1.00
O643   O     0.06990   0.18960   0.77820   0.00000  Uiso   1.00
O644   O     0.25440   0.15277   0.76767   0.00000  Uiso   1.00
O645   O     0.13800   0.06903   0.73607   0.00000  Uiso   1.00
O646   O     0.20437   0.25527   0.71805   0.00000  Uiso   1.00
Zn647  Zn    0.19244   0.14090   0.78277   0.00000  Uiso   1.00
Zn648  Zn    0.13459   0.12378   0.72257   0.00000  Uiso   1.00
Zn649  Zn    0.21166   0.19664   0.71188   0.00000  Uiso   1.00
Zn650  Zn    0.12798   0.20535   0.78277   0.00000  Uiso   1.00
C651   C     0.38573   0.15969   0.75908   0.00000  Uiso   1.00
C652   C     0.53682   0.13660   0.95835   0.00000  Uiso   1.00
C653   C     0.55409   0.11400   0.97891   0.00000  Uiso   1.00
C654   C     0.61459   0.17364   0.74096   0.00000  Uiso   1.00
C655   C     0.54741   0.12340   0.51941   0.00000  Uiso   1.00
C656   C     0.52385   0.15700   0.53980   0.00000  Uiso   1.00
C657   C     0.56387   0.09923   0.53972   0.00000  Uiso   1.00
C658   C     0.55631   0.10727   0.58031   0.00000  Uiso   1.00
C659   C     0.51180   0.16127   0.58174   0.00000  Uiso   1.00
C660   C     0.66119   0.17636   0.73678   0.00000  Uiso   1.00
C661   C     0.34047   0.15788   0.76193   0.00000  Uiso   1.00
C662   C     0.46117   0.24260   0.91616   0.00000  Uiso   1.00
C663   C     0.51488   0.32226   0.73750   0.00000  Uiso   1.00
C664   C     0.48516   0.01208   0.76163   0.00000  Uiso   1.00
C665   C     0.48863   0.05627   0.75935   0.00000  Uiso   1.00
C666   C     0.51034   0.27775   0.74121   0.00000  Uiso   1.00
C667   C     0.52184   0.14507   0.64400   0.00000  Uiso   1.00
C668   C     0.47958   0.18889   0.85613   0.00000  Uiso   1.00
C669   C     0.47635   0.20404   0.89808   0.00000  Uiso   1.00
C670   C     0.53002   0.13775   0.60133   0.00000  Uiso   1.00
C671   C     0.46320   0.25739   0.95472   0.00000  Uiso   1.00
C672   C     0.55151   0.00705   0.70775   0.00000  Uiso   1.00
C673   C     0.49200   0.18047   0.91929   0.00000  Uiso   1.00
C674   C     0.47647   0.18443   0.60531   0.00000  Uiso   1.00
C675   C     0.44486   0.29589   0.97284   0.00000  Uiso   1.00
C676   C     0.44422   0.26809   0.89535   0.00000  Uiso   1.00
C677   C     0.49659   0.19529   0.95698   0.00000  Uiso   1.00
C678   C     0.48217   0.23453   0.97508   0.00000  Uiso   1.00
C679   C     0.51474   0.17146   0.97723   0.00000  Uiso   1.00
C680   C     0.51246   0.18395   0.51734   0.00000  Uiso   1.00
C681   C     0.50308   0.22462   0.53280   0.00000  Uiso   1.00
C682   C     0.48812   0.25000   0.51252   0.00000  Uiso   1.00
H683   H     0.58284   0.07423   0.52414   0.00000  Uiso   1.00
H684   H     0.34409   0.20873   0.69169   0.00000  Uiso   1.00
H685   H     0.65080   0.14139   0.78530   0.00000  Uiso   1.00
H686   H     0.45760   0.33182   0.78371   0.00000  Uiso   1.00
H687   H     0.56998   0.08890   0.59554   0.00000  Uiso   1.00
H688   H     0.57200   0.08836   0.96309   0.00000  Uiso   1.00
H689   H     0.50001   0.14992   0.90565   0.00000  Uiso   1.00
H690   H     0.50980   0.23817   0.56006   0.00000  Uiso   1.00
H691   H     0.54360   0.12739   0.92713   0.00000  Uiso   1.00
H692   H     0.48550   0.29565   0.55507   0.00000  Uiso   1.00
N693   N     0.58069   0.02151   0.68405   0.00000  Uiso   1.00
N694   N     0.44824   0.20270   0.62424   0.00000  Uiso   1.00
N695   N     0.43016   0.32655   0.98707   0.00000  Uiso   1.00
N696   N     0.43071   0.28851   0.87889   0.00000  Uiso   1.00
O697   O     0.50000   0.16667   0.75000   0.00000  Uiso   1.00
O698   O     0.49027   0.12393   0.66625   0.00000  Uiso   1.00
O699   O     0.46020   0.20646   0.83749   0.00000  Uiso   1.00
O700   O     0.54421   0.17493   0.65877   0.00000  Uiso   1.00
O701   O     0.50532   0.16135   0.83749   0.00000  Uiso   1.00
O702   O     0.48026   0.29022   0.52876   0.00000  Uiso   1.00
O703   O     0.35875   0.19727   0.70779   0.00000  Uiso   1.00
O704   O     0.51182   0.08101   0.77820   0.00000  Uiso   1.00
O705   O     0.47914   0.26136   0.76767   0.00000  Uiso   1.00
O706   O     0.40785   0.13251   0.73607   0.00000  Uiso   1.00
O707   O     0.60119   0.19179   0.71805   0.00000  Uiso   1.00
O708   O     0.40323   0.18960   0.77820   0.00000  Uiso   1.00
O709   O     0.58773   0.15277   0.76767   0.00000  Uiso   1.00
O710   O     0.47133   0.06903   0.73607   0.00000  Uiso   1.00
O711   O     0.53771   0.25527   0.71805   0.00000  Uiso   1.00
Zn712  Zn    0.52577   0.14090   0.78277   0.00000  Uiso   1.00
Zn713  Zn    0.46792   0.12378   0.72257   0.00000  Uiso   1.00
Zn714  Zn    0.54500   0.19664   0.71188   0.00000  Uiso   1.00
Zn715  Zn    0.46131   0.20535   0.78277   0.00000  Uiso   1.00
C716   C     0.71906   0.15969   0.75908   0.00000  Uiso   1.00
C717   C     0.87016   0.13660   0.95835   0.00000  Uiso   1.00
C718   C     0.88742   0.11400   0.97891   0.00000  Uiso   1.00
C719   C     0.94793   0.17364   0.74096   0.00000  Uiso   1.00
C720   C     0.88074   0.12340   0.51941   0.00000  Uiso   1.00
C721   C     0.85718   0.15700   0.53980   0.00000  Uiso   1.00
C722   C     0.89721   0.09923   0.53972   0.00000  Uiso   1.00
C723   C     0.88964   0.10727   0.58031   0.00000  Uiso   1.00
C724   C     0.84514   0.16127   0.58174   0.00000  Uiso   1.00
C725   C     0.99452   0.17636   0.73678   0.00000  Uiso   1.00
C726   C     0.67380   0.15788   0.76193   0.00000  Uiso   1.00
C727   C     0.79450   0.24260   0.91616   0.00000  Uiso   1.00
C728   C     0.84821   0.32226   0.73750   0.00000  Uiso   1.00
C729   C     0.81849   0.01208   0.76163   0.00000  Uiso   1.00
C730   C     0.82196   0.05627   0.75935   0.00000  Uiso   1.00
C731   C     0.84367   0.27775   0.74121   0.00000  Uiso   1.00
C732   C     0.85518   0.14507   0.64400   0.00000  Uiso   1.00
C733   C     0.81291   0.18889   0.85613   0.00000  Uiso   1.00
C734   C     0.80969   0.20404   0.89808   0.00000  Uiso   1.00
C735   C     0.86335   0.13775   0.60133   0.00000  Uiso   1.00
C736   C     0.79653   0.25739   0.95472   0.00000  Uiso   1.00
C737   C     0.88485   0.00705   0.70775   0.00000  Uiso   1.00
C738   C     0.82533   0.18047   0.91929   0.00000  Uiso   1.00
C739   C     0.80980   0.18443   0.60531   0.00000  Uiso   1.00
C740   C     0.77819   0.29589   0.97284   0.00000  Uiso   1.00
C741   C     0.77755   0.26809   0.89535   0.00000  Uiso   1.00
C742   C     0.82992   0.19529   0.95698   0.00000  Uiso   1.00
C743   C     0.81550   0.23453   0.97508   0.00000  Uiso   1.00
C744   C     0.84807   0.17146   0.97723   0.00000  Uiso   1.00
C745   C     0.84580   0.18395   0.51734   0.00000  Uiso   1.00
C746   C     0.83642   0.22462   0.53280   0.00000  Uiso   1.00
C747   C     0.82145   0.25000   0.51252   0.00000  Uiso   1.00
H748   H     0.91618   0.07423   0.52414   0.00000  Uiso   1.00
H749   H     0.67742   0.20873   0.69169   0.00000  Uiso   1.00
H750   H     0.98414   0.14139   0.78530   0.00000  Uiso   1.00
H751   H     0.79094   0.33182   0.78371   0.00000  Uiso   1.00
H752   H     0.90332   0.08890   0.59554   0.00000  Uiso   1.00
H753   H     0.90533   0.08836   0.96309   0.00000  Uiso   1.00
H754   H     0.83335   0.14992   0.90565   0.00000  Uiso   1.00
H755   H     0.84313   0.23817   0.56006   0.00000  Uiso   1.00
H756   H     0.87693   0.12739   0.92713   0.00000  Uiso   1.00
H757   H     0.81883   0.29565   0.55507   0.00000  Uiso   1.00
N758   N     0.91402   0.02151   0.68405   0.00000  Uiso   1.00
N759   N     0.78157   0.20270   0.62424   0.00000  Uiso   1.00
N760   N     0.76350   0.32655   0.98707   0.00000  Uiso   1.00
N761   N     0.76404   0.28851   0.87889   0.00000  Uiso   1.00
O762   O     0.83333   0.16667   0.75000   0.00000  Uiso   1.00
O763   O     0.82360   0.12393   0.66625   0.00000  Uiso   1.00
O764   O     0.79354   0.20646   0.83749   0.00000  Uiso   1.00
O765   O     0.87755   0.17493   0.65877   0.00000  Uiso   1.00
O766   O     0.83865   0.16135   0.83749   0.00000  Uiso   1.00
O767   O     0.81359   0.29022   0.52876   0.00000  Uiso   1.00
O768   O     0.69208   0.19727   0.70779   0.00000  Uiso   1.00
O769   O     0.84515   0.08101   0.77820   0.00000  Uiso   1.00
O770   O     0.81247   0.26136   0.76767   0.00000  Uiso   1.00
O771   O     0.74119   0.13251   0.73607   0.00000  Uiso   1.00
O772   O     0.93452   0.19179   0.71805   0.00000  Uiso   1.00
O773   O     0.73656   0.18960   0.77820   0.00000  Uiso   1.00
O774   O     0.92106   0.15277   0.76767   0.00000  Uiso   1.00
O775   O     0.80467   0.06903   0.73607   0.00000  Uiso   1.00
O776   O     0.87104   0.25527   0.71805   0.00000  Uiso   1.00
Zn777  Zn    0.85910   0.14090   0.78277   0.00000  Uiso   1.00
Zn778  Zn    0.80125   0.12378   0.72257   0.00000  Uiso   1.00
Zn779  Zn    0.87833   0.19664   0.71188   0.00000  Uiso   1.00
Zn780  Zn    0.79465   0.20535   0.78277   0.00000  Uiso   1.00
C781   C     0.05239   0.49302   0.75908   0.00000  Uiso   1.00
C782   C     0.20349   0.46994   0.95835   0.00000  Uiso   1.00
C783   C     0.22075   0.44734   0.97891   0.00000  Uiso   1.00
C784   C     0.28126   0.50698   0.74096   0.00000  Uiso   1.00
C785   C     0.21407   0.45673   0.51941   0.00000  Uiso   1.00
C786   C     0.19052   0.49034   0.53980   0.00000  Uiso   1.00
C787   C     0.23054   0.43257   0.53972   0.00000  Uiso   1.00
C788   C     0.22297   0.44060   0.58031   0.00000  Uiso   1.00
C789   C     0.17847   0.49461   0.58174   0.00000  Uiso   1.00
C790   C     0.32786   0.50969   0.73678   0.00000  Uiso   1.00
C791   C     0.00714   0.49122   0.76193   0.00000  Uiso   1.00
C792   C     0.12783   0.57593   0.91616   0.00000  Uiso   1.00
C793   C     0.18155   0.65560   0.73750   0.00000  Uiso   1.00
C794   C     0.15183   0.34541   0.76163   0.00000  Uiso   1.00
C795   C     0.15530   0.38960   0.75935   0.00000  Uiso   1.00
C796   C     0.17700   0.61108   0.74121   0.00000  Uiso   1.00
C797   C     0.18851   0.47841   0.64400   0.00000  Uiso   1.00
C798   C     0.14625   0.52222   0.85613   0.00000  Uiso   1.00
C799   C     0.14302   0.53737   0.89808   0.00000  Uiso   1.00
C800   C     0.19669   0.47108   0.60133   0.00000  Uiso   1.00
C801   C     0.12986   0.59072   0.95472   0.00000  Uiso   1.00
C802   C     0.21818   0.34038   0.70775   0.00000  Uiso   1.00
C803   C     0.15866   0.51381   0.91929   0.00000  Uiso   1.00
C804   C     0.14314   0.51776   0.60531   0.00000  Uiso   1.00
C805   C     0.11153   0.62923   0.97284   0.00000  Uiso   1.00
C806   C     0.11088   0.60142   0.89535   0.00000  Uiso   1.00
C807   C     0.16326   0.52862   0.95698   0.00000  Uiso   1.00
C808   C     0.14883   0.56787   0.97508   0.00000  Uiso   1.00
C809   C     0.18141   0.50479   0.97723   0.00000  Uiso   1.00
C810   C     0.17913   0.51729   0.51734   0.00000  Uiso   1.00
C811   C     0.16975   0.55795   0.53280   0.00000  Uiso   1.00
C812   C     0.15478   0.58333   0.51252   0.00000  Uiso   1.00
H813   H     0.24951   0.40757   0.52414   0.00000  Uiso   1.00
H814   H     0.01075   0.54206   0.69169   0.00000  Uiso   1.00
H815   H     0.31747   0.47472   0.78530   0.00000  Uiso   1.00
H816   H     0.12427   0.66515   0.78371   0.00000  Uiso   1.00
H817   H     0.23665   0.42223   0.59554   0.00000  Uiso   1.00
H818   H     0.23867   0.42169   0.96309   0.00000  Uiso   1.00
H819   H     0.16668   0.48325   0.90565   0.00000  Uiso   1.00
H820   H     0.17647   0.57150   0.56006   0.00000  Uiso   1.00
H821   H     0.21027   0.46073   0.92713   0.00000  Uiso   1.00
H822   H     0.15216   0.62898   0.55507   0.00000  Uiso   1.00
N823   N     0.24735   0.35484   0.68405   0.00000  Uiso   1.00
N824   N     0.11491   0.53603   0.62424   0.00000  Uiso   1.00
N825   N     0.09683   0.65988   0.98707   0.00000  Uiso   1.00
N826   N     0.09737   0.62185   0.87889   0.00000  Uiso   1.00
O827   O     0.16667   0.50000   0.75000   0.00000  Uiso   1.00
O828   O     0.15693   0.45726   0.66625   0.00000  Uiso   1.00
O829   O     0.12687   0.53979   0.83749   0.00000  Uiso   1.00
O830   O     0.21088   0.50826   0.65877   0.00000  Uiso   1.00
O831   O     0.17198   0.49468   0.83749   0.00000  Uiso   1.00
O832   O     0.14692   0.62355   0.52876   0.00000  Uiso   1.00
O833   O     0.02542   0.53061   0.70779   0.00000  Uiso   1.00
O834   O     0.17849   0.41434   0.77820   0.00000  Uiso   1.00
O835   O     0.14581   0.59469   0.76767   0.00000  Uiso   1.00
O836   O     0.07452   0.46584   0.73607   0.00000  Uiso   1.00
O837   O     0.26785   0.52512   0.71805   0.00000  Uiso   1.00
O838   O     0.06990   0.52293   0.77820   0.00000  Uiso   1.00
O839   O     0.25440   0.48610   0.76767   0.00000  Uiso   1.00
O840   O     0.13800   0.40236   0.73607   0.00000  Uiso   1.00
O841   O     0.20437   0.58860   0.71805   0.00000  Uiso   1.00
Zn842  Zn    0.19244   0.47423   0.78277   0.00000  Uiso   1.00
Zn843  Zn    0.13459   0.45711   0.72257   0.00000  Uiso   1.00
Zn844  Zn    0.21166   0.52997   0.71188   0.00000  Uiso   1.00
Zn845  Zn    0.12798   0.53868   0.78277   0.00000  Uiso   1.00
C846   C     0.38573   0.49302   0.75908   0.00000  Uiso   1.00
C847   C     0.53682   0.46994   0.95835   0.00000  Uiso   1.00
C848   C     0.55409   0.44734   0.97891   0.00000  Uiso   1.00
C849   C     0.61459   0.50698   0.74096   0.00000  Uiso   1.00
C850   C     0.54741   0.45673   0.51941   0.00000  Uiso   1.00
C851   C     0.52385   0.49034   0.53980   0.00000  Uiso   1.00
C852   C     0.56387   0.43257   0.53972   0.00000  Uiso   1.00
C853   C     0.55631   0.44060   0.58031   0.00000  Uiso   1.00
C854   C     0.51180   0.49461   0.58174   0.00000  Uiso   1.00
C855   C     0.66119   0.50969   0.73678   0.00000  Uiso   1.00
C856   C     0.34047   0.49122   0.76193   0.00000  Uiso   1.00
C857   C     0.46117   0.57593   0.91616   0.00000  Uiso   1.00
C858   C     0.51488   0.65560   0.73750   0.00000  Uiso   1.00
C859   C     0.48516   0.34541   0.76163   0.00000  Uiso   1.00
C860   C     0.48863   0.38960   0.75935   0.00000  Uiso   1.00
C861   C     0.51034   0.61108   0.74121   0.00000  Uiso   1.00
C862   C     0.52184   0.47841   0.64400   0.00000  Uiso   1.00
C863   C     0.47958   0.52222   0.85613   0.00000  Uiso   1.00
C864   C     0.47635   0.53737   0.89808   0.00000  Uiso   1.00
C865   C     0.53002   0.47108   0.60133   0.00000  Uiso   1.00
C866   C     0.46320   0.59072   0.95472   0.00000  Uiso   1.00
C867   C     0.55151   0.34038   0.70775   0.00000  Uiso   1.00
C868   C     0.49200   0.51381   0.91929   0.00000  Uiso   1.00
C869   C     0.47647   0.51776   0.60531   0.00000  Uiso   1.00
C870   C     0.44486   0.62923   0.97284   0.00000  Uiso   1.00
C871   C     0.44422   0.60142   0.89535   0.00000  Uiso   1.00
C872   C     0.49659   0.52862   0.95698   0.00000  Uiso   1.00
C873   C     0.48217   0.56787   0.97508   0.00000  Uiso   1.00
C874   C     0.51474   0.50479   0.97723   0.00000  Uiso   1.00
C875   C     0.51246   0.51729   0.51734   0.00000  Uiso   1.00
C876   C     0.50308   0.55795   0.53280   0.00000  Uiso   1.00
C877   C     0.48812   0.58333   0.51252   0.00000  Uiso   1.00
H878   H     0.58284   0.40757   0.52414   0.00000  Uiso   1.00
H879   H     0.34409   0.54206   0.69169   0.00000  Uiso   1.00
H880   H     0.65080   0.47472   0.78530   0.00000  Uiso   1.00
H881   H     0.45760   0.66515   0.78371   0.00000  Uiso   1.00
H882   H     0.56998   0.42223   0.59554   0.00000  Uiso   1.00
H883   H     0.57200   0.42169   0.96309   0.00000  Uiso   1.00
H884   H     0.50001   0.48325   0.90565   0.00000  Uiso   1.00
H885   H     0.50980   0.57150   0.56006   0.00000  Uiso   1.00
H886   H     0.54360   0.46073   0.92713   0.00000  Uiso   1.00
H887   H     0.48550   0.62898   0.55507   0.00000  Uiso   1.00
N888   N     0.58069   0.35484   0.68405   0.00000  Uiso   1.00
N889   N     0.44824   0.53603   0.62424   0.00000  Uiso   1.00
N890   N     0.43016   0.65988   0.98707   0.00000  Uiso   1.00
N891   N     0.43071   0.62185   0.87889   0.00000  Uiso   1.00
O892   O     0.50000   0.50000   0.75000   0.00000  Uiso   1.00
O893   O     0.49027   0.45726   0.66625   0.00000  Uiso   1.00
O894   O     0.46020   0.53979   0.83749   0.00000  Uiso   1.00
O895   O     0.54421   0.50826   0.65877   0.00000  Uiso   1.00
O896   O     0.50532   0.49468   0.83749   0.00000  Uiso   1.00
O897   O     0.48026   0.62355   0.52876   0.00000  Uiso   1.00
O898   O     0.35875   0.53061   0.70779   0.00000  Uiso   1.00
O899   O     0.51182   0.41434   0.77820   0.00000  Uiso   1.00
O900   O     0.47914   0.59469   0.76767   0.00000  Uiso   1.00
O901   O     0.40785   0.46584   0.73607   0.00000  Uiso   1.00
O902   O     0.60119   0.52512   0.71805   0.00000  Uiso   1.00
O903   O     0.40323   0.52293   0.77820   0.00000  Uiso   1.00
O904   O     0.58773   0.48610   0.76767   0.00000  Uiso   1.00
O905   O     0.47133   0.40236   0.73607   0.00000  Uiso   1.00
O906   O     0.53771   0.58860   0.71805   0.00000  Uiso   1.00
Zn907  Zn    0.52577   0.47423   0.78277   0.00000  Uiso   1.00
Zn908  Zn    0.46792   0.45711   0.72257   0.00000  Uiso   1.00
Zn909  Zn    0.54500   0.52997   0.71188   0.00000  Uiso   1.00
Zn910  Zn    0.46131   0.53868   0.78277   0.00000  Uiso   1.00
C911   C     0.71906   0.49302   0.75908   0.00000  Uiso   1.00
C912   C     0.87016   0.46994   0.95835   0.00000  Uiso   1.00
C913   C     0.88742   0.44734   0.97891   0.00000  Uiso   1.00
C914   C     0.94793   0.50698   0.74096   0.00000  Uiso   1.00
C915   C     0.88074   0.45673   0.51941   0.00000  Uiso   1.00
C916   C     0.85718   0.49034   0.53980   0.00000  Uiso   1.00
C917   C     0.89721   0.43257   0.53972   0.00000  Uiso   1.00
C918   C     0.88964   0.44060   0.58031   0.00000  Uiso   1.00
C919   C     0.84514   0.49461   0.58174   0.00000  Uiso   1.00
C920   C     0.99452   0.50969   0.73678   0.00000  Uiso   1.00
C921   C     0.67380   0.49122   0.76193   0.00000  Uiso   1.00
C922   C     0.79450   0.57593   0.91616   0.00000  Uiso   1.00
C923   C     0.84821   0.65560   0.73750   0.00000  Uiso   1.00
C924   C     0.81849   0.34541   0.76163   0.00000  Uiso   1.00
C925   C     0.82196   0.38960   0.75935   0.00000  Uiso   1.00
C926   C     0.84367   0.61108   0.74121   0.00000  Uiso   1.00
C927   C     0.85518   0.47841   0.64400   0.00000  Uiso   1.00
C928   C     0.81291   0.52222   0.85613   0.00000  Uiso   1.00
C929   C     0.80969   0.53737   0.89808   0.00000  Uiso   1.00
C930   C     0.86335   0.47108   0.60133   0.00000  Uiso   1.00
C931   C     0.79653   0.59072   0.95472   0.00000  Uiso   1.00
C932   C     0.88485   0.34038   0.70775   0.00000  Uiso   1.00
C933   C     0.82533   0.51381   0.91929   0.00000  Uiso   1.00
C934   C     0.80980   0.51776   0.60531   0.00000  Uiso   1.00
C935   C     0.77819   0.62923   0.97284   0.00000  Uiso   1.00
C936   C     0.77755   0.60142   0.89535   0.00000  Uiso   1.00
C937   C     0.82992   0.52862   0.95698   0.00000  Uiso   1.00
C938   C     0.81550   0.56787   0.97508   0.00000  Uiso   1.00
C939   C     0.84807   0.50479   0.97723   0.00000  Uiso   1.00
C940   C     0.84580   0.51729   0.51734   0.00000  Uiso   1.00
C941   C     0.83642   0.55795   0.53280   0.00000  Uiso   1.00
C942   C     0.82145   0.58333   0.51252   0.00000  Uiso   1.00
H943   H     0.91618   0.40757   0.52414   0.00000  Uiso   1.00
H944   H     0.67742   0.54206   0.69169   0.00000  Uiso   1.00
H945   H     0.98414   0.47472   0.78530   0.00000  Uiso   1.00
H946   H     0.79094   0.66515   0.78371   0.00000  Uiso   1.00
H947   H     0.90332   0.42223   0.59554   0.00000  Uiso   1.00
H948   H     0.90533   0.42169   0.96309   0.00000  Uiso   1.00
H949   H     0.83335   0.48325   0.90565   0.00000  Uiso   1.00
H950   H     0.84313   0.57150   0.56006   0.00000  Uiso   1.00
H951   H     0.87693   0.46073   0.92713   0.00000  Uiso   1.00
H952   H     0.81883   0.62898   0.55507   0.00000  Uiso   1.00
N953   N     0.91402   0.35484   0.68405   0.00000  Uiso   1.00
N954   N     0.78157   0.53603   0.62424   0.00000  Uiso   1.00
N955   N     0.76350   0.65988   0.98707   0.00000  Uiso   1.00
N956   N     0.76404   0.62185   0.87889   0.00000  Uiso   1.00
O957   O     0.83333   0.50000   0.75000   0.00000  Uiso   1.00
O958   O     0.82360   0.45726   0.66625   0.00000  Uiso   1.00
O959   O     0.79354   0.53979   0.83749   0.00000  Uiso   1.00
O960   O     0.87755   0.50826   0.65877   0.00000  Uiso   1.00
O961   O     0.83865   0.49468   0.83749   0.00000  Uiso   1.00
O962   O     0.81359   0.62355   0.52876   0.00000  Uiso   1.00
O963   O     0.69208   0.53061   0.70779   0.00000  Uiso   1.00
O964   O     0.84515   0.41434   0.77820   0.00000  Uiso   1.00
O965   O     0.81247   0.59469   0.76767   0.00000  Uiso   1.00
O966   O     0.74119   0.46584   0.73607   0.00000  Uiso   1.00
O967   O     0.93452   0.52512   0.71805   0.00000  Uiso   1.00
O968   O     0.73656   0.52293   0.77820   0.00000  Uiso   1.00
O969   O     0.92106   0.48610   0.76767   0.00000  Uiso   1.00
O970   O     0.80467   0.40236   0.73607   0.00000  Uiso   1.00
O971   O     0.87104   0.58860   0.71805   0.00000  Uiso   1.00
Zn972  Zn    0.85910   0.47423   0.78277   0.00000  Uiso   1.00
Zn973  Zn    0.80125   0.45711   0.72257   0.00000  Uiso   1.00
Zn974  Zn    0.87833   0.52997   0.71188   0.00000  Uiso   1.00
Zn975  Zn    0.79465   0.53868   0.78277   0.00000  Uiso   1.00
C976   C     0.05239   0.82635   0.75908   0.00000  Uiso   1.00
C977   C     0.20349   0.80327   0.95835   0.00000  Uiso   1.00
C978   C     0.22075   0.78067   0.97891   0.00000  Uiso   1.00
C979   C     0.28126   0.84031   0.74096   0.00000  Uiso   1.00
C980   C     0.21407   0.79006   0.51941   0.00000  Uiso   1.00
C981   C     0.19052   0.82367   0.53980   0.00000  Uiso   1.00
C982   C     0.23054   0.76590   0.53972   0.00000  Uiso   1.00
C983   C     0.22297   0.77393   0.58031   0.00000  Uiso   1.00
C984   C     0.17847   0.82794   0.58174   0.00000  Uiso   1.00
C985   C     0.32786   0.84303   0.73678   0.00000  Uiso   1.00
C986   C     0.00714   0.82455   0.76193   0.00000  Uiso   1.00
C987   C     0.12783   0.90927   0.91616   0.00000  Uiso   1.00
C988   C     0.18155   0.98893   0.73750   0.00000  Uiso   1.00
C989   C     0.15183   0.67874   0.76163   0.00000  Uiso   1.00
C990   C     0.15530   0.72294   0.75935   0.00000  Uiso   1.00
C991   C     0.17700   0.94441   0.74121   0.00000  Uiso   1.00
C992   C     0.18851   0.81174   0.64400   0.00000  Uiso   1.00
C993   C     0.14625   0.85555   0.85613   0.00000  Uiso   1.00
C994   C     0.14302   0.87070   0.89808   0.00000  Uiso   1.00
C995   C     0.19669   0.80442   0.60133   0.00000  Uiso   1.00
C996   C     0.12986   0.92406   0.95472   0.00000  Uiso   1.00
C997   C     0.21818   0.67372   0.70775   0.00000  Uiso   1.00
C998   C     0.15866   0.84714   0.91929   0.00000  Uiso   1.00
C999   C     0.14314   0.85110   0.60531   0.00000  Uiso   1.00
C1000  C     0.11153   0.96256   0.97284   0.00000  Uiso   1.00
C1001  C     0.11088   0.93475   0.89535   0.00000  Uiso   1.00
C1002  C     0.16326   0.86195   0.95698   0.00000  Uiso   1.00
C1003  C     0.14883   0.90120   0.97508   0.00000  Uiso   1.00
C1004  C     0.18141   0.83813   0.97723   0.00000  Uiso   1.00
C1005  C     0.17913   0.85062   0.51734   0.00000  Uiso   1.00
C1006  C     0.16975   0.89129   0.53280   0.00000  Uiso   1.00
C1007  C     0.15478   0.91667   0.51252   0.00000  Uiso   1.00
H1008  H     0.24951   0.74090   0.52414   0.00000  Uiso   1.00
H1009  H     0.01075   0.87540   0.69169   0.00000  Uiso   1.00
H1010  H     0.31747   0.80805   0.78530   0.00000  Uiso   1.00
H1011  H     0.12427   0.99848   0.78371   0.00000  Uiso   1.00
H1012  H     0.23665   0.75556   0.59554   0.00000  Uiso   1.00
H1013  H     0.23867   0.75502   0.96309   0.00000  Uiso   1.00
H1014  H     0.16668   0.81659   0.90565   0.00000  Uiso   1.00
H1015  H     0.17647   0.90484   0.56006   0.00000  Uiso   1.00
H1016  H     0.21027   0.79406   0.92713   0.00000  Uiso   1.00
H1017  H     0.15216   0.96232   0.55507   0.00000  Uiso   1.00
N1018  N     0.24735   0.68817   0.68405   0.00000  Uiso   1.00
N1019  N     0.11491   0.86937   0.62424   0.00000  Uiso   1.00
N1020  N     0.09683   0.99322   0.98707   0.00000  Uiso   1.00
N1021  N     0.09737   0.95518   0.87889   0.00000  Uiso   1.00
O1022  O     0.16667   0.83333   0.75000   0.00000  Uiso   1.00
O1023  O     0.15693   0.79060   0.66625   0.00000  Uiso   1.00
O1024  O     0.12687   0.87313   0.83749   0.00000  Uiso   1.00
O1025  O     0.21088   0.84159   0.65877   0.00000  Uiso   1.00
O1026  O     0.17198   0.82802   0.83749   0.00000  Uiso   1.00
O1027  O     0.14692   0.95688   0.52876   0.00000  Uiso   1.00
O1028  O     0.02542   0.86394   0.70779   0.00000  Uiso   1.00
O1029  O     0.17849   0.74768   0.77820   0.00000  Uiso   1.00
O1030  O     0.14581   0.92803   0.76767   0.00000  Uiso   1.00
O1031  O     0.07452   0.79917   0.73607   0.00000  Uiso   1.00
O1032  O     0.26785   0.85845   0.71805   0.00000  Uiso   1.00
O1033  O     0.06990   0.85627   0.77820   0.00000  Uiso   1.00
O1034  O     0.25440   0.81944   0.76767   0.00000  Uiso   1.00
O1035  O     0.13800   0.73570   0.73607   0.00000  Uiso   1.00
O1036  O     0.20437   0.92193   0.71805   0.00000  Uiso   1.00
Zn1037 Zn    0.19244   0.80756   0.78277   0.00000  Uiso   1.00
Zn1038 Zn    0.13459   0.79044   0.72257   0.00000  Uiso   1.00
Zn1039 Zn    0.21166   0.86331   0.71188   0.00000  Uiso   1.00
Zn1040 Zn    0.12798   0.87202   0.78277   0.00000  Uiso   1.00
C1041  C     0.38573   0.82635   0.75908   0.00000  Uiso   1.00
C1042  C     0.53682   0.80327   0.95835   0.00000  Uiso   1.00
C1043  C     0.55409   0.78067   0.97891   0.00000  Uiso   1.00
C1044  C     0.61459   0.84031   0.74096   0.00000  Uiso   1.00
C1045  C     0.54741   0.79006   0.51941   0.00000  Uiso   1.00
C1046  C     0.52385   0.82367   0.53980   0.00000  Uiso   1.00
C1047  C     0.56387   0.76590   0.53972   0.00000  Uiso   1.00
C1048  C     0.55631   0.77393   0.58031   0.00000  Uiso   1.00
C1049  C     0.51180   0.82794   0.58174   0.00000  Uiso   1.00
C1050  C     0.66119   0.84303   0.73678   0.00000  Uiso   1.00
C1051  C     0.34047   0.82455   0.76193   0.00000  Uiso   1.00
C1052  C     0.46117   0.90927   0.91616   0.00000  Uiso   1.00
C1053  C     0.51488   0.98893   0.73750   0.00000  Uiso   1.00
C1054  C     0.48516   0.67874   0.76163   0.00000  Uiso   1.00
C1055  C     0.48863   0.72294   0.75935   0.00000  Uiso   1.00
C1056  C     0.51034   0.94441   0.74121   0.00000  Uiso   1.00
C1057  C     0.52184   0.81174   0.64400   0.00000  Uiso   1.00
C1058  C     0.47958   0.85555   0.85613   0.00000  Uiso   1.00
C1059  C     0.47635   0.87070   0.89808   0.00000  Uiso   1.00
C1060  C     0.53002   0.80442   0.60133   0.00000  Uiso   1.00
C1061  C     0.46320   0.92406   0.95472   0.00000  Uiso   1.00
C1062  C     0.55151   0.67372   0.70775   0.00000  Uiso   1.00
C1063  C     0.49200   0.84714   0.91929   0.00000  Uiso   1.00
C1064  C     0.47647   0.85110   0.60531   0.00000  Uiso   1.00
C1065  C     0.44486   0.96256   0.97284   0.00000  Uiso   1.00
C1066  C     0.44422   0.93475   0.89535   0.00000  Uiso   1.00
C1067  C     0.49659   0.86195   0.95698   0.00000  Uiso   1.00
C1068  C     0.48217   0.90120   0.97508   0.00000  Uiso   1.00
C1069  C     0.51474   0.83813   0.97723   0.00000  Uiso   1.00
C1070  C     0.51246   0.85062   0.51734   0.00000  Uiso   1.00
C1071  C     0.50308   0.89129   0.53280   0.00000  Uiso   1.00
C1072  C     0.48812   0.91667   0.51252   0.00000  Uiso   1.00
H1073  H     0.58284   0.74090   0.52414   0.00000  Uiso   1.00
H1074  H     0.34409   0.87540   0.69169   0.00000  Uiso   1.00
H1075  H     0.65080   0.80805   0.78530   0.00000  Uiso   1.00
H1076  H     0.45760   0.99848   0.78371   0.00000  Uiso   1.00
H1077  H     0.56998   0.75556   0.59554   0.00000  Uiso   1.00
H1078  H     0.57200   0.75502   0.96309   0.00000  Uiso   1.00
H1079  H     0.50001   0.81659   0.90565   0.00000  Uiso   1.00
H1080  H     0.50980   0.90484   0.56006   0.00000  Uiso   1.00
H1081  H     0.54360   0.79406   0.92713   0.00000  Uiso   1.00
H1082  H     0.48550   0.96232   0.55507   0.00000  Uiso   1.00
N1083  N     0.58069   0.68817   0.68405   0.00000  Uiso   1.00
N1084  N     0.44824   0.86937   0.62424   0.00000  Uiso   1.00
N1085  N     0.43016   0.99322   0.98707   0.00000  Uiso   1.00
N1086  N     0.43071   0.95518   0.87889   0.00000  Uiso   1.00
O1087  O     0.50000   0.83333   0.75000   0.00000  Uiso   1.00
O1088  O     0.49027   0.79060   0.66625   0.00000  Uiso   1.00
O1089  O     0.46020   0.87313   0.83749   0.00000  Uiso   1.00
O1090  O     0.54421   0.84159   0.65877   0.00000  Uiso   1.00
O1091  O     0.50532   0.82802   0.83749   0.00000  Uiso   1.00
O1092  O     0.48026   0.95688   0.52876   0.00000  Uiso   1.00
O1093  O     0.35875   0.86394   0.70779   0.00000  Uiso   1.00
O1094  O     0.51182   0.74768   0.77820   0.00000  Uiso   1.00
O1095  O     0.47914   0.92803   0.76767   0.00000  Uiso   1.00
O1096  O     0.40785   0.79917   0.73607   0.00000  Uiso   1.00
O1097  O     0.60119   0.85845   0.71805   0.00000  Uiso   1.00
O1098  O     0.40323   0.85627   0.77820   0.00000  Uiso   1.00
O1099  O     0.58773   0.81944   0.76767   0.00000  Uiso   1.00
O1100  O     0.47133   0.73570   0.73607   0.00000  Uiso   1.00
O1101  O     0.53771   0.92193   0.71805   0.00000  Uiso   1.00
Zn1102 Zn    0.52577   0.80756   0.78277   0.00000  Uiso   1.00
Zn1103 Zn    0.46792   0.79044   0.72257   0.00000  Uiso   1.00
Zn1104 Zn    0.54500   0.86331   0.71188   0.00000  Uiso   1.00
Zn1105 Zn    0.46131   0.87202   0.78277   0.00000  Uiso   1.00
C1106  C     0.71906   0.82635   0.75908   0.00000  Uiso   1.00
C1107  C     0.87016   0.80327   0.95835   0.00000  Uiso   1.00
C1108  C     0.88742   0.78067   0.97891   0.00000  Uiso   1.00
C1109  C     0.94793   0.84031   0.74096   0.00000  Uiso   1.00
C1110  C     0.88074   0.79006   0.51941   0.00000  Uiso   1.00
C1111  C     0.85718   0.82367   0.53980   0.00000  Uiso   1.00
C1112  C     0.89721   0.76590   0.53972   0.00000  Uiso   1.00
C1113  C     0.88964   0.77393   0.58031   0.00000  Uiso   1.00
C1114  C     0.84514   0.82794   0.58174   0.00000  Uiso   1.00
C1115  C     0.99452   0.84303   0.73678   0.00000  Uiso   1.00
C1116  C     0.67380   0.82455   0.76193   0.00000  Uiso   1.00
C1117  C     0.79450   0.90927   0.91616   0.00000  Uiso   1.00
C1118  C     0.84821   0.98893   0.73750   0.00000  Uiso   1.00
C1119  C     0.81849   0.67874   0.76163   0.00000  Uiso   1.00
C1120  C     0.82196   0.72294   0.75935   0.00000  Uiso   1.00
C1121  C     0.84367   0.94441   0.74121   0.00000  Uiso   1.00
C1122  C     0.85518   0.81174   0.64400   0.00000  Uiso   1.00
C1123  C     0.81291   0.85555   0.85613   0.00000  Uiso   1.00
C1124  C     0.80969   0.87070   0.89808   0.00000  Uiso   1.00
C1125  C     0.86335   0.80442   0.60133   0.00000  Uiso   1.00
C1126  C     0.79653   0.92406   0.95472   0.00000  Uiso   1.00
C1127  C     0.88485   0.67372   0.70775   0.00000  Uiso   1.00
C1128  C     0.82533   0.84714   0.91929   0.00000  Uiso   1.00
C1129  C     0.80980   0.85110   0.60531   0.00000  Uiso   1.00
C1130  C     0.77819   0.96256   0.97284   0.00000  Uiso   1.00
C1131  C     0.77755   0.93475   0.89535   0.00000  Uiso   1.00
C1132  C     0.82992   0.86195   0.95698   0.00000  Uiso   1.00
C1133  C     0.81550   0.90120   0.97508   0.00000  Uiso   1.00
C1134  C     0.84807   0.83813   0.97723   0.00000  Uiso   1.00
C1135  C     0.84580   0.85062   0.51734   0.00000  Uiso   1.00
C1136  C     0.83642   0.89129   0.53280   0.00000  Uiso   1.00
C1137  C     0.82145   0.91667   0.51252   0.00000  Uiso   1.00
H1138  H     0.91618   0.74090   0.52414   0.00000  Uiso   1.00
H1139  H     0.67742   0.87540   0.69169   0.00000  Uiso   1.00
H1140  H     0.98414   0.80805   0.78530   0.00000  Uiso   1.00
H1141  H     0.79094   0.99848   0.78371   0.00000  Uiso   1.00
H1142  H     0.90332   0.75556   0.59554   0.00000  Uiso   1.00
H1143  H     0.90533   0.75502   0.96309   0.00000  Uiso   1.00
H1144  H     0.83335   0.81659   0.90565   0.00000  Uiso   1.00
H1145  H     0.84313   0.90484   0.56006   0.00000  Uiso   1.00
H1146  H     0.87693   0.79406   0.92713   0.00000  Uiso   1.00
H1147  H     0.81883   0.96232   0.55507   0.00000  Uiso   1.00
N1148  N     0.91402   0.68817   0.68405   0.00000  Uiso   1.00
N1149  N     0.78157   0.86937   0.62424   0.00000  Uiso   1.00
N1150  N     0.76350   0.99322   0.98707   0.00000  Uiso   1.00
N1151  N     0.76404   0.95518   0.87889   0.00000  Uiso   1.00
O1152  O     0.83333   0.83333   0.75000   0.00000  Uiso   1.00
O1153  O     0.82360   0.79060   0.66625   0.00000  Uiso   1.00
O1154  O     0.79354   0.87313   0.83749   0.00000  Uiso   1.00
O1155  O     0.87755   0.84159   0.65877   0.00000  Uiso   1.00
O1156  O     0.83865   0.82802   0.83749   0.00000  Uiso   1.00
O1157  O     0.81359   0.95688   0.52876   0.00000  Uiso   1.00
O1158  O     0.69208   0.86394   0.70779   0.00000  Uiso   1.00
O1159  O     0.84515   0.74768   0.77820   0.00000  Uiso   1.00
O1160  O     0.81247   0.92803   0.76767   0.00000  Uiso   1.00
O1161  O     0.74119   0.79917   0.73607   0.00000  Uiso   1.00
O1162  O     0.93452   0.85845   0.71805   0.00000  Uiso   1.00
O1163  O     0.73656   0.85627   0.77820   0.00000  Uiso   1.00
O1164  O     0.92106   0.81944   0.76767   0.00000  Uiso   1.00
O1165  O     0.80467   0.73570   0.73607   0.00000  Uiso   1.00
O1166  O     0.87104   0.92193   0.71805   0.00000  Uiso   1.00
Zn1167 Zn    0.85910   0.80756   0.78277   0.00000  Uiso   1.00
Zn1168 Zn    0.80125   0.79044   0.72257   0.00000  Uiso   1.00
Zn1169 Zn    0.87833   0.86331   0.71188   0.00000  Uiso   1.00
Zn1170 Zn    0.79465   0.87202   0.78277   0.00000  Uiso   1.00
loop_
_geom_bond_atom_site_label_1
_geom_bond_atom_site_label_2
_geom_bond_distance
_geom_bond_site_symmetry_2
_ccdc_geom_bond_type
C1     C11     1.440   .     S
C1     O56     1.270   .     A
C1     O58     1.269   .     A
C2     C3      1.389   .     A
C2     C29     1.415   .     A
C2     H41     1.078   .     S
C3     H38     1.084   .     S
C3     C590    1.393   .     S
C4     O57     1.282   .     A
C4     C10     1.471   .     S
C4     O59     1.282   .     A
C5     C6      1.419   .     A
C5     C7      1.401   .     A
C5     C588    1.393   1_554 S
C6     C9      1.424   .     A
C6     C30     1.426   .     A
C7     C8      1.390   .     A
C7     H33     1.084   .     S
C8     C20     1.395   .     A
C8     H37     1.083   .     S
C9     C24     1.453   .     S
C9     C20     1.405   .     A
C10    C76     1.338   .     S
C10    O118    1.386   .     S
C11    C140    1.338   1_455 S
C11    H165    1.086   1_455 S
C12    C19     1.417   .     A
C12    C21     1.410   .     A
C12    C26     1.453   .     S
C13    C16     1.455   .     S
C13    C209    1.338   .     S
C13    C217    1.453   .     S
C14    C15     1.438   .     S
C14    C403    1.338   1_545 S
C14    H426    1.086   1_545 S
C15    O60     1.279   .     A
C15    O54     1.278   .     A
C16    O55     1.272   .     A
C16    O61     1.266   .     A
C17    O50     1.272   .     A
C17    O48     1.271   .     A
C17    C20     1.458   .     S
C18    O51     1.295   .     A
C18    O49     1.282   .     A
C18    C19     1.487   .     S
C19    C23     1.394   .     A
C21    C28     1.426   .     A
C21    C25     1.454   .     S
C22    N43     1.157   .     T
C22    C403    1.453   1_545 S
C23    C27     1.407   .     A
C23    H39     1.077   .     S
C24    N44     1.157   .     T
C25    N45     1.158   .     T
C26    N46     1.158   .     T
C27    C29     1.427   .     A
C27    C28     1.428   .     A
C28    C617    1.419   .     S
C29    C615    1.416   .     S
C30    C31     1.402   .     A
C30    C614    1.416   1_554 S
C31    C32     1.398   .     A
C31    H40     1.080   .     S
C32    O52     1.383   .     S
C32    C613    1.419   1_554 S
H34    O53     0.990   .     S
H35    C76     1.086   .     S
H36    C209    1.086   .     S
H42    O52     0.992   .     S
O47    Zn64    1.926   .     S
O47    Zn62    1.967   .     S
O47    Zn63    1.942   .     S
O47    Zn65    1.932   .     S
O48    Zn63    1.926   .     S
O49    Zn65    1.941   .     S
O50    Zn64    1.934   .     S
O51    Zn62    1.923   .     S
O53    C140    1.386   1_455 S
O54    Zn62    1.928   .     S
O55    Zn65    1.930   .     S
O56    Zn63    1.927   .     S
O57    Zn64    1.941   .     S
O58    Zn65    1.932   .     S
O59    Zn62    1.920   .     S
O60    Zn63    1.940   .     S
O61    Zn64    1.933   .     S
C66    C76     1.440   .     S
C66    O121    1.270   .     A
C66    O123    1.269   .     A
C67    C68     1.389   .     A
C67    C94     1.415   .     A
C67    H106    1.078   .     S
C68    H103    1.084   .     S
C68    C655    1.393   .     S
C69    O122    1.282   .     A
C69    C75     1.471   .     S
C69    O124    1.282   .     A
C70    C71     1.419   .     A
C70    C72     1.401   .     A
C70    C653    1.393   1_554 S
C71    C74     1.424   .     A
C71    C95     1.426   .     A
C72    C73     1.390   .     A
C72    H98     1.084   .     S
C73    C85     1.395   .     A
C73    H102    1.083   .     S
C74    C89     1.453   .     S
C74    C85     1.405   .     A
C75    C141    1.338   .     S
C75    O183    1.386   .     S
C77    C84     1.417   .     A
C77    C86     1.410   .     A
C77    C91     1.453   .     S
C78    C81     1.455   .     S
C78    C274    1.338   .     S
C78    C282    1.453   .     S
C79    C80     1.438   .     S
C79    C468    1.338   1_545 S
C79    H491    1.086   1_545 S
C80    O125    1.279   .     A
C80    O119    1.278   .     A
C81    O120    1.272   .     A
C81    O126    1.266   .     A
C82    O115    1.272   .     A
C82    O113    1.271   .     A
C82    C85     1.458   .     S
C83    O116    1.295   .     A
C83    O114    1.282   .     A
C83    C84     1.487   .     S
C84    C88     1.394   .     A
C86    C93     1.426   .     A
C86    C90     1.454   .     S
C87    N108    1.157   .     T
C87    C468    1.453   1_545 S
C88    C92     1.407   .     A
C88    H104    1.077   .     S
C89    N109    1.157   .     T
C90    N110    1.158   .     T
C91    N111    1.158   .     T
C92    C94     1.427   .     A
C92    C93     1.428   .     A
C93    C682    1.419   .     S
C94    C680    1.416   .     S
C95    C96     1.402   .     A
C95    C679    1.416   1_554 S
C96    C97     1.398   .     A
C96    H105    1.080   .     S
C97    O117    1.383   .     S
C97    C678    1.419   1_554 S
H99    O118    0.990   .     S
H100   C141    1.086   .     S
H101   C274    1.086   .     S
H107   O117    0.992   .     S
O112   Zn129   1.926   .     S
O112   Zn127   1.967   .     S
O112   Zn128   1.942   .     S
O112   Zn130   1.932   .     S
O113   Zn128   1.926   .     S
O114   Zn130   1.941   .     S
O115   Zn129   1.934   .     S
O116   Zn127   1.923   .     S
O119   Zn127   1.928   .     S
O120   Zn130   1.930   .     S
O121   Zn128   1.927   .     S
O122   Zn129   1.941   .     S
O123   Zn130   1.932   .     S
O124   Zn127   1.920   .     S
O125   Zn128   1.940   .     S
O126   Zn129   1.933   .     S
C131   C141    1.440   .     S
C131   O186    1.270   .     A
C131   O188    1.269   .     A
C132   C133    1.389   .     A
C132   C159    1.415   .     A
C132   H171    1.078   .     S
C133   H168    1.084   .     S
C133   C720    1.393   .     S
C134   O187    1.282   .     A
C134   C140    1.471   .     S
C134   O189    1.282   .     A
C135   C136    1.419   .     A
C135   C137    1.401   .     A
C135   C718    1.393   1_554 S
C136   C139    1.424   .     A
C136   C160    1.426   .     A
C137   C138    1.390   .     A
C137   H163    1.084   .     S
C138   C150    1.395   .     A
C138   H167    1.083   .     S
C139   C154    1.453   .     S
C139   C150    1.405   .     A
C140   C11     1.338   1_655 S
C140   O53     1.386   1_655 S
C142   C149    1.417   .     A
C142   C151    1.410   .     A
C142   C156    1.453   .     S
C143   C146    1.455   .     S
C143   C339    1.338   .     S
C143   C347    1.453   .     S
C144   C145    1.438   .     S
C144   C533    1.338   1_545 S
C144   H556    1.086   1_545 S
C145   O190    1.279   .     A
C145   O184    1.278   .     A
C146   O185    1.272   .     A
C146   O191    1.266   .     A
C147   O180    1.272   .     A
C147   O178    1.271   .     A
C147   C150    1.458   .     S
C148   O181    1.295   .     A
C148   O179    1.282   .     A
C148   C149    1.487   .     S
C149   C153    1.394   .     A
C151   C158    1.426   .     A
C151   C155    1.454   .     S
C152   N173    1.157   .     T
C152   C533    1.453   1_545 S
C153   C157    1.407   .     A
C153   H169    1.077   .     S
C154   N174    1.157   .     T
C155   N175    1.158   .     T
C156   N176    1.158   .     T
C157   C159    1.427   .     A
C157   C158    1.428   .     A
C158   C747    1.419   .     S
C159   C745    1.416   .     S
C160   C161    1.402   .     A
C160   C744    1.416   1_554 S
C161   C162    1.398   .     A
C161   H170    1.080   .     S
C162   O182    1.383   .     S
C162   C743    1.419   1_554 S
H164   O183    0.990   .     S
H165   C11     1.086   1_655 S
H166   C339    1.086   .     S
H172   O182    0.992   .     S
O177   Zn194   1.926   .     S
O177   Zn192   1.967   .     S
O177   Zn193   1.942   .     S
O177   Zn195   1.932   .     S
O178   Zn193   1.926   .     S
O179   Zn195   1.941   .     S
O180   Zn194   1.934   .     S
O181   Zn192   1.923   .     S
O184   Zn192   1.928   .     S
O185   Zn195   1.930   .     S
O186   Zn193   1.927   .     S
O187   Zn194   1.941   .     S
O188   Zn195   1.932   .     S
O189   Zn192   1.920   .     S
O190   Zn193   1.940   .     S
O191   Zn194   1.933   .     S
C196   C206    1.440   .     S
C196   O251    1.270   .     A
C196   O253    1.269   .     A
C197   C198    1.389   .     A
C197   C224    1.415   .     A
C197   H236    1.078   .     S
C198   H233    1.084   .     S
C198   C785    1.393   .     S
C199   O252    1.282   .     A
C199   C205    1.471   .     S
C199   O254    1.282   .     A
C200   C201    1.419   .     A
C200   C202    1.401   .     A
C200   C783    1.393   1_554 S
C201   C204    1.424   .     A
C201   C225    1.426   .     A
C202   C203    1.390   .     A
C202   H228    1.084   .     S
C203   C215    1.395   .     A
C203   H232    1.083   .     S
C204   C219    1.453   .     S
C204   C215    1.405   .     A
C205   C271    1.338   .     S
C205   O313    1.386   .     S
C206   C335    1.338   1_455 S
C206   H360    1.086   1_455 S
C207   C214    1.417   .     A
C207   C216    1.410   .     A
C207   C221    1.453   .     S
C208   C211    1.455   .     S
C208   C404    1.338   .     S
C208   C412    1.453   .     S
C209   C210    1.438   .     S
C210   O255    1.279   .     A
C210   O249    1.278   .     A
C211   O250    1.272   .     A
C211   O256    1.266   .     A
C212   O245    1.272   .     A
C212   O243    1.271   .     A
C212   C215    1.458   .     S
C213   O246    1.295   .     A
C213   O244    1.282   .     A
C213   C214    1.487   .     S
C214   C218    1.394   .     A
C216   C223    1.426   .     A
C216   C220    1.454   .     S
C217   N238    1.157   .     T
C218   C222    1.407   .     A
C218   H234    1.077   .     S
C219   N239    1.157   .     T
C220   N240    1.158   .     T
C221   N241    1.158   .     T
C222   C224    1.427   .     A
C222   C223    1.428   .     A
C223   C812    1.419   .     S
C224   C810    1.416   .     S
C225   C226    1.402   .     A
C225   C809    1.416   1_554 S
C226   C227    1.398   .     A
C226   H235    1.080   .     S
C227   O247    1.383   .     S
C227   C808    1.419   1_554 S
H229   O248    0.990   .     S
H230   C271    1.086   .     S
H231   C404    1.086   .     S
H237   O247    0.992   .     S
O242   Zn259   1.926   .     S
O242   Zn257   1.967   .     S
O242   Zn258   1.942   .     S
O242   Zn260   1.932   .     S
O243   Zn258   1.926   .     S
O244   Zn260   1.941   .     S
O245   Zn259   1.934   .     S
O246   Zn257   1.923   .     S
O248   C335    1.386   1_455 S
O249   Zn257   1.928   .     S
O250   Zn260   1.930   .     S
O251   Zn258   1.927   .     S
O252   Zn259   1.941   .     S
O253   Zn260   1.932   .     S
O254   Zn257   1.920   .     S
O255   Zn258   1.940   .     S
O256   Zn259   1.933   .     S
C261   C271    1.440   .     S
C261   O316    1.270   .     A
C261   O318    1.269   .     A
C262   C263    1.389   .     A
C262   C289    1.415   .     A
C262   H301    1.078   .     S
C263   H298    1.084   .     S
C263   C850    1.393   .     S
C264   O317    1.282   .     A
C264   C270    1.471   .     S
C264   O319    1.282   .     A
C265   C266    1.419   .     A
C265   C267    1.401   .     A
C265   C848    1.393   1_554 S
C266   C269    1.424   .     A
C266   C290    1.426   .     A
C267   C268    1.390   .     A
C267   H293    1.084   .     S
C268   C280    1.395   .     A
C268   H297    1.083   .     S
C269   C284    1.453   .     S
C269   C280    1.405   .     A
C270   C336    1.338   .     S
C270   O378    1.386   .     S
C272   C279    1.417   .     A
C272   C281    1.410   .     A
C272   C286    1.453   .     S
C273   C276    1.455   .     S
C273   C469    1.338   .     S
C273   C477    1.453   .     S
C274   C275    1.438   .     S
C275   O320    1.279   .     A
C275   O314    1.278   .     A
C276   O315    1.272   .     A
C276   O321    1.266   .     A
C277   O310    1.272   .     A
C277   O308    1.271   .     A
C277   C280    1.458   .     S
C278   O311    1.295   .     A
C278   O309    1.282   .     A
C278   C279    1.487   .     S
C279   C283    1.394   .     A
C281   C288    1.426   .     A
C281   C285    1.454   .     S
C282   N303    1.157   .     T
C283   C287    1.407   .     A
C283   H299    1.077   .     S
C284   N304    1.157   .     T
C285   N305    1.158   .     T
C286   N306    1.158   .     T
C287   C289    1.427   .     A
C287   C288    1.428   .     A
C288   C877    1.419   .     S
C289   C875    1.416   .     S
C290   C291    1.402   .     A
C290   C874    1.416   1_554 S
C291   C292    1.398   .     A
C291   H300    1.080   .     S
C292   O312    1.383   .     S
C292   C873    1.419   1_554 S
H294   O313    0.990   .     S
H295   C336    1.086   .     S
H296   C469    1.086   .     S
H302   O312    0.992   .     S
O307   Zn324   1.926   .     S
O307   Zn322   1.967   .     S
O307   Zn323   1.942   .     S
O307   Zn325   1.932   .     S
O308   Zn323   1.926   .     S
O309   Zn325   1.941   .     S
O310   Zn324   1.934   .     S
O311   Zn322   1.923   .     S
O314   Zn322   1.928   .     S
O315   Zn325   1.930   .     S
O316   Zn323   1.927   .     S
O317   Zn324   1.941   .     S
O318   Zn325   1.932   .     S
O319   Zn322   1.920   .     S
O320   Zn323   1.940   .     S
O321   Zn324   1.933   .     S
C326   C336    1.440   .     S
C326   O381    1.270   .     A
C326   O383    1.269   .     A
C327   C328    1.389   .     A
C327   C354    1.415   .     A
C327   H366    1.078   .     S
C328   H363    1.084   .     S
C328   C915    1.393   .     S
C329   O382    1.282   .     A
C329   C335    1.471   .     S
C329   O384    1.282   .     A
C330   C331    1.419   .     A
C330   C332    1.401   .     A
C330   C913    1.393   1_554 S
C331   C334    1.424   .     A
C331   C355    1.426   .     A
C332   C333    1.390   .     A
C332   H358    1.084   .     S
C333   C345    1.395   .     A
C333   H362    1.083   .     S
C334   C349    1.453   .     S
C334   C345    1.405   .     A
C335   C206    1.338   1_655 S
C335   O248    1.386   1_655 S
C337   C344    1.417   .     A
C337   C346    1.410   .     A
C337   C351    1.453   .     S
C338   C341    1.455   .     S
C338   C534    1.338   .     S
C338   C542    1.453   .     S
C339   C340    1.438   .     S
C340   O385    1.279   .     A
C340   O379    1.278   .     A
C341   O380    1.272   .     A
C341   O386    1.266   .     A
C342   O375    1.272   .     A
C342   O373    1.271   .     A
C342   C345    1.458   .     S
C343   O376    1.295   .     A
C343   O374    1.282   .     A
C343   C344    1.487   .     S
C344   C348    1.394   .     A
C346   C353    1.426   .     A
C346   C350    1.454   .     S
C347   N368    1.157   .     T
C348   C352    1.407   .     A
C348   H364    1.077   .     S
C349   N369    1.157   .     T
C350   N370    1.158   .     T
C351   N371    1.158   .     T
C352   C354    1.427   .     A
C352   C353    1.428   .     A
C353   C942    1.419   .     S
C354   C940    1.416   .     S
C355   C356    1.402   .     A
C355   C939    1.416   1_554 S
C356   C357    1.398   .     A
C356   H365    1.080   .     S
C357   O377    1.383   .     S
C357   C938    1.419   1_554 S
H359   O378    0.990   .     S
H360   C206    1.086   1_655 S
H361   C534    1.086   .     S
H367   O377    0.992   .     S
O372   Zn389   1.926   .     S
O372   Zn387   1.967   .     S
O372   Zn388   1.942   .     S
O372   Zn390   1.932   .     S
O373   Zn388   1.926   .     S
O374   Zn390   1.941   .     S
O375   Zn389   1.934   .     S
O376   Zn387   1.923   .     S
O379   Zn387   1.928   .     S
O380   Zn390   1.930   .     S
O381   Zn388   1.927   .     S
O382   Zn389   1.941   .     S
O383   Zn390   1.932   .     S
O384   Zn387   1.920   .     S
O385   Zn388   1.940   .     S
O386   Zn389   1.933   .     S
C391   C401    1.440   .     S
C391   O446    1.270   .     A
C391   O448    1.269   .     A
C392   C393    1.389   .     A
C392   C419    1.415   .     A
C392   H431    1.078   .     S
C393   H428    1.084   .     S
C393   C980    1.393   .     S
C394   O447    1.282   .     A
C394   C400    1.471   .     S
C394   O449    1.282   .     A
C395   C396    1.419   .     A
C395   C397    1.401   .     A
C395   C978    1.393   1_554 S
C396   C399    1.424   .     A
C396   C420    1.426   .     A
C397   C398    1.390   .     A
C397   H423    1.084   .     S
C398   C410    1.395   .     A
C398   H427    1.083   .     S
C399   C414    1.453   .     S
C399   C410    1.405   .     A
C400   C466    1.338   .     S
C400   O508    1.386   .     S
C401   C530    1.338   1_455 S
C401   H555    1.086   1_455 S
C402   C409    1.417   .     A
C402   C411    1.410   .     A
C402   C416    1.453   .     S
C403   C406    1.455   .     S
C403   C14     1.338   1_565 S
C403   C22     1.453   1_565 S
C404   C405    1.438   .     S
C405   O450    1.279   .     A
C405   O444    1.278   .     A
C406   O445    1.272   .     A
C406   O451    1.266   .     A
C407   O440    1.272   .     A
C407   O438    1.271   .     A
C407   C410    1.458   .     S
C408   O441    1.295   .     A
C408   O439    1.282   .     A
C408   C409    1.487   .     S
C409   C413    1.394   .     A
C411   C418    1.426   .     A
C411   C415    1.454   .     S
C412   N433    1.157   .     T
C413   C417    1.407   .     A
C413   H429    1.077   .     S
C414   N434    1.157   .     T
C415   N435    1.158   .     T
C416   N436    1.158   .     T
C417   C419    1.427   .     A
C417   C418    1.428   .     A
C418   C1007   1.419   .     S
C419   C1005   1.416   .     S
C420   C421    1.402   .     A
C420   C1004   1.416   1_554 S
C421   C422    1.398   .     A
C421   H430    1.080   .     S
C422   O442    1.383   .     S
C422   C1003   1.419   1_554 S
H424   O443    0.990   .     S
H425   C466    1.086   .     S
H426   C14     1.086   1_565 S
H432   O442    0.992   .     S
O437   Zn454   1.926   .     S
O437   Zn452   1.967   .     S
O437   Zn453   1.942   .     S
O437   Zn455   1.932   .     S
O438   Zn453   1.926   .     S
O439   Zn455   1.941   .     S
O440   Zn454   1.934   .     S
O441   Zn452   1.923   .     S
O443   C530    1.386   1_455 S
O444   Zn452   1.928   .     S
O445   Zn455   1.930   .     S
O446   Zn453   1.927   .     S
O447   Zn454   1.941   .     S
O448   Zn455   1.932   .     S
O449   Zn452   1.920   .     S
O450   Zn453   1.940   .     S
O451   Zn454   1.933   .     S
C456   C466    1.440   .     S
C456   O511    1.270   .     A
C456   O513    1.269   .     A
C457   C458    1.389   .     A
C457   C484    1.415   .     A
C457   H496    1.078   .     S
C458   H493    1.084   .     S
C458   C1045   1.393   .     S
C459   O512    1.282   .     A
C459   C465    1.471   .     S
C459   O514    1.282   .     A
C460   C461    1.419   .     A
C460   C462    1.401   .     A
C460   C1043   1.393   1_554 S
C461   C464    1.424   .     A
C461   C485    1.426   .     A
C462   C463    1.390   .     A
C462   H488    1.084   .     S
C463   C475    1.395   .     A
C463   H492    1.083   .     S
C464   C479    1.453   .     S
C464   C475    1.405   .     A
C465   C531    1.338   .     S
C465   O573    1.386   .     S
C467   C474    1.417   .     A
C467   C476    1.410   .     A
C467   C481    1.453   .     S
C468   C471    1.455   .     S
C468   C79     1.338   1_565 S
C468   C87     1.453   1_565 S
C469   C470    1.438   .     S
C470   O515    1.279   .     A
C470   O509    1.278   .     A
C471   O510    1.272   .     A
C471   O516    1.266   .     A
C472   O505    1.272   .     A
C472   O503    1.271   .     A
C472   C475    1.458   .     S
C473   O506    1.295   .     A
C473   O504    1.282   .     A
C473   C474    1.487   .     S
C474   C478    1.394   .     A
C476   C483    1.426   .     A
C476   C480    1.454   .     S
C477   N498    1.157   .     T
C478   C482    1.407   .     A
C478   H494    1.077   .     S
C479   N499    1.157   .     T
C480   N500    1.158   .     T
C481   N501    1.158   .     T
C482   C484    1.427   .     A
C482   C483    1.428   .     A
C483   C1072   1.419   .     S
C484   C1070   1.416   .     S
C485   C486    1.402   .     A
C485   C1069   1.416   1_554 S
C486   C487    1.398   .     A
C486   H495    1.080   .     S
C487   O507    1.383   .     S
C487   C1068   1.419   1_554 S
H489   O508    0.990   .     S
H490   C531    1.086   .     S
H491   C79     1.086   1_565 S
H497   O507    0.992   .     S
O502   Zn519   1.926   .     S
O502   Zn517   1.967   .     S
O502   Zn518   1.942   .     S
O502   Zn520   1.932   .     S
O503   Zn518   1.926   .     S
O504   Zn520   1.941   .     S
O505   Zn519   1.934   .     S
O506   Zn517   1.923   .     S
O509   Zn517   1.928   .     S
O510   Zn520   1.930   .     S
O511   Zn518   1.927   .     S
O512   Zn519   1.941   .     S
O513   Zn520   1.932   .     S
O514   Zn517   1.920   .     S
O515   Zn518   1.940   .     S
O516   Zn519   1.933   .     S
C521   C531    1.440   .     S
C521   O576    1.270   .     A
C521   O578    1.269   .     A
C522   C523    1.389   .     A
C522   C549    1.415   .     A
C522   H561    1.078   .     S
C523   H558    1.084   .     S
C523   C1110   1.393   .     S
C524   O577    1.282   .     A
C524   C530    1.471   .     S
C524   O579    1.282   .     A
C525   C526    1.419   .     A
C525   C527    1.401   .     A
C525   C1108   1.393   1_554 S
C526   C529    1.424   .     A
C526   C550    1.426   .     A
C527   C528    1.390   .     A
C527   H553    1.084   .     S
C528   C540    1.395   .     A
C528   H557    1.083   .     S
C529   C544    1.453   .     S
C529   C540    1.405   .     A
C530   C401    1.338   1_655 S
C530   O443    1.386   1_655 S
C532   C539    1.417   .     A
C532   C541    1.410   .     A
C532   C546    1.453   .     S
C533   C536    1.455   .     S
C533   C144    1.338   1_565 S
C533   C152    1.453   1_565 S
C534   C535    1.438   .     S
C535   O580    1.279   .     A
C535   O574    1.278   .     A
C536   O575    1.272   .     A
C536   O581    1.266   .     A
C537   O570    1.272   .     A
C537   O568    1.271   .     A
C537   C540    1.458   .     S
C538   O571    1.295   .     A
C538   O569    1.282   .     A
C538   C539    1.487   .     S
C539   C543    1.394   .     A
C541   C548    1.426   .     A
C541   C545    1.454   .     S
C542   N563    1.157   .     T
C543   C547    1.407   .     A
C543   H559    1.077   .     S
C544   N564    1.157   .     T
C545   N565    1.158   .     T
C546   N566    1.158   .     T
C547   C549    1.427   .     A
C547   C548    1.428   .     A
C548   C1137   1.419   .     S
C549   C1135   1.416   .     S
C550   C551    1.402   .     A
C550   C1134   1.416   1_554 S
C551   C552    1.398   .     A
C551   H560    1.080   .     S
C552   O572    1.383   .     S
C552   C1133   1.419   1_554 S
H554   O573    0.990   .     S
H555   C401    1.086   1_655 S
H556   C144    1.086   1_565 S
H562   O572    0.992   .     S
O567   Zn584   1.926   .     S
O567   Zn582   1.967   .     S
O567   Zn583   1.942   .     S
O567   Zn585   1.932   .     S
O568   Zn583   1.926   .     S
O569   Zn585   1.941   .     S
O570   Zn584   1.934   .     S
O571   Zn582   1.923   .     S
O574   Zn582   1.928   .     S
O575   Zn585   1.930   .     S
O576   Zn583   1.927   .     S
O577   Zn584   1.941   .     S
O578   Zn585   1.932   .     S
O579   Zn582   1.920   .     S
O580   Zn583   1.940   .     S
O581   Zn584   1.933   .     S
C586   C596    1.440   .     S
C586   O641    1.270   .     A
C586   O643    1.269   .     A
C587   C588    1.389   .     A
C587   C614    1.415   .     A
C587   H626    1.078   .     S
C588   H623    1.084   .     S
C588   C5      1.393   1_556 S
C589   O642    1.282   .     A
C589   C595    1.471   .     S
C589   O644    1.282   .     A
C590   C591    1.419   .     A
C590   C592    1.401   .     A
C591   C594    1.424   .     A
C591   C615    1.426   .     A
C592   C593    1.390   .     A
C592   H618    1.084   .     S
C593   C605    1.395   .     A
C593   H622    1.083   .     S
C594   C609    1.453   .     S
C594   C605    1.405   .     A
C595   C661    1.338   .     S
C595   O703    1.386   .     S
C596   C725    1.338   1_455 S
C596   H750    1.086   1_455 S
C597   C604    1.417   .     A
C597   C606    1.410   .     A
C597   C611    1.453   .     S
C598   C601    1.455   .     S
C598   C794    1.338   .     S
C598   C802    1.453   .     S
C599   C600    1.438   .     S
C599   C988    1.338   1_545 S
C599   H1011   1.086   1_545 S
C600   O645    1.279   .     A
C600   O639    1.278   .     A
C601   O640    1.272   .     A
C601   O646    1.266   .     A
C602   O635    1.272   .     A
C602   O633    1.271   .     A
C602   C605    1.458   .     S
C603   O636    1.295   .     A
C603   O634    1.282   .     A
C603   C604    1.487   .     S
C604   C608    1.394   .     A
C606   C613    1.426   .     A
C606   C610    1.454   .     S
C607   N628    1.157   .     T
C607   C988    1.453   1_545 S
C608   C612    1.407   .     A
C608   H624    1.077   .     S
C609   N629    1.157   .     T
C610   N630    1.158   .     T
C611   N631    1.158   .     T
C612   C614    1.427   .     A
C612   C613    1.428   .     A
C613   C32     1.419   1_556 S
C614   C30     1.416   1_556 S
C615   C616    1.402   .     A
C616   C617    1.398   .     A
C616   H625    1.080   .     S
C617   O637    1.383   .     S
H619   O638    0.990   .     S
H620   C661    1.086   .     S
H621   C794    1.086   .     S
H627   O637    0.992   .     S
O632   Zn649   1.926   .     S
O632   Zn647   1.967   .     S
O632   Zn648   1.942   .     S
O632   Zn650   1.932   .     S
O633   Zn648   1.926   .     S
O634   Zn650   1.941   .     S
O635   Zn649   1.934   .     S
O636   Zn647   1.923   .     S
O638   C725    1.386   1_455 S
O639   Zn647   1.928   .     S
O640   Zn650   1.930   .     S
O641   Zn648   1.927   .     S
O642   Zn649   1.941   .     S
O643   Zn650   1.932   .     S
O644   Zn647   1.920   .     S
O645   Zn648   1.940   .     S
O646   Zn649   1.933   .     S
C651   C661    1.440   .     S
C651   O706    1.270   .     A
C651   O708    1.269   .     A
C652   C653    1.389   .     A
C652   C679    1.415   .     A
C652   H691    1.078   .     S
C653   H688    1.084   .     S
C653   C70     1.393   1_556 S
C654   O707    1.282   .     A
C654   C660    1.471   .     S
C654   O709    1.282   .     A
C655   C656    1.419   .     A
C655   C657    1.401   .     A
C656   C659    1.424   .     A
C656   C680    1.426   .     A
C657   C658    1.390   .     A
C657   H683    1.084   .     S
C658   C670    1.395   .     A
C658   H687    1.083   .     S
C659   C674    1.453   .     S
C659   C670    1.405   .     A
C660   C726    1.338   .     S
C660   O768    1.386   .     S
C662   C669    1.417   .     A
C662   C671    1.410   .     A
C662   C676    1.453   .     S
C663   C666    1.455   .     S
C663   C859    1.338   .     S
C663   C867    1.453   .     S
C664   C665    1.438   .     S
C664   C1053   1.338   1_545 S
C664   H1076   1.086   1_545 S
C665   O710    1.279   .     A
C665   O704    1.278   .     A
C666   O705    1.272   .     A
C666   O711    1.266   .     A
C667   O700    1.272   .     A
C667   O698    1.271   .     A
C667   C670    1.458   .     S
C668   O701    1.295   .     A
C668   O699    1.282   .     A
C668   C669    1.487   .     S
C669   C673    1.394   .     A
C671   C678    1.426   .     A
C671   C675    1.454   .     S
C672   N693    1.157   .     T
C672   C1053   1.453   1_545 S
C673   C677    1.407   .     A
C673   H689    1.077   .     S
C674   N694    1.157   .     T
C675   N695    1.158   .     T
C676   N696    1.158   .     T
C677   C679    1.427   .     A
C677   C678    1.428   .     A
C678   C97     1.419   1_556 S
C679   C95     1.416   1_556 S
C680   C681    1.402   .     A
C681   C682    1.398   .     A
C681   H690    1.080   .     S
C682   O702    1.383   .     S
H684   O703    0.990   .     S
H685   C726    1.086   .     S
H686   C859    1.086   .     S
H692   O702    0.992   .     S
O697   Zn714   1.926   .     S
O697   Zn712   1.967   .     S
O697   Zn713   1.942   .     S
O697   Zn715   1.932   .     S
O698   Zn713   1.926   .     S
O699   Zn715   1.941   .     S
O700   Zn714   1.934   .     S
O701   Zn712   1.923   .     S
O704   Zn712   1.928   .     S
O705   Zn715   1.930   .     S
O706   Zn713   1.927   .     S
O707   Zn714   1.941   .     S
O708   Zn715   1.932   .     S
O709   Zn712   1.920   .     S
O710   Zn713   1.940   .     S
O711   Zn714   1.933   .     S
C716   C726    1.440   .     S
C716   O771    1.270   .     A
C716   O773    1.269   .     A
C717   C718    1.389   .     A
C717   C744    1.415   .     A
C717   H756    1.078   .     S
C718   H753    1.084   .     S
C718   C135    1.393   1_556 S
C719   O772    1.282   .     A
C719   C725    1.471   .     S
C719   O774    1.282   .     A
C720   C721    1.419   .     A
C720   C722    1.401   .     A
C721   C724    1.424   .     A
C721   C745    1.426   .     A
C722   C723    1.390   .     A
C722   H748    1.084   .     S
C723   C735    1.395   .     A
C723   H752    1.083   .     S
C724   C739    1.453   .     S
C724   C735    1.405   .     A
C725   C596    1.338   1_655 S
C725   O638    1.386   1_655 S
C727   C734    1.417   .     A
C727   C736    1.410   .     A
C727   C741    1.453   .     S
C728   C731    1.455   .     S
C728   C924    1.338   .     S
C728   C932    1.453   .     S
C729   C730    1.438   .     S
C729   C1118   1.338   1_545 S
C729   H1141   1.086   1_545 S
C730   O775    1.279   .     A
C730   O769    1.278   .     A
C731   O770    1.272   .     A
C731   O776    1.266   .     A
C732   O765    1.272   .     A
C732   O763    1.271   .     A
C732   C735    1.458   .     S
C733   O766    1.295   .     A
C733   O764    1.282   .     A
C733   C734    1.487   .     S
C734   C738    1.394   .     A
C736   C743    1.426   .     A
C736   C740    1.454   .     S
C737   N758    1.157   .     T
C737   C1118   1.453   1_545 S
C738   C742    1.407   .     A
C738   H754    1.077   .     S
C739   N759    1.157   .     T
C740   N760    1.158   .     T
C741   N761    1.158   .     T
C742   C744    1.427   .     A
C742   C743    1.428   .     A
C743   C162    1.419   1_556 S
C744   C160    1.416   1_556 S
C745   C746    1.402   .     A
C746   C747    1.398   .     A
C746   H755    1.080   .     S
C747   O767    1.383   .     S
H749   O768    0.990   .     S
H750   C596    1.086   1_655 S
H751   C924    1.086   .     S
H757   O767    0.992   .     S
O762   Zn779   1.926   .     S
O762   Zn777   1.967   .     S
O762   Zn778   1.942   .     S
O762   Zn780   1.932   .     S
O763   Zn778   1.926   .     S
O764   Zn780   1.941   .     S
O765   Zn779   1.934   .     S
O766   Zn777   1.923   .     S
O769   Zn777   1.928   .     S
O770   Zn780   1.930   .     S
O771   Zn778   1.927   .     S
O772   Zn779   1.941   .     S
O773   Zn780   1.932   .     S
O774   Zn777   1.920   .     S
O775   Zn778   1.940   .     S
O776   Zn779   1.933   .     S
C781   C791    1.440   .     S
C781   O836    1.270   .     A
C781   O838    1.269   .     A
C782   C783    1.389   .     A
C782   C809    1.415   .     A
C782   H821    1.078   .     S
C783   H818    1.084   .     S
C783   C200    1.393   1_556 S
C784   O837    1.282   .     A
C784   C790    1.471   .     S
C784   O839    1.282   .     A
C785   C786    1.419   .     A
C785   C787    1.401   .     A
C786   C789    1.424   .     A
C786   C810    1.426   .     A
C787   C788    1.390   .     A
C787   H813    1.084   .     S
C788   C800    1.395   .     A
C788   H817    1.083   .     S
C789   C804    1.453   .     S
C789   C800    1.405   .     A
C790   C856    1.338   .     S
C790   O898    1.386   .     S
C791   C920    1.338   1_455 S
C791   H945    1.086   1_455 S
C792   C799    1.417   .     A
C792   C801    1.410   .     A
C792   C806    1.453   .     S
C793   C796    1.455   .     S
C793   C989    1.338   .     S
C793   C997    1.453   .     S
C794   C795    1.438   .     S
C795   O840    1.279   .     A
C795   O834    1.278   .     A
C796   O835    1.272   .     A
C796   O841    1.266   .     A
C797   O830    1.272   .     A
C797   O828    1.271   .     A
C797   C800    1.458   .     S
C798   O831    1.295   .     A
C798   O829    1.282   .     A
C798   C799    1.487   .     S
C799   C803    1.394   .     A
C801   C808    1.426   .     A
C801   C805    1.454   .     S
C802   N823    1.157   .     T
C803   C807    1.407   .     A
C803   H819    1.077   .     S
C804   N824    1.157   .     T
C805   N825    1.158   .     T
C806   N826    1.158   .     T
C807   C809    1.427   .     A
C807   C808    1.428   .     A
C808   C227    1.419   1_556 S
C809   C225    1.416   1_556 S
C810   C811    1.402   .     A
C811   C812    1.398   .     A
C811   H820    1.080   .     S
C812   O832    1.383   .     S
H814   O833    0.990   .     S
H815   C856    1.086   .     S
H816   C989    1.086   .     S
H822   O832    0.992   .     S
O827   Zn844   1.926   .     S
O827   Zn842   1.967   .     S
O827   Zn843   1.942   .     S
O827   Zn845   1.932   .     S
O828   Zn843   1.926   .     S
O829   Zn845   1.941   .     S
O830   Zn844   1.934   .     S
O831   Zn842   1.923   .     S
O833   C920    1.386   1_455 S
O834   Zn842   1.928   .     S
O835   Zn845   1.930   .     S
O836   Zn843   1.927   .     S
O837   Zn844   1.941   .     S
O838   Zn845   1.932   .     S
O839   Zn842   1.920   .     S
O840   Zn843   1.940   .     S
O841   Zn844   1.933   .     S
C846   C856    1.440   .     S
C846   O901    1.270   .     A
C846   O903    1.269   .     A
C847   C848    1.389   .     A
C847   C874    1.415   .     A
C847   H886    1.078   .     S
C848   H883    1.084   .     S
C848   C265    1.393   1_556 S
C849   O902    1.282   .     A
C849   C855    1.471   .     S
C849   O904    1.282   .     A
C850   C851    1.419   .     A
C850   C852    1.401   .     A
C851   C854    1.424   .     A
C851   C875    1.426   .     A
C852   C853    1.390   .     A
C852   H878    1.084   .     S
C853   C865    1.395   .     A
C853   H882    1.083   .     S
C854   C869    1.453   .     S
C854   C865    1.405   .     A
C855   C921    1.338   .     S
C855   O963    1.386   .     S
C857   C864    1.417   .     A
C857   C866    1.410   .     A
C857   C871    1.453   .     S
C858   C861    1.455   .     S
C858   C1054   1.338   .     S
C858   C1062   1.453   .     S
C859   C860    1.438   .     S
C860   O905    1.279   .     A
C860   O899    1.278   .     A
C861   O900    1.272   .     A
C861   O906    1.266   .     A
C862   O895    1.272   .     A
C862   O893    1.271   .     A
C862   C865    1.458   .     S
C863   O896    1.295   .     A
C863   O894    1.282   .     A
C863   C864    1.487   .     S
C864   C868    1.394   .     A
C866   C873    1.426   .     A
C866   C870    1.454   .     S
C867   N888    1.157   .     T
C868   C872    1.407   .     A
C868   H884    1.077   .     S
C869   N889    1.157   .     T
C870   N890    1.158   .     T
C871   N891    1.158   .     T
C872   C874    1.427   .     A
C872   C873    1.428   .     A
C873   C292    1.419   1_556 S
C874   C290    1.416   1_556 S
C875   C876    1.402   .     A
C876   C877    1.398   .     A
C876   H885    1.080   .     S
C877   O897    1.383   .     S
H879   O898    0.990   .     S
H880   C921    1.086   .     S
H881   C1054   1.086   .     S
H887   O897    0.992   .     S
O892   Zn909   1.926   .     S
O892   Zn907   1.967   .     S
O892   Zn908   1.942   .     S
O892   Zn910   1.932   .     S
O893   Zn908   1.926   .     S
O894   Zn910   1.941   .     S
O895   Zn909   1.934   .     S
O896   Zn907   1.923   .     S
O899   Zn907   1.928   .     S
O900   Zn910   1.930   .     S
O901   Zn908   1.927   .     S
O902   Zn909   1.941   .     S
O903   Zn910   1.932   .     S
O904   Zn907   1.920   .     S
O905   Zn908   1.940   .     S
O906   Zn909   1.933   .     S
C911   C921    1.440   .     S
C911   O966    1.270   .     A
C911   O968    1.269   .     A
C912   C913    1.389   .     A
C912   C939    1.415   .     A
C912   H951    1.078   .     S
C913   H948    1.084   .     S
C913   C330    1.393   1_556 S
C914   O967    1.282   .     A
C914   C920    1.471   .     S
C914   O969    1.282   .     A
C915   C916    1.419   .     A
C915   C917    1.401   .     A
C916   C919    1.424   .     A
C916   C940    1.426   .     A
C917   C918    1.390   .     A
C917   H943    1.084   .     S
C918   C930    1.395   .     A
C918   H947    1.083   .     S
C919   C934    1.453   .     S
C919   C930    1.405   .     A
C920   C791    1.338   1_655 S
C920   O833    1.386   1_655 S
C922   C929    1.417   .     A
C922   C931    1.410   .     A
C922   C936    1.453   .     S
C923   C926    1.455   .     S
C923   C1119   1.338   .     S
C923   C1127   1.453   .     S
C924   C925    1.438   .     S
C925   O970    1.279   .     A
C925   O964    1.278   .     A
C926   O965    1.272   .     A
C926   O971    1.266   .     A
C927   O960    1.272   .     A
C927   O958    1.271   .     A
C927   C930    1.458   .     S
C928   O961    1.295   .     A
C928   O959    1.282   .     A
C928   C929    1.487   .     S
C929   C933    1.394   .     A
C931   C938    1.426   .     A
C931   C935    1.454   .     S
C932   N953    1.157   .     T
C933   C937    1.407   .     A
C933   H949    1.077   .     S
C934   N954    1.157   .     T
C935   N955    1.158   .     T
C936   N956    1.158   .     T
C937   C939    1.427   .     A
C937   C938    1.428   .     A
C938   C357    1.419   1_556 S
C939   C355    1.416   1_556 S
C940   C941    1.402   .     A
C941   C942    1.398   .     A
C941   H950    1.080   .     S
C942   O962    1.383   .     S
H944   O963    0.990   .     S
H945   C791    1.086   1_655 S
H946   C1119   1.086   .     S
H952   O962    0.992   .     S
O957   Zn974   1.926   .     S
O957   Zn972   1.967   .     S
O957   Zn973   1.942   .     S
O957   Zn975   1.932   .     S
O958   Zn973   1.926   .     S
O959   Zn975   1.941   .     S
O960   Zn974   1.934   .     S
O961   Zn972   1.923   .     S
O964   Zn972   1.928   .     S
O965   Zn975   1.930   .     S
O966   Zn973   1.927   .     S
O967   Zn974   1.941   .     S
O968   Zn975   1.932   .     S
O969   Zn972   1.920   .     S
O970   Zn973   1.940   .     S
O971   Zn974   1.933   .     S
C976   C986    1.440   .     S
C976   O1031   1.270   .     A
C976   O1033   1.269   .     A
C977   C978    1.389   .     A
C977   C1004   1.415   .     A
C977   H1016   1.078   .     S
C978   H1013   1.084   .     S
C978   C395    1.393   1_556 S
C979   O1032   1.282   .     A
C979   C985    1.471   .     S
C979   O1034   1.282   .     A
C980   C981    1.419   .     A
C980   C982    1.401   .     A
C981   C984    1.424   .     A
C981   C1005   1.426   .     A
C982   C983    1.390   .     A
C982   H1008   1.084   .     S
C983   C995    1.395   .     A
C983   H1012   1.083   .     S
C984   C999    1.453   .     S
C984   C995    1.405   .     A
C985   C1051   1.338   .     S
C985   O1093   1.386   .     S
C986   C1115   1.338   1_455 S
C986   H1140   1.086   1_455 S
C987   C994    1.417   .     A
C987   C996    1.410   .     A
C987   C1001   1.453   .     S
C988   C991    1.455   .     S
C988   C599    1.338   1_565 S
C988   C607    1.453   1_565 S
C989   C990    1.438   .     S
C990   O1035   1.279   .     A
C990   O1029   1.278   .     A
C991   O1030   1.272   .     A
C991   O1036   1.266   .     A
C992   O1025   1.272   .     A
C992   O1023   1.271   .     A
C992   C995    1.458   .     S
C993   O1026   1.295   .     A
C993   O1024   1.282   .     A
C993   C994    1.487   .     S
C994   C998    1.394   .     A
C996   C1003   1.426   .     A
C996   C1000   1.454   .     S
C997   N1018   1.157   .     T
C998   C1002   1.407   .     A
C998   H1014   1.077   .     S
C999   N1019   1.157   .     T
C1000  N1020   1.158   .     T
C1001  N1021   1.158   .     T
C1002  C1004   1.427   .     A
C1002  C1003   1.428   .     A
C1003  C422    1.419   1_556 S
C1004  C420    1.416   1_556 S
C1005  C1006   1.402   .     A
C1006  C1007   1.398   .     A
C1006  H1015   1.080   .     S
C1007  O1027   1.383   .     S
H1009  O1028   0.990   .     S
H1010  C1051   1.086   .     S
H1011  C599    1.086   1_565 S
H1017  O1027   0.992   .     S
O1022  Zn1039  1.926   .     S
O1022  Zn1037  1.967   .     S
O1022  Zn1038  1.942   .     S
O1022  Zn1040  1.932   .     S
O1023  Zn1038  1.926   .     S
O1024  Zn1040  1.941   .     S
O1025  Zn1039  1.934   .     S
O1026  Zn1037  1.923   .     S
O1028  C1115   1.386   1_455 S
O1029  Zn1037  1.928   .     S
O1030  Zn1040  1.930   .     S
O1031  Zn1038  1.927   .     S
O1032  Zn1039  1.941   .     S
O1033  Zn1040  1.932   .     S
O1034  Zn1037  1.920   .     S
O1035  Zn1038  1.940   .     S
O1036  Zn1039  1.933   .     S
C1041  C1051   1.440   .     S
C1041  O1096   1.270   .     A
C1041  O1098   1.269   .     A
C1042  C1043   1.389   .     A
C1042  C1069   1.415   .     A
C1042  H1081   1.078   .     S
C1043  H1078   1.084   .     S
C1043  C460    1.393   1_556 S
C1044  O1097   1.282   .     A
C1044  C1050   1.471   .     S
C1044  O1099   1.282   .     A
C1045  C1046   1.419   .     A
C1045  C1047   1.401   .     A
C1046  C1049   1.424   .     A
C1046  C1070   1.426   .     A
C1047  C1048   1.390   .     A
C1047  H1073   1.084   .     S
C1048  C1060   1.395   .     A
C1048  H1077   1.083   .     S
C1049  C1064   1.453   .     S
C1049  C1060   1.405   .     A
C1050  C1116   1.338   .     S
C1050  O1158   1.386   .     S
C1052  C1059   1.417   .     A
C1052  C1061   1.410   .     A
C1052  C1066   1.453   .     S
C1053  C1056   1.455   .     S
C1053  C664    1.338   1_565 S
C1053  C672    1.453   1_565 S
C1054  C1055   1.438   .     S
C1055  O1100   1.279   .     A
C1055  O1094   1.278   .     A
C1056  O1095   1.272   .     A
C1056  O1101   1.266   .     A
C1057  O1090   1.272   .     A
C1057  O1088   1.271   .     A
C1057  C1060   1.458   .     S
C1058  O1091   1.295   .     A
C1058  O1089   1.282   .     A
C1058  C1059   1.487   .     S
C1059  C1063   1.394   .     A
C1061  C1068   1.426   .     A
C1061  C1065   1.454   .     S
C1062  N1083   1.157   .     T
C1063  C1067   1.407   .     A
C1063  H1079   1.077   .     S
C1064  N1084   1.157   .     T
C1065  N1085   1.158   .     T
C1066  N1086   1.158   .     T
C1067  C1069   1.427   .     A
C1067  C1068   1.428   .     A
C1068  C487    1.419   1_556 S
C1069  C485    1.416   1_556 S
C1070  C1071   1.402   .     A
C1071  C1072   1.398   .     A
C1071  H1080   1.080   .     S
C1072  O1092   1.383   .     S
H1074  O1093   0.990   .     S
H1075  C1116   1.086   .     S
H1076  C664    1.086   1_565 S
H1082  O1092   0.992   .     S
O1087  Zn1104  1.926   .     S
O1087  Zn1102  1.967   .     S
O1087  Zn1103  1.942   .     S
O1087  Zn1105  1.932   .     S
O1088  Zn1103  1.926   .     S
O1089  Zn1105  1.941   .     S
O1090  Zn1104  1.934   .     S
O1091  Zn1102  1.923   .     S
O1094  Zn1102  1.928   .     S
O1095  Zn1105  1.930   .     S
O1096  Zn1103  1.927   .     S
O1097  Zn1104  1.941   .     S
O1098  Zn1105  1.932   .     S
O1099  Zn1102  1.920   .     S
O1100  Zn1103  1.940   .     S
O1101  Zn1104  1.933   .     S
C1106  C1116   1.440   .     S
C1106  O1161   1.270   .     A
C1106  O1163   1.269   .     A
C1107  C1108   1.389   .     A
C1107  C1134   1.415   .     A
C1107  H1146   1.078   .     S
C1108  H1143   1.084   .     S
C1108  C525    1.393   1_556 S
C1109  O1162   1.282   .     A
C1109  C1115   1.471   .     S
C1109  O1164   1.282   .     A
C1110  C1111   1.419   .     A
C1110  C1112   1.401   .     A
C1111  C1114   1.424   .     A
C1111  C1135   1.426   .     A
C1112  C1113   1.390   .     A
C1112  H1138   1.084   .     S
C1113  C1125   1.395   .     A
C1113  H1142   1.083   .     S
C1114  C1129   1.453   .     S
C1114  C1125   1.405   .     A
C1115  C986    1.338   1_655 S
C1115  O1028   1.386   1_655 S
C1117  C1124   1.417   .     A
C1117  C1126   1.410   .     A
C1117  C1131   1.453   .     S
C1118  C1121   1.455   .     S
C1118  C729    1.338   1_565 S
C1118  C737    1.453   1_565 S
C1119  C1120   1.438   .     S
C1120  O1165   1.279   .     A
C1120  O1159   1.278   .     A
C1121  O1160   1.272   .     A
C1121  O1166   1.266   .     A
C1122  O1155   1.272   .     A
C1122  O1153   1.271   .     A
C1122  C1125   1.458   .     S
C1123  O1156   1.295   .     A
C1123  O1154   1.282   .     A
C1123  C1124   1.487   .     S
C1124  C1128   1.394   .     A
C1126  C1133   1.426   .     A
C1126  C1130   1.454   .     S
C1127  N1148   1.157   .     T
C1128  C1132   1.407   .     A
C1128  H1144   1.077   .     S
C1129  N1149   1.157   .     T
C1130  N1150   1.158   .     T
C1131  N1151   1.158   .     T
C1132  C1134   1.427   .     A
C1132  C1133   1.428   .     A
C1133  C552    1.419   1_556 S
C1134  C550    1.416   1_556 S
C1135  C1136   1.402   .     A
C1136  C1137   1.398   .     A
C1136  H1145   1.080   .     S
C1137  O1157   1.383   .     S
H1139  O1158   0.990   .     S
H1140  C986    1.086   1_655 S
H1141  C729    1.086   1_565 S
H1147  O1157   0.992   .     S
O1152  Zn1169  1.926   .     S
O1152  Zn1167  1.967   .     S
O1152  Zn1168  1.942   .     S
O1152  Zn1170  1.932   .     S
O1153  Zn1168  1.926   .     S
O1154  Zn1170  1.941   .     S
O1155  Zn1169  1.934   .     S
O1156  Zn1167  1.923   .     S
O1159  Zn1167  1.928   .     S
O1160  Zn1170  1.930   .     S
O1161  Zn1168  1.927   .     S
O1162  Zn1169  1.941   .     S
O1163  Zn1170  1.932   .     S
O1164  Zn1167  1.920   .     S
O1165  Zn1168  1.940   .     S
O1166  Zn1169  1.933   .     S
