data_str_m3_o2_o10_pcu_sym.20
_audit_creation_date              2020-01-03
_audit_creation_method            'Materials Studio'
_symmetry_space_group_name_H-M    'P1'
_symmetry_Int_Tables_number       1
_symmetry_cell_setting            triclinic
loop_
_symmetry_equiv_pos_as_xyz
  x,y,z
_cell_length_a                    25.7014
_cell_length_b                    29.7765
_cell_length_c                    28.5283
_cell_angle_alpha                 87.4363
_cell_angle_beta                  97.5071
_cell_angle_gamma                 92.2176
loop_
_atom_site_label
_atom_site_type_symbol
_atom_site_fract_x
_atom_site_fract_y
_atom_site_fract_z
_atom_site_U_iso_or_equiv
_atom_site_adp_type
_atom_site_occupancy
O1     O     0.16667   0.18453   0.28974   0.00000  Uiso   1.00
O2     O     0.16666   0.31546   0.21026   0.00000  Uiso   1.00
O3     O     0.16667   0.18453   0.21026   0.00000  Uiso   1.00
O4     O     0.16666   0.31547   0.28974   0.00000  Uiso   1.00
C5     C     0.16934   0.16356   0.25106   0.00000  Uiso   1.00
C6     C     0.16681   0.33607   0.24895   0.00000  Uiso   1.00
O7     O     0.09058   0.25000   0.28045   0.00000  Uiso   1.00
O8     O     0.24275   0.25000   0.21956   0.00000  Uiso   1.00
O9     O     0.09058   0.24999   0.20097   0.00000  Uiso   1.00
O10    O     0.24275   0.25000   0.29904   0.00000  Uiso   1.00
C11    C     0.06720   0.24888   0.23793   0.00000  Uiso   1.00
C12    C     0.26614   0.25003   0.26221   0.00000  Uiso   1.00
Zn13   Zn    0.16667   0.25000   0.30307   0.00000  Uiso   1.00
Zn14   Zn    0.16667   0.24999   0.19693   0.00000  Uiso   1.00
C15    C     0.01235   0.24567   0.23182   0.00000  Uiso   1.00
C16    C     0.32104   0.25104   0.26892   0.00000  Uiso   1.00
C17    C     0.17459   0.03930   0.28562   0.00000  Uiso   1.00
C18    C     0.14476   0.45614   0.21065   0.00000  Uiso   1.00
C19    C     0.16965   0.08552   0.28980   0.00000  Uiso   1.00
C20    C     0.13609   0.40950   0.21498   0.00000  Uiso   1.00
C21    C     0.17988   0.11547   0.25218   0.00000  Uiso   1.00
C22    C     0.17177   0.38416   0.24619   0.00000  Uiso   1.00
C23    C     0.20016   0.09902   0.21299   0.00000  Uiso   1.00
C24    C     0.21662   0.40413   0.27072   0.00000  Uiso   1.00
C25    C     0.20595   0.05347   0.20926   0.00000  Uiso   1.00
C26    C     0.22577   0.44992   0.26565   0.00000  Uiso   1.00
H27    H     0.21991   0.04124   0.17809   0.00000  Uiso   1.00
H28    H     0.25941   0.46554   0.28643   0.00000  Uiso   1.00
C29    C     0.19101   0.02371   0.24433   0.00000  Uiso   1.00
C30    C     0.18939   0.47598   0.23694   0.00000  Uiso   1.00
C31    C     0.11752   0.24371   0.04783   0.00000  Uiso   1.00
C32    C     0.18884   0.29170   0.44597   0.00000  Uiso   1.00
C33    C     0.12154   0.23858   0.09792   0.00000  Uiso   1.00
C34    C     0.19080   0.28601   0.39690   0.00000  Uiso   1.00
H35    H     0.08732   0.22777   0.11432   0.00000  Uiso   1.00
H36    H     0.20982   0.31183   0.37665   0.00000  Uiso   1.00
N37    N     0.16667   0.24999   0.12624   0.00000  Uiso   1.00
N38    N     0.16667   0.25001   0.37377   0.00000  Uiso   1.00
C39    C     0.20941   0.26659   0.10550   0.00000  Uiso   1.00
C40    C     0.14093   0.21762   0.39962   0.00000  Uiso   1.00
C41    C     0.20866   0.26774   0.05603   0.00000  Uiso   1.00
C42    C     0.14280   0.22030   0.44895   0.00000  Uiso   1.00
C43    C     0.16274   0.25756   0.02603   0.00000  Uiso   1.00
C44    C     0.16436   0.25759   0.47293   0.00000  Uiso   1.00
H45    H     0.32565   0.23842   0.19700   0.00000  Uiso   1.00
H46    H     0.00774   0.25717   0.30420   0.00000  Uiso   1.00
N47    N     0.16194   0.00832   0.32292   0.00000  Uiso   1.00
O48    O     0.12559   0.47703   0.31449   0.00000  Uiso   1.00
O49    O     0.18489   0.01281   0.36596   0.00000  Uiso   1.00
N50    N     0.10563   0.48359   0.18410   0.00000  Uiso   1.00
O51    O     0.05716   0.48023   0.19283   0.00000  Uiso   1.00
O52    O     0.11770   0.01021   0.14946   0.00000  Uiso   1.00
N53    N     0.15136   0.10093   0.33105   0.00000  Uiso   1.00
O54    O     0.18549   0.11749   0.36408   0.00000  Uiso   1.00
O55    O     0.10586   0.08595   0.34144   0.00000  Uiso   1.00
N56    N     0.09090   0.38824   0.18866   0.00000  Uiso   1.00
O57    O     0.06157   0.35911   0.20948   0.00000  Uiso   1.00
O58    O     0.07826   0.39864   0.14394   0.00000  Uiso   1.00
H59    H     0.21050   0.12131   0.18434   0.00000  Uiso   1.00
H60    H     0.24465   0.38414   0.29361   0.00000  Uiso   1.00
N61    N     0.06697   0.23699   0.02034   0.00000  Uiso   1.00
O62    O     0.05306   0.26276   0.48311   0.00000  Uiso   1.00
O63    O     0.03206   0.20934   0.03589   0.00000  Uiso   1.00
N64    N     0.20955   0.33287   0.46667   0.00000  Uiso   1.00
O65    O     0.18574   0.35140   0.49805   0.00000  Uiso   1.00
O66    O     0.24803   0.35508   0.44977   0.00000  Uiso   1.00
N67    N     0.25404   0.28689   0.13290   0.00000  Uiso   1.00
O68    O     0.30063   0.28164   0.12115   0.00000  Uiso   1.00
O69    O     0.24717   0.32080   0.15835   0.00000  Uiso   1.00
N70    N     0.10961   0.18100   0.37820   0.00000  Uiso   1.00
O71    O     0.08395   0.18567   0.33624   0.00000  Uiso   1.00
O72    O     0.09599   0.14699   0.40480   0.00000  Uiso   1.00
H73    H     0.24379   0.27859   0.04089   0.00000  Uiso   1.00
H74    H     0.12513   0.19346   0.46901   0.00000  Uiso   1.00
O75    O     0.50000   0.18453   0.28974   0.00000  Uiso   1.00
O76    O     0.50000   0.31546   0.21026   0.00000  Uiso   1.00
O77    O     0.50000   0.18453   0.21026   0.00000  Uiso   1.00
O78    O     0.50000   0.31547   0.28974   0.00000  Uiso   1.00
C79    C     0.50268   0.16356   0.25106   0.00000  Uiso   1.00
C80    C     0.50015   0.33607   0.24895   0.00000  Uiso   1.00
O81    O     0.42392   0.25000   0.28045   0.00000  Uiso   1.00
O82    O     0.57608   0.25000   0.21956   0.00000  Uiso   1.00
O83    O     0.42392   0.24999   0.20097   0.00000  Uiso   1.00
O84    O     0.57608   0.25000   0.29904   0.00000  Uiso   1.00
C85    C     0.40053   0.24888   0.23793   0.00000  Uiso   1.00
C86    C     0.59948   0.25003   0.26221   0.00000  Uiso   1.00
Zn87   Zn    0.50000   0.25000   0.30307   0.00000  Uiso   1.00
Zn88   Zn    0.50000   0.24999   0.19693   0.00000  Uiso   1.00
C89    C     0.34568   0.24567   0.23182   0.00000  Uiso   1.00
C90    C     0.65438   0.25104   0.26892   0.00000  Uiso   1.00
C91    C     0.50792   0.03930   0.28562   0.00000  Uiso   1.00
C92    C     0.47809   0.45614   0.21065   0.00000  Uiso   1.00
C93    C     0.50298   0.08552   0.28980   0.00000  Uiso   1.00
C94    C     0.46942   0.40950   0.21498   0.00000  Uiso   1.00
C95    C     0.51321   0.11547   0.25218   0.00000  Uiso   1.00
C96    C     0.50510   0.38416   0.24619   0.00000  Uiso   1.00
C97    C     0.53349   0.09902   0.21299   0.00000  Uiso   1.00
C98    C     0.54995   0.40413   0.27072   0.00000  Uiso   1.00
C99    C     0.53928   0.05347   0.20926   0.00000  Uiso   1.00
C100   C     0.55911   0.44992   0.26565   0.00000  Uiso   1.00
H101   H     0.55324   0.04124   0.17809   0.00000  Uiso   1.00
H102   H     0.59275   0.46554   0.28643   0.00000  Uiso   1.00
C103   C     0.52435   0.02371   0.24433   0.00000  Uiso   1.00
C104   C     0.52272   0.47598   0.23694   0.00000  Uiso   1.00
C105   C     0.45085   0.24371   0.04783   0.00000  Uiso   1.00
C106   C     0.52217   0.29170   0.44597   0.00000  Uiso   1.00
C107   C     0.45488   0.23858   0.09792   0.00000  Uiso   1.00
C108   C     0.52413   0.28601   0.39690   0.00000  Uiso   1.00
H109   H     0.42065   0.22777   0.11432   0.00000  Uiso   1.00
H110   H     0.54316   0.31183   0.37665   0.00000  Uiso   1.00
N111   N     0.50000   0.24999   0.12624   0.00000  Uiso   1.00
N112   N     0.50000   0.25001   0.37377   0.00000  Uiso   1.00
C113   C     0.54274   0.26659   0.10550   0.00000  Uiso   1.00
C114   C     0.47426   0.21762   0.39962   0.00000  Uiso   1.00
C115   C     0.54199   0.26774   0.05603   0.00000  Uiso   1.00
C116   C     0.47613   0.22030   0.44895   0.00000  Uiso   1.00
C117   C     0.49607   0.25756   0.02603   0.00000  Uiso   1.00
C118   C     0.49770   0.25759   0.47293   0.00000  Uiso   1.00
H119   H     0.65898   0.23842   0.19700   0.00000  Uiso   1.00
H120   H     0.34107   0.25717   0.30420   0.00000  Uiso   1.00
N121   N     0.49528   0.00832   0.32292   0.00000  Uiso   1.00
O122   O     0.45892   0.47703   0.31449   0.00000  Uiso   1.00
O123   O     0.51822   0.01281   0.36596   0.00000  Uiso   1.00
N124   N     0.43896   0.48359   0.18410   0.00000  Uiso   1.00
O125   O     0.39049   0.48023   0.19283   0.00000  Uiso   1.00
O126   O     0.45103   0.01021   0.14946   0.00000  Uiso   1.00
N127   N     0.48469   0.10093   0.33105   0.00000  Uiso   1.00
O128   O     0.51882   0.11749   0.36408   0.00000  Uiso   1.00
O129   O     0.43919   0.08595   0.34144   0.00000  Uiso   1.00
N130   N     0.42423   0.38824   0.18866   0.00000  Uiso   1.00
O131   O     0.39490   0.35911   0.20948   0.00000  Uiso   1.00
O132   O     0.41160   0.39864   0.14394   0.00000  Uiso   1.00
H133   H     0.54384   0.12131   0.18434   0.00000  Uiso   1.00
H134   H     0.57799   0.38414   0.29361   0.00000  Uiso   1.00
N135   N     0.40031   0.23699   0.02034   0.00000  Uiso   1.00
O136   O     0.38640   0.26276   0.48311   0.00000  Uiso   1.00
O137   O     0.36539   0.20934   0.03589   0.00000  Uiso   1.00
N138   N     0.54288   0.33287   0.46667   0.00000  Uiso   1.00
O139   O     0.51908   0.35140   0.49805   0.00000  Uiso   1.00
O140   O     0.58137   0.35508   0.44977   0.00000  Uiso   1.00
N141   N     0.58738   0.28689   0.13290   0.00000  Uiso   1.00
O142   O     0.63397   0.28164   0.12115   0.00000  Uiso   1.00
O143   O     0.58050   0.32080   0.15835   0.00000  Uiso   1.00
N144   N     0.44295   0.18100   0.37820   0.00000  Uiso   1.00
O145   O     0.41728   0.18567   0.33624   0.00000  Uiso   1.00
O146   O     0.42933   0.14699   0.40480   0.00000  Uiso   1.00
H147   H     0.57712   0.27859   0.04089   0.00000  Uiso   1.00
H148   H     0.45846   0.19346   0.46901   0.00000  Uiso   1.00
O149   O     0.83334   0.18453   0.28974   0.00000  Uiso   1.00
O150   O     0.83333   0.31546   0.21026   0.00000  Uiso   1.00
O151   O     0.83334   0.18453   0.21026   0.00000  Uiso   1.00
O152   O     0.83333   0.31547   0.28974   0.00000  Uiso   1.00
C153   C     0.83601   0.16356   0.25106   0.00000  Uiso   1.00
C154   C     0.83348   0.33607   0.24895   0.00000  Uiso   1.00
O155   O     0.75725   0.25000   0.28045   0.00000  Uiso   1.00
O156   O     0.90942   0.25000   0.21956   0.00000  Uiso   1.00
O157   O     0.75725   0.24999   0.20097   0.00000  Uiso   1.00
O158   O     0.90942   0.25000   0.29904   0.00000  Uiso   1.00
C159   C     0.73386   0.24888   0.23793   0.00000  Uiso   1.00
C160   C     0.93281   0.25003   0.26221   0.00000  Uiso   1.00
Zn161  Zn    0.83333   0.25000   0.30307   0.00000  Uiso   1.00
Zn162  Zn    0.83333   0.24999   0.19693   0.00000  Uiso   1.00
C163   C     0.67901   0.24567   0.23182   0.00000  Uiso   1.00
C164   C     0.98771   0.25104   0.26892   0.00000  Uiso   1.00
C165   C     0.84126   0.03930   0.28562   0.00000  Uiso   1.00
C166   C     0.81143   0.45614   0.21065   0.00000  Uiso   1.00
C167   C     0.83632   0.08552   0.28980   0.00000  Uiso   1.00
C168   C     0.80276   0.40950   0.21498   0.00000  Uiso   1.00
C169   C     0.84655   0.11547   0.25218   0.00000  Uiso   1.00
C170   C     0.83844   0.38416   0.24619   0.00000  Uiso   1.00
C171   C     0.86682   0.09902   0.21299   0.00000  Uiso   1.00
C172   C     0.88328   0.40413   0.27072   0.00000  Uiso   1.00
C173   C     0.87261   0.05347   0.20926   0.00000  Uiso   1.00
C174   C     0.89244   0.44992   0.26565   0.00000  Uiso   1.00
H175   H     0.88658   0.04124   0.17809   0.00000  Uiso   1.00
H176   H     0.92608   0.46554   0.28643   0.00000  Uiso   1.00
C177   C     0.85768   0.02371   0.24433   0.00000  Uiso   1.00
C178   C     0.85605   0.47598   0.23694   0.00000  Uiso   1.00
C179   C     0.78418   0.24371   0.04783   0.00000  Uiso   1.00
C180   C     0.85551   0.29170   0.44597   0.00000  Uiso   1.00
C181   C     0.78821   0.23858   0.09792   0.00000  Uiso   1.00
C182   C     0.85747   0.28601   0.39690   0.00000  Uiso   1.00
H183   H     0.75399   0.22777   0.11432   0.00000  Uiso   1.00
H184   H     0.87649   0.31183   0.37665   0.00000  Uiso   1.00
N185   N     0.83333   0.24999   0.12624   0.00000  Uiso   1.00
N186   N     0.83333   0.25001   0.37377   0.00000  Uiso   1.00
C187   C     0.87608   0.26659   0.10550   0.00000  Uiso   1.00
C188   C     0.80760   0.21762   0.39962   0.00000  Uiso   1.00
C189   C     0.87532   0.26774   0.05603   0.00000  Uiso   1.00
C190   C     0.80946   0.22030   0.44895   0.00000  Uiso   1.00
C191   C     0.82940   0.25756   0.02603   0.00000  Uiso   1.00
C192   C     0.83103   0.25759   0.47293   0.00000  Uiso   1.00
H193   H     0.99231   0.23842   0.19700   0.00000  Uiso   1.00
H194   H     0.67440   0.25717   0.30420   0.00000  Uiso   1.00
N195   N     0.82861   0.00832   0.32292   0.00000  Uiso   1.00
O196   O     0.79226   0.47703   0.31449   0.00000  Uiso   1.00
O197   O     0.85156   0.01281   0.36596   0.00000  Uiso   1.00
N198   N     0.77230   0.48359   0.18410   0.00000  Uiso   1.00
O199   O     0.72383   0.48023   0.19283   0.00000  Uiso   1.00
O200   O     0.78436   0.01021   0.14946   0.00000  Uiso   1.00
N201   N     0.81803   0.10093   0.33105   0.00000  Uiso   1.00
O202   O     0.85215   0.11749   0.36408   0.00000  Uiso   1.00
O203   O     0.77252   0.08595   0.34144   0.00000  Uiso   1.00
N204   N     0.75756   0.38824   0.18866   0.00000  Uiso   1.00
O205   O     0.72824   0.35911   0.20948   0.00000  Uiso   1.00
O206   O     0.74493   0.39864   0.14394   0.00000  Uiso   1.00
H207   H     0.87717   0.12131   0.18434   0.00000  Uiso   1.00
H208   H     0.91132   0.38414   0.29361   0.00000  Uiso   1.00
N209   N     0.73364   0.23699   0.02034   0.00000  Uiso   1.00
O210   O     0.71973   0.26276   0.48311   0.00000  Uiso   1.00
O211   O     0.69873   0.20934   0.03589   0.00000  Uiso   1.00
N212   N     0.87621   0.33287   0.46667   0.00000  Uiso   1.00
O213   O     0.85241   0.35140   0.49805   0.00000  Uiso   1.00
O214   O     0.91470   0.35508   0.44977   0.00000  Uiso   1.00
N215   N     0.92071   0.28689   0.13290   0.00000  Uiso   1.00
O216   O     0.96730   0.28164   0.12115   0.00000  Uiso   1.00
O217   O     0.91384   0.32080   0.15835   0.00000  Uiso   1.00
N218   N     0.77628   0.18100   0.37820   0.00000  Uiso   1.00
O219   O     0.75062   0.18567   0.33624   0.00000  Uiso   1.00
O220   O     0.76266   0.14699   0.40480   0.00000  Uiso   1.00
H221   H     0.91045   0.27859   0.04089   0.00000  Uiso   1.00
H222   H     0.79180   0.19346   0.46901   0.00000  Uiso   1.00
O223   O     0.16667   0.68453   0.28974   0.00000  Uiso   1.00
O224   O     0.16666   0.81546   0.21026   0.00000  Uiso   1.00
O225   O     0.16667   0.68453   0.21026   0.00000  Uiso   1.00
O226   O     0.16666   0.81547   0.28974   0.00000  Uiso   1.00
C227   C     0.16934   0.66356   0.25106   0.00000  Uiso   1.00
C228   C     0.16681   0.83607   0.24895   0.00000  Uiso   1.00
O229   O     0.09058   0.75000   0.28045   0.00000  Uiso   1.00
O230   O     0.24275   0.75000   0.21956   0.00000  Uiso   1.00
O231   O     0.09058   0.74999   0.20097   0.00000  Uiso   1.00
O232   O     0.24275   0.75000   0.29904   0.00000  Uiso   1.00
C233   C     0.06720   0.74888   0.23793   0.00000  Uiso   1.00
C234   C     0.26614   0.75003   0.26221   0.00000  Uiso   1.00
Zn235  Zn    0.16667   0.75000   0.30307   0.00000  Uiso   1.00
Zn236  Zn    0.16667   0.74999   0.19693   0.00000  Uiso   1.00
C237   C     0.01235   0.74567   0.23182   0.00000  Uiso   1.00
C238   C     0.32104   0.75104   0.26892   0.00000  Uiso   1.00
C239   C     0.17459   0.53930   0.28562   0.00000  Uiso   1.00
C240   C     0.14476   0.95614   0.21065   0.00000  Uiso   1.00
C241   C     0.16965   0.58552   0.28980   0.00000  Uiso   1.00
C242   C     0.13609   0.90950   0.21498   0.00000  Uiso   1.00
C243   C     0.17988   0.61547   0.25218   0.00000  Uiso   1.00
C244   C     0.17177   0.88416   0.24619   0.00000  Uiso   1.00
C245   C     0.20016   0.59902   0.21299   0.00000  Uiso   1.00
C246   C     0.21662   0.90413   0.27072   0.00000  Uiso   1.00
C247   C     0.20595   0.55347   0.20926   0.00000  Uiso   1.00
C248   C     0.22577   0.94992   0.26565   0.00000  Uiso   1.00
H249   H     0.21991   0.54124   0.17809   0.00000  Uiso   1.00
H250   H     0.25941   0.96554   0.28643   0.00000  Uiso   1.00
C251   C     0.19101   0.52371   0.24433   0.00000  Uiso   1.00
C252   C     0.18939   0.97598   0.23694   0.00000  Uiso   1.00
C253   C     0.11752   0.74371   0.04783   0.00000  Uiso   1.00
C254   C     0.18884   0.79170   0.44597   0.00000  Uiso   1.00
C255   C     0.12154   0.73858   0.09792   0.00000  Uiso   1.00
C256   C     0.19080   0.78601   0.39690   0.00000  Uiso   1.00
H257   H     0.08732   0.72777   0.11432   0.00000  Uiso   1.00
H258   H     0.20982   0.81183   0.37665   0.00000  Uiso   1.00
N259   N     0.16667   0.74999   0.12624   0.00000  Uiso   1.00
N260   N     0.16667   0.75001   0.37377   0.00000  Uiso   1.00
C261   C     0.20941   0.76659   0.10550   0.00000  Uiso   1.00
C262   C     0.14093   0.71762   0.39962   0.00000  Uiso   1.00
C263   C     0.20866   0.76774   0.05603   0.00000  Uiso   1.00
C264   C     0.14280   0.72030   0.44895   0.00000  Uiso   1.00
C265   C     0.16274   0.75756   0.02603   0.00000  Uiso   1.00
C266   C     0.16436   0.75759   0.47293   0.00000  Uiso   1.00
H267   H     0.32565   0.73842   0.19700   0.00000  Uiso   1.00
H268   H     0.00774   0.75717   0.30420   0.00000  Uiso   1.00
N269   N     0.16194   0.50832   0.32292   0.00000  Uiso   1.00
O270   O     0.12559   0.97703   0.31449   0.00000  Uiso   1.00
O271   O     0.18489   0.51281   0.36596   0.00000  Uiso   1.00
N272   N     0.10563   0.98359   0.18410   0.00000  Uiso   1.00
O273   O     0.05716   0.98023   0.19283   0.00000  Uiso   1.00
O274   O     0.11770   0.51021   0.14946   0.00000  Uiso   1.00
N275   N     0.15136   0.60093   0.33105   0.00000  Uiso   1.00
O276   O     0.18549   0.61749   0.36408   0.00000  Uiso   1.00
O277   O     0.10586   0.58595   0.34144   0.00000  Uiso   1.00
N278   N     0.09090   0.88824   0.18866   0.00000  Uiso   1.00
O279   O     0.06157   0.85911   0.20948   0.00000  Uiso   1.00
O280   O     0.07826   0.89864   0.14394   0.00000  Uiso   1.00
H281   H     0.21050   0.62131   0.18434   0.00000  Uiso   1.00
H282   H     0.24465   0.88414   0.29361   0.00000  Uiso   1.00
N283   N     0.06697   0.73699   0.02034   0.00000  Uiso   1.00
O284   O     0.05306   0.76276   0.48311   0.00000  Uiso   1.00
O285   O     0.03206   0.70934   0.03589   0.00000  Uiso   1.00
N286   N     0.20955   0.83287   0.46667   0.00000  Uiso   1.00
O287   O     0.18574   0.85140   0.49805   0.00000  Uiso   1.00
O288   O     0.24803   0.85508   0.44977   0.00000  Uiso   1.00
N289   N     0.25404   0.78689   0.13290   0.00000  Uiso   1.00
O290   O     0.30063   0.78164   0.12115   0.00000  Uiso   1.00
O291   O     0.24717   0.82080   0.15835   0.00000  Uiso   1.00
N292   N     0.10961   0.68100   0.37820   0.00000  Uiso   1.00
O293   O     0.08395   0.68567   0.33624   0.00000  Uiso   1.00
O294   O     0.09599   0.64699   0.40480   0.00000  Uiso   1.00
H295   H     0.24379   0.77859   0.04089   0.00000  Uiso   1.00
H296   H     0.12513   0.69346   0.46901   0.00000  Uiso   1.00
O297   O     0.50000   0.68453   0.28974   0.00000  Uiso   1.00
O298   O     0.50000   0.81546   0.21026   0.00000  Uiso   1.00
O299   O     0.50000   0.68453   0.21026   0.00000  Uiso   1.00
O300   O     0.50000   0.81547   0.28974   0.00000  Uiso   1.00
C301   C     0.50268   0.66356   0.25106   0.00000  Uiso   1.00
C302   C     0.50015   0.83607   0.24895   0.00000  Uiso   1.00
O303   O     0.42392   0.75000   0.28045   0.00000  Uiso   1.00
O304   O     0.57608   0.75000   0.21956   0.00000  Uiso   1.00
O305   O     0.42392   0.74999   0.20097   0.00000  Uiso   1.00
O306   O     0.57608   0.75000   0.29904   0.00000  Uiso   1.00
C307   C     0.40053   0.74888   0.23793   0.00000  Uiso   1.00
C308   C     0.59948   0.75003   0.26221   0.00000  Uiso   1.00
Zn309  Zn    0.50000   0.75000   0.30307   0.00000  Uiso   1.00
Zn310  Zn    0.50000   0.74999   0.19693   0.00000  Uiso   1.00
C311   C     0.34568   0.74567   0.23182   0.00000  Uiso   1.00
C312   C     0.65438   0.75104   0.26892   0.00000  Uiso   1.00
C313   C     0.50792   0.53930   0.28562   0.00000  Uiso   1.00
C314   C     0.47809   0.95614   0.21065   0.00000  Uiso   1.00
C315   C     0.50298   0.58552   0.28980   0.00000  Uiso   1.00
C316   C     0.46942   0.90950   0.21498   0.00000  Uiso   1.00
C317   C     0.51321   0.61547   0.25218   0.00000  Uiso   1.00
C318   C     0.50510   0.88416   0.24619   0.00000  Uiso   1.00
C319   C     0.53349   0.59902   0.21299   0.00000  Uiso   1.00
C320   C     0.54995   0.90413   0.27072   0.00000  Uiso   1.00
C321   C     0.53928   0.55347   0.20926   0.00000  Uiso   1.00
C322   C     0.55911   0.94992   0.26565   0.00000  Uiso   1.00
H323   H     0.55324   0.54124   0.17809   0.00000  Uiso   1.00
H324   H     0.59275   0.96554   0.28643   0.00000  Uiso   1.00
C325   C     0.52435   0.52371   0.24433   0.00000  Uiso   1.00
C326   C     0.52272   0.97598   0.23694   0.00000  Uiso   1.00
C327   C     0.45085   0.74371   0.04783   0.00000  Uiso   1.00
C328   C     0.52217   0.79170   0.44597   0.00000  Uiso   1.00
C329   C     0.45488   0.73858   0.09792   0.00000  Uiso   1.00
C330   C     0.52413   0.78601   0.39690   0.00000  Uiso   1.00
H331   H     0.42065   0.72777   0.11432   0.00000  Uiso   1.00
H332   H     0.54316   0.81183   0.37665   0.00000  Uiso   1.00
N333   N     0.50000   0.74999   0.12624   0.00000  Uiso   1.00
N334   N     0.50000   0.75001   0.37377   0.00000  Uiso   1.00
C335   C     0.54274   0.76659   0.10550   0.00000  Uiso   1.00
C336   C     0.47426   0.71762   0.39962   0.00000  Uiso   1.00
C337   C     0.54199   0.76774   0.05603   0.00000  Uiso   1.00
C338   C     0.47613   0.72030   0.44895   0.00000  Uiso   1.00
C339   C     0.49607   0.75756   0.02603   0.00000  Uiso   1.00
C340   C     0.49770   0.75759   0.47293   0.00000  Uiso   1.00
H341   H     0.65898   0.73842   0.19700   0.00000  Uiso   1.00
H342   H     0.34107   0.75717   0.30420   0.00000  Uiso   1.00
N343   N     0.49528   0.50832   0.32292   0.00000  Uiso   1.00
O344   O     0.45892   0.97703   0.31449   0.00000  Uiso   1.00
O345   O     0.51822   0.51281   0.36596   0.00000  Uiso   1.00
N346   N     0.43896   0.98359   0.18410   0.00000  Uiso   1.00
O347   O     0.39049   0.98023   0.19283   0.00000  Uiso   1.00
O348   O     0.45103   0.51021   0.14946   0.00000  Uiso   1.00
N349   N     0.48469   0.60093   0.33105   0.00000  Uiso   1.00
O350   O     0.51882   0.61749   0.36408   0.00000  Uiso   1.00
O351   O     0.43919   0.58595   0.34144   0.00000  Uiso   1.00
N352   N     0.42423   0.88824   0.18866   0.00000  Uiso   1.00
O353   O     0.39490   0.85911   0.20948   0.00000  Uiso   1.00
O354   O     0.41160   0.89864   0.14394   0.00000  Uiso   1.00
H355   H     0.54384   0.62131   0.18434   0.00000  Uiso   1.00
H356   H     0.57799   0.88414   0.29361   0.00000  Uiso   1.00
N357   N     0.40031   0.73699   0.02034   0.00000  Uiso   1.00
O358   O     0.38640   0.76276   0.48311   0.00000  Uiso   1.00
O359   O     0.36539   0.70934   0.03589   0.00000  Uiso   1.00
N360   N     0.54288   0.83287   0.46667   0.00000  Uiso   1.00
O361   O     0.51908   0.85140   0.49805   0.00000  Uiso   1.00
O362   O     0.58137   0.85508   0.44977   0.00000  Uiso   1.00
N363   N     0.58738   0.78689   0.13290   0.00000  Uiso   1.00
O364   O     0.63397   0.78164   0.12115   0.00000  Uiso   1.00
O365   O     0.58050   0.82080   0.15835   0.00000  Uiso   1.00
N366   N     0.44295   0.68100   0.37820   0.00000  Uiso   1.00
O367   O     0.41728   0.68567   0.33624   0.00000  Uiso   1.00
O368   O     0.42933   0.64699   0.40480   0.00000  Uiso   1.00
H369   H     0.57712   0.77859   0.04089   0.00000  Uiso   1.00
H370   H     0.45846   0.69346   0.46901   0.00000  Uiso   1.00
O371   O     0.83334   0.68453   0.28974   0.00000  Uiso   1.00
O372   O     0.83333   0.81546   0.21026   0.00000  Uiso   1.00
O373   O     0.83334   0.68453   0.21026   0.00000  Uiso   1.00
O374   O     0.83333   0.81547   0.28974   0.00000  Uiso   1.00
C375   C     0.83601   0.66356   0.25106   0.00000  Uiso   1.00
C376   C     0.83348   0.83607   0.24895   0.00000  Uiso   1.00
O377   O     0.75725   0.75000   0.28045   0.00000  Uiso   1.00
O378   O     0.90942   0.75000   0.21956   0.00000  Uiso   1.00
O379   O     0.75725   0.74999   0.20097   0.00000  Uiso   1.00
O380   O     0.90942   0.75000   0.29904   0.00000  Uiso   1.00
C381   C     0.73386   0.74888   0.23793   0.00000  Uiso   1.00
C382   C     0.93281   0.75003   0.26221   0.00000  Uiso   1.00
Zn383  Zn    0.83333   0.75000   0.30307   0.00000  Uiso   1.00
Zn384  Zn    0.83333   0.74999   0.19693   0.00000  Uiso   1.00
C385   C     0.67901   0.74567   0.23182   0.00000  Uiso   1.00
C386   C     0.98771   0.75104   0.26892   0.00000  Uiso   1.00
C387   C     0.84126   0.53930   0.28562   0.00000  Uiso   1.00
C388   C     0.81143   0.95614   0.21065   0.00000  Uiso   1.00
C389   C     0.83632   0.58552   0.28980   0.00000  Uiso   1.00
C390   C     0.80276   0.90950   0.21498   0.00000  Uiso   1.00
C391   C     0.84655   0.61547   0.25218   0.00000  Uiso   1.00
C392   C     0.83844   0.88416   0.24619   0.00000  Uiso   1.00
C393   C     0.86682   0.59902   0.21299   0.00000  Uiso   1.00
C394   C     0.88328   0.90413   0.27072   0.00000  Uiso   1.00
C395   C     0.87261   0.55347   0.20926   0.00000  Uiso   1.00
C396   C     0.89244   0.94992   0.26565   0.00000  Uiso   1.00
H397   H     0.88658   0.54124   0.17809   0.00000  Uiso   1.00
H398   H     0.92608   0.96554   0.28643   0.00000  Uiso   1.00
C399   C     0.85768   0.52371   0.24433   0.00000  Uiso   1.00
C400   C     0.85605   0.97598   0.23694   0.00000  Uiso   1.00
C401   C     0.78418   0.74371   0.04783   0.00000  Uiso   1.00
C402   C     0.85551   0.79170   0.44597   0.00000  Uiso   1.00
C403   C     0.78821   0.73858   0.09792   0.00000  Uiso   1.00
C404   C     0.85747   0.78601   0.39690   0.00000  Uiso   1.00
H405   H     0.75399   0.72777   0.11432   0.00000  Uiso   1.00
H406   H     0.87649   0.81183   0.37665   0.00000  Uiso   1.00
N407   N     0.83333   0.74999   0.12624   0.00000  Uiso   1.00
N408   N     0.83333   0.75001   0.37377   0.00000  Uiso   1.00
C409   C     0.87608   0.76659   0.10550   0.00000  Uiso   1.00
C410   C     0.80760   0.71762   0.39962   0.00000  Uiso   1.00
C411   C     0.87532   0.76774   0.05603   0.00000  Uiso   1.00
C412   C     0.80946   0.72030   0.44895   0.00000  Uiso   1.00
C413   C     0.82940   0.75756   0.02603   0.00000  Uiso   1.00
C414   C     0.83103   0.75759   0.47293   0.00000  Uiso   1.00
H415   H     0.99231   0.73842   0.19700   0.00000  Uiso   1.00
H416   H     0.67440   0.75717   0.30420   0.00000  Uiso   1.00
N417   N     0.82861   0.50832   0.32292   0.00000  Uiso   1.00
O418   O     0.79226   0.97703   0.31449   0.00000  Uiso   1.00
O419   O     0.85156   0.51281   0.36596   0.00000  Uiso   1.00
N420   N     0.77230   0.98359   0.18410   0.00000  Uiso   1.00
O421   O     0.72383   0.98023   0.19283   0.00000  Uiso   1.00
O422   O     0.78436   0.51021   0.14946   0.00000  Uiso   1.00
N423   N     0.81803   0.60093   0.33105   0.00000  Uiso   1.00
O424   O     0.85215   0.61749   0.36408   0.00000  Uiso   1.00
O425   O     0.77252   0.58595   0.34144   0.00000  Uiso   1.00
N426   N     0.75756   0.88824   0.18866   0.00000  Uiso   1.00
O427   O     0.72824   0.85911   0.20948   0.00000  Uiso   1.00
O428   O     0.74493   0.89864   0.14394   0.00000  Uiso   1.00
H429   H     0.87717   0.62131   0.18434   0.00000  Uiso   1.00
H430   H     0.91132   0.88414   0.29361   0.00000  Uiso   1.00
N431   N     0.73364   0.73699   0.02034   0.00000  Uiso   1.00
O432   O     0.71973   0.76276   0.48311   0.00000  Uiso   1.00
O433   O     0.69873   0.70934   0.03589   0.00000  Uiso   1.00
N434   N     0.87621   0.83287   0.46667   0.00000  Uiso   1.00
O435   O     0.85241   0.85140   0.49805   0.00000  Uiso   1.00
O436   O     0.91470   0.85508   0.44977   0.00000  Uiso   1.00
N437   N     0.92071   0.78689   0.13290   0.00000  Uiso   1.00
O438   O     0.96730   0.78164   0.12115   0.00000  Uiso   1.00
O439   O     0.91384   0.82080   0.15835   0.00000  Uiso   1.00
N440   N     0.77628   0.68100   0.37820   0.00000  Uiso   1.00
O441   O     0.75062   0.68567   0.33624   0.00000  Uiso   1.00
O442   O     0.76266   0.64699   0.40480   0.00000  Uiso   1.00
H443   H     0.91045   0.77859   0.04089   0.00000  Uiso   1.00
H444   H     0.79180   0.69346   0.46901   0.00000  Uiso   1.00
O445   O     0.16667   0.18453   0.78974   0.00000  Uiso   1.00
O446   O     0.16666   0.31546   0.71026   0.00000  Uiso   1.00
O447   O     0.16667   0.18453   0.71026   0.00000  Uiso   1.00
O448   O     0.16666   0.31547   0.78974   0.00000  Uiso   1.00
C449   C     0.16934   0.16356   0.75106   0.00000  Uiso   1.00
C450   C     0.16681   0.33607   0.74895   0.00000  Uiso   1.00
O451   O     0.09058   0.25000   0.78045   0.00000  Uiso   1.00
O452   O     0.24275   0.25000   0.71956   0.00000  Uiso   1.00
O453   O     0.09058   0.24999   0.70097   0.00000  Uiso   1.00
O454   O     0.24275   0.25000   0.79904   0.00000  Uiso   1.00
C455   C     0.06720   0.24888   0.73793   0.00000  Uiso   1.00
C456   C     0.26614   0.25003   0.76221   0.00000  Uiso   1.00
Zn457  Zn    0.16667   0.25000   0.80307   0.00000  Uiso   1.00
Zn458  Zn    0.16667   0.24999   0.69693   0.00000  Uiso   1.00
C459   C     0.01235   0.24567   0.73182   0.00000  Uiso   1.00
C460   C     0.32104   0.25104   0.76892   0.00000  Uiso   1.00
C461   C     0.17459   0.03930   0.78562   0.00000  Uiso   1.00
C462   C     0.14476   0.45614   0.71065   0.00000  Uiso   1.00
C463   C     0.16965   0.08552   0.78980   0.00000  Uiso   1.00
C464   C     0.13609   0.40950   0.71498   0.00000  Uiso   1.00
C465   C     0.17988   0.11547   0.75218   0.00000  Uiso   1.00
C466   C     0.17177   0.38416   0.74619   0.00000  Uiso   1.00
C467   C     0.20016   0.09902   0.71299   0.00000  Uiso   1.00
C468   C     0.21662   0.40413   0.77072   0.00000  Uiso   1.00
C469   C     0.20595   0.05347   0.70926   0.00000  Uiso   1.00
C470   C     0.22577   0.44992   0.76565   0.00000  Uiso   1.00
H471   H     0.21991   0.04124   0.67809   0.00000  Uiso   1.00
H472   H     0.25941   0.46554   0.78643   0.00000  Uiso   1.00
C473   C     0.19101   0.02371   0.74433   0.00000  Uiso   1.00
C474   C     0.18939   0.47598   0.73694   0.00000  Uiso   1.00
C475   C     0.11752   0.24371   0.54783   0.00000  Uiso   1.00
C476   C     0.18884   0.29170   0.94597   0.00000  Uiso   1.00
C477   C     0.12154   0.23858   0.59792   0.00000  Uiso   1.00
C478   C     0.19080   0.28601   0.89690   0.00000  Uiso   1.00
H479   H     0.08732   0.22777   0.61432   0.00000  Uiso   1.00
H480   H     0.20982   0.31183   0.87665   0.00000  Uiso   1.00
N481   N     0.16667   0.24999   0.62624   0.00000  Uiso   1.00
N482   N     0.16667   0.25001   0.87377   0.00000  Uiso   1.00
C483   C     0.20941   0.26659   0.60550   0.00000  Uiso   1.00
C484   C     0.14093   0.21762   0.89962   0.00000  Uiso   1.00
C485   C     0.20866   0.26774   0.55603   0.00000  Uiso   1.00
C486   C     0.14280   0.22030   0.94895   0.00000  Uiso   1.00
C487   C     0.16274   0.25756   0.52603   0.00000  Uiso   1.00
C488   C     0.16436   0.25759   0.97293   0.00000  Uiso   1.00
H489   H     0.32565   0.23842   0.69700   0.00000  Uiso   1.00
H490   H     0.00774   0.25717   0.80420   0.00000  Uiso   1.00
N491   N     0.16194   0.00832   0.82292   0.00000  Uiso   1.00
O492   O     0.12559   0.47703   0.81449   0.00000  Uiso   1.00
O493   O     0.18489   0.01281   0.86596   0.00000  Uiso   1.00
N494   N     0.10563   0.48359   0.68410   0.00000  Uiso   1.00
O495   O     0.05716   0.48023   0.69283   0.00000  Uiso   1.00
O496   O     0.11770   0.01021   0.64946   0.00000  Uiso   1.00
N497   N     0.15136   0.10093   0.83105   0.00000  Uiso   1.00
O498   O     0.18549   0.11749   0.86408   0.00000  Uiso   1.00
O499   O     0.10586   0.08595   0.84144   0.00000  Uiso   1.00
N500   N     0.09090   0.38824   0.68866   0.00000  Uiso   1.00
O501   O     0.06157   0.35911   0.70948   0.00000  Uiso   1.00
O502   O     0.07826   0.39864   0.64394   0.00000  Uiso   1.00
H503   H     0.21050   0.12131   0.68434   0.00000  Uiso   1.00
H504   H     0.24465   0.38414   0.79361   0.00000  Uiso   1.00
N505   N     0.06697   0.23699   0.52034   0.00000  Uiso   1.00
O506   O     0.05306   0.26276   0.98311   0.00000  Uiso   1.00
O507   O     0.03206   0.20934   0.53589   0.00000  Uiso   1.00
N508   N     0.20955   0.33287   0.96667   0.00000  Uiso   1.00
O509   O     0.18574   0.35140   0.99805   0.00000  Uiso   1.00
O510   O     0.24803   0.35508   0.94977   0.00000  Uiso   1.00
N511   N     0.25404   0.28689   0.63290   0.00000  Uiso   1.00
O512   O     0.30063   0.28164   0.62115   0.00000  Uiso   1.00
O513   O     0.24717   0.32080   0.65835   0.00000  Uiso   1.00
N514   N     0.10961   0.18100   0.87820   0.00000  Uiso   1.00
O515   O     0.08395   0.18567   0.83624   0.00000  Uiso   1.00
O516   O     0.09599   0.14699   0.90480   0.00000  Uiso   1.00
H517   H     0.24379   0.27859   0.54089   0.00000  Uiso   1.00
H518   H     0.12513   0.19346   0.96901   0.00000  Uiso   1.00
O519   O     0.50000   0.18453   0.78974   0.00000  Uiso   1.00
O520   O     0.50000   0.31546   0.71026   0.00000  Uiso   1.00
O521   O     0.50000   0.18453   0.71026   0.00000  Uiso   1.00
O522   O     0.50000   0.31547   0.78974   0.00000  Uiso   1.00
C523   C     0.50268   0.16356   0.75106   0.00000  Uiso   1.00
C524   C     0.50015   0.33607   0.74895   0.00000  Uiso   1.00
O525   O     0.42392   0.25000   0.78045   0.00000  Uiso   1.00
O526   O     0.57608   0.25000   0.71956   0.00000  Uiso   1.00
O527   O     0.42392   0.24999   0.70097   0.00000  Uiso   1.00
O528   O     0.57608   0.25000   0.79904   0.00000  Uiso   1.00
C529   C     0.40053   0.24888   0.73793   0.00000  Uiso   1.00
C530   C     0.59948   0.25003   0.76221   0.00000  Uiso   1.00
Zn531  Zn    0.50000   0.25000   0.80307   0.00000  Uiso   1.00
Zn532  Zn    0.50000   0.24999   0.69693   0.00000  Uiso   1.00
C533   C     0.34568   0.24567   0.73182   0.00000  Uiso   1.00
C534   C     0.65438   0.25104   0.76892   0.00000  Uiso   1.00
C535   C     0.50792   0.03930   0.78562   0.00000  Uiso   1.00
C536   C     0.47809   0.45614   0.71065   0.00000  Uiso   1.00
C537   C     0.50298   0.08552   0.78980   0.00000  Uiso   1.00
C538   C     0.46942   0.40950   0.71498   0.00000  Uiso   1.00
C539   C     0.51321   0.11547   0.75218   0.00000  Uiso   1.00
C540   C     0.50510   0.38416   0.74619   0.00000  Uiso   1.00
C541   C     0.53349   0.09902   0.71299   0.00000  Uiso   1.00
C542   C     0.54995   0.40413   0.77072   0.00000  Uiso   1.00
C543   C     0.53928   0.05347   0.70926   0.00000  Uiso   1.00
C544   C     0.55911   0.44992   0.76565   0.00000  Uiso   1.00
H545   H     0.55324   0.04124   0.67809   0.00000  Uiso   1.00
H546   H     0.59275   0.46554   0.78643   0.00000  Uiso   1.00
C547   C     0.52435   0.02371   0.74433   0.00000  Uiso   1.00
C548   C     0.52272   0.47598   0.73694   0.00000  Uiso   1.00
C549   C     0.45085   0.24371   0.54783   0.00000  Uiso   1.00
C550   C     0.52217   0.29170   0.94597   0.00000  Uiso   1.00
C551   C     0.45488   0.23858   0.59792   0.00000  Uiso   1.00
C552   C     0.52413   0.28601   0.89690   0.00000  Uiso   1.00
H553   H     0.42065   0.22777   0.61432   0.00000  Uiso   1.00
H554   H     0.54316   0.31183   0.87665   0.00000  Uiso   1.00
N555   N     0.50000   0.24999   0.62624   0.00000  Uiso   1.00
N556   N     0.50000   0.25001   0.87377   0.00000  Uiso   1.00
C557   C     0.54274   0.26659   0.60550   0.00000  Uiso   1.00
C558   C     0.47426   0.21762   0.89962   0.00000  Uiso   1.00
C559   C     0.54199   0.26774   0.55603   0.00000  Uiso   1.00
C560   C     0.47613   0.22030   0.94895   0.00000  Uiso   1.00
C561   C     0.49607   0.25756   0.52603   0.00000  Uiso   1.00
C562   C     0.49770   0.25759   0.97293   0.00000  Uiso   1.00
H563   H     0.65898   0.23842   0.69700   0.00000  Uiso   1.00
H564   H     0.34107   0.25717   0.80420   0.00000  Uiso   1.00
N565   N     0.49528   0.00832   0.82292   0.00000  Uiso   1.00
O566   O     0.45892   0.47703   0.81449   0.00000  Uiso   1.00
O567   O     0.51822   0.01281   0.86596   0.00000  Uiso   1.00
N568   N     0.43896   0.48359   0.68410   0.00000  Uiso   1.00
O569   O     0.39049   0.48023   0.69283   0.00000  Uiso   1.00
O570   O     0.45103   0.01021   0.64946   0.00000  Uiso   1.00
N571   N     0.48469   0.10093   0.83105   0.00000  Uiso   1.00
O572   O     0.51882   0.11749   0.86408   0.00000  Uiso   1.00
O573   O     0.43919   0.08595   0.84144   0.00000  Uiso   1.00
N574   N     0.42423   0.38824   0.68866   0.00000  Uiso   1.00
O575   O     0.39490   0.35911   0.70948   0.00000  Uiso   1.00
O576   O     0.41160   0.39864   0.64394   0.00000  Uiso   1.00
H577   H     0.54384   0.12131   0.68434   0.00000  Uiso   1.00
H578   H     0.57799   0.38414   0.79361   0.00000  Uiso   1.00
N579   N     0.40031   0.23699   0.52034   0.00000  Uiso   1.00
O580   O     0.38640   0.26276   0.98311   0.00000  Uiso   1.00
O581   O     0.36539   0.20934   0.53589   0.00000  Uiso   1.00
N582   N     0.54288   0.33287   0.96667   0.00000  Uiso   1.00
O583   O     0.51908   0.35140   0.99805   0.00000  Uiso   1.00
O584   O     0.58137   0.35508   0.94977   0.00000  Uiso   1.00
N585   N     0.58738   0.28689   0.63290   0.00000  Uiso   1.00
O586   O     0.63397   0.28164   0.62115   0.00000  Uiso   1.00
O587   O     0.58050   0.32080   0.65835   0.00000  Uiso   1.00
N588   N     0.44295   0.18100   0.87820   0.00000  Uiso   1.00
O589   O     0.41728   0.18567   0.83624   0.00000  Uiso   1.00
O590   O     0.42933   0.14699   0.90480   0.00000  Uiso   1.00
H591   H     0.57712   0.27859   0.54089   0.00000  Uiso   1.00
H592   H     0.45846   0.19346   0.96901   0.00000  Uiso   1.00
O593   O     0.83334   0.18453   0.78974   0.00000  Uiso   1.00
O594   O     0.83333   0.31546   0.71026   0.00000  Uiso   1.00
O595   O     0.83334   0.18453   0.71026   0.00000  Uiso   1.00
O596   O     0.83333   0.31547   0.78974   0.00000  Uiso   1.00
C597   C     0.83601   0.16356   0.75106   0.00000  Uiso   1.00
C598   C     0.83348   0.33607   0.74895   0.00000  Uiso   1.00
O599   O     0.75725   0.25000   0.78045   0.00000  Uiso   1.00
O600   O     0.90942   0.25000   0.71956   0.00000  Uiso   1.00
O601   O     0.75725   0.24999   0.70097   0.00000  Uiso   1.00
O602   O     0.90942   0.25000   0.79904   0.00000  Uiso   1.00
C603   C     0.73386   0.24888   0.73793   0.00000  Uiso   1.00
C604   C     0.93281   0.25003   0.76221   0.00000  Uiso   1.00
Zn605  Zn    0.83333   0.25000   0.80307   0.00000  Uiso   1.00
Zn606  Zn    0.83333   0.24999   0.69693   0.00000  Uiso   1.00
C607   C     0.67901   0.24567   0.73182   0.00000  Uiso   1.00
C608   C     0.98771   0.25104   0.76892   0.00000  Uiso   1.00
C609   C     0.84126   0.03930   0.78562   0.00000  Uiso   1.00
C610   C     0.81143   0.45614   0.71065   0.00000  Uiso   1.00
C611   C     0.83632   0.08552   0.78980   0.00000  Uiso   1.00
C612   C     0.80276   0.40950   0.71498   0.00000  Uiso   1.00
C613   C     0.84655   0.11547   0.75218   0.00000  Uiso   1.00
C614   C     0.83844   0.38416   0.74619   0.00000  Uiso   1.00
C615   C     0.86682   0.09902   0.71299   0.00000  Uiso   1.00
C616   C     0.88328   0.40413   0.77072   0.00000  Uiso   1.00
C617   C     0.87261   0.05347   0.70926   0.00000  Uiso   1.00
C618   C     0.89244   0.44992   0.76565   0.00000  Uiso   1.00
H619   H     0.88658   0.04124   0.67809   0.00000  Uiso   1.00
H620   H     0.92608   0.46554   0.78643   0.00000  Uiso   1.00
C621   C     0.85768   0.02371   0.74433   0.00000  Uiso   1.00
C622   C     0.85605   0.47598   0.73694   0.00000  Uiso   1.00
C623   C     0.78418   0.24371   0.54783   0.00000  Uiso   1.00
C624   C     0.85551   0.29170   0.94597   0.00000  Uiso   1.00
C625   C     0.78821   0.23858   0.59792   0.00000  Uiso   1.00
C626   C     0.85747   0.28601   0.89690   0.00000  Uiso   1.00
H627   H     0.75399   0.22777   0.61432   0.00000  Uiso   1.00
H628   H     0.87649   0.31183   0.87665   0.00000  Uiso   1.00
N629   N     0.83333   0.24999   0.62624   0.00000  Uiso   1.00
N630   N     0.83333   0.25001   0.87377   0.00000  Uiso   1.00
C631   C     0.87608   0.26659   0.60550   0.00000  Uiso   1.00
C632   C     0.80760   0.21762   0.89962   0.00000  Uiso   1.00
C633   C     0.87532   0.26774   0.55603   0.00000  Uiso   1.00
C634   C     0.80946   0.22030   0.94895   0.00000  Uiso   1.00
C635   C     0.82940   0.25756   0.52603   0.00000  Uiso   1.00
C636   C     0.83103   0.25759   0.97293   0.00000  Uiso   1.00
H637   H     0.99231   0.23842   0.69700   0.00000  Uiso   1.00
H638   H     0.67440   0.25717   0.80420   0.00000  Uiso   1.00
N639   N     0.82861   0.00832   0.82292   0.00000  Uiso   1.00
O640   O     0.79226   0.47703   0.81449   0.00000  Uiso   1.00
O641   O     0.85156   0.01281   0.86596   0.00000  Uiso   1.00
N642   N     0.77230   0.48359   0.68410   0.00000  Uiso   1.00
O643   O     0.72383   0.48023   0.69283   0.00000  Uiso   1.00
O644   O     0.78436   0.01021   0.64946   0.00000  Uiso   1.00
N645   N     0.81803   0.10093   0.83105   0.00000  Uiso   1.00
O646   O     0.85215   0.11749   0.86408   0.00000  Uiso   1.00
O647   O     0.77252   0.08595   0.84144   0.00000  Uiso   1.00
N648   N     0.75756   0.38824   0.68866   0.00000  Uiso   1.00
O649   O     0.72824   0.35911   0.70948   0.00000  Uiso   1.00
O650   O     0.74493   0.39864   0.64394   0.00000  Uiso   1.00
H651   H     0.87717   0.12131   0.68434   0.00000  Uiso   1.00
H652   H     0.91132   0.38414   0.79361   0.00000  Uiso   1.00
N653   N     0.73364   0.23699   0.52034   0.00000  Uiso   1.00
O654   O     0.71973   0.26276   0.98311   0.00000  Uiso   1.00
O655   O     0.69873   0.20934   0.53589   0.00000  Uiso   1.00
N656   N     0.87621   0.33287   0.96667   0.00000  Uiso   1.00
O657   O     0.85241   0.35140   0.99805   0.00000  Uiso   1.00
O658   O     0.91470   0.35508   0.94977   0.00000  Uiso   1.00
N659   N     0.92071   0.28689   0.63290   0.00000  Uiso   1.00
O660   O     0.96730   0.28164   0.62115   0.00000  Uiso   1.00
O661   O     0.91384   0.32080   0.65835   0.00000  Uiso   1.00
N662   N     0.77628   0.18100   0.87820   0.00000  Uiso   1.00
O663   O     0.75062   0.18567   0.83624   0.00000  Uiso   1.00
O664   O     0.76266   0.14699   0.90480   0.00000  Uiso   1.00
H665   H     0.91045   0.27859   0.54089   0.00000  Uiso   1.00
H666   H     0.79180   0.19346   0.96901   0.00000  Uiso   1.00
O667   O     0.16667   0.68453   0.78974   0.00000  Uiso   1.00
O668   O     0.16666   0.81546   0.71026   0.00000  Uiso   1.00
O669   O     0.16667   0.68453   0.71026   0.00000  Uiso   1.00
O670   O     0.16666   0.81547   0.78974   0.00000  Uiso   1.00
C671   C     0.16934   0.66356   0.75106   0.00000  Uiso   1.00
C672   C     0.16681   0.83607   0.74895   0.00000  Uiso   1.00
O673   O     0.09058   0.75000   0.78045   0.00000  Uiso   1.00
O674   O     0.24275   0.75000   0.71956   0.00000  Uiso   1.00
O675   O     0.09058   0.74999   0.70097   0.00000  Uiso   1.00
O676   O     0.24275   0.75000   0.79904   0.00000  Uiso   1.00
C677   C     0.06720   0.74888   0.73793   0.00000  Uiso   1.00
C678   C     0.26614   0.75003   0.76221   0.00000  Uiso   1.00
Zn679  Zn    0.16667   0.75000   0.80307   0.00000  Uiso   1.00
Zn680  Zn    0.16667   0.74999   0.69693   0.00000  Uiso   1.00
C681   C     0.01235   0.74567   0.73182   0.00000  Uiso   1.00
C682   C     0.32104   0.75104   0.76892   0.00000  Uiso   1.00
C683   C     0.17459   0.53930   0.78562   0.00000  Uiso   1.00
C684   C     0.14476   0.95614   0.71065   0.00000  Uiso   1.00
C685   C     0.16965   0.58552   0.78980   0.00000  Uiso   1.00
C686   C     0.13609   0.90950   0.71498   0.00000  Uiso   1.00
C687   C     0.17988   0.61547   0.75218   0.00000  Uiso   1.00
C688   C     0.17177   0.88416   0.74619   0.00000  Uiso   1.00
C689   C     0.20016   0.59902   0.71299   0.00000  Uiso   1.00
C690   C     0.21662   0.90413   0.77072   0.00000  Uiso   1.00
C691   C     0.20595   0.55347   0.70926   0.00000  Uiso   1.00
C692   C     0.22577   0.94992   0.76565   0.00000  Uiso   1.00
H693   H     0.21991   0.54124   0.67809   0.00000  Uiso   1.00
H694   H     0.25941   0.96554   0.78643   0.00000  Uiso   1.00
C695   C     0.19101   0.52371   0.74433   0.00000  Uiso   1.00
C696   C     0.18939   0.97598   0.73694   0.00000  Uiso   1.00
C697   C     0.11752   0.74371   0.54783   0.00000  Uiso   1.00
C698   C     0.18884   0.79170   0.94597   0.00000  Uiso   1.00
C699   C     0.12154   0.73858   0.59792   0.00000  Uiso   1.00
C700   C     0.19080   0.78601   0.89690   0.00000  Uiso   1.00
H701   H     0.08732   0.72777   0.61432   0.00000  Uiso   1.00
H702   H     0.20982   0.81183   0.87665   0.00000  Uiso   1.00
N703   N     0.16667   0.74999   0.62624   0.00000  Uiso   1.00
N704   N     0.16667   0.75001   0.87377   0.00000  Uiso   1.00
C705   C     0.20941   0.76659   0.60550   0.00000  Uiso   1.00
C706   C     0.14093   0.71762   0.89962   0.00000  Uiso   1.00
C707   C     0.20866   0.76774   0.55603   0.00000  Uiso   1.00
C708   C     0.14280   0.72030   0.94895   0.00000  Uiso   1.00
C709   C     0.16274   0.75756   0.52603   0.00000  Uiso   1.00
C710   C     0.16436   0.75759   0.97293   0.00000  Uiso   1.00
H711   H     0.32565   0.73842   0.69700   0.00000  Uiso   1.00
H712   H     0.00774   0.75717   0.80420   0.00000  Uiso   1.00
N713   N     0.16194   0.50832   0.82292   0.00000  Uiso   1.00
O714   O     0.12559   0.97703   0.81449   0.00000  Uiso   1.00
O715   O     0.18489   0.51281   0.86596   0.00000  Uiso   1.00
N716   N     0.10563   0.98359   0.68410   0.00000  Uiso   1.00
O717   O     0.05716   0.98023   0.69283   0.00000  Uiso   1.00
O718   O     0.11770   0.51021   0.64946   0.00000  Uiso   1.00
N719   N     0.15136   0.60093   0.83105   0.00000  Uiso   1.00
O720   O     0.18549   0.61749   0.86408   0.00000  Uiso   1.00
O721   O     0.10586   0.58595   0.84144   0.00000  Uiso   1.00
N722   N     0.09090   0.88824   0.68866   0.00000  Uiso   1.00
O723   O     0.06157   0.85911   0.70948   0.00000  Uiso   1.00
O724   O     0.07826   0.89864   0.64394   0.00000  Uiso   1.00
H725   H     0.21050   0.62131   0.68434   0.00000  Uiso   1.00
H726   H     0.24465   0.88414   0.79361   0.00000  Uiso   1.00
N727   N     0.06697   0.73699   0.52034   0.00000  Uiso   1.00
O728   O     0.05306   0.76276   0.98311   0.00000  Uiso   1.00
O729   O     0.03206   0.70934   0.53589   0.00000  Uiso   1.00
N730   N     0.20955   0.83287   0.96667   0.00000  Uiso   1.00
O731   O     0.18574   0.85140   0.99805   0.00000  Uiso   1.00
O732   O     0.24803   0.85508   0.94977   0.00000  Uiso   1.00
N733   N     0.25404   0.78689   0.63290   0.00000  Uiso   1.00
O734   O     0.30063   0.78164   0.62115   0.00000  Uiso   1.00
O735   O     0.24717   0.82080   0.65835   0.00000  Uiso   1.00
N736   N     0.10961   0.68100   0.87820   0.00000  Uiso   1.00
O737   O     0.08395   0.68567   0.83624   0.00000  Uiso   1.00
O738   O     0.09599   0.64699   0.90480   0.00000  Uiso   1.00
H739   H     0.24379   0.77859   0.54089   0.00000  Uiso   1.00
H740   H     0.12513   0.69346   0.96901   0.00000  Uiso   1.00
O741   O     0.50000   0.68453   0.78974   0.00000  Uiso   1.00
O742   O     0.50000   0.81546   0.71026   0.00000  Uiso   1.00
O743   O     0.50000   0.68453   0.71026   0.00000  Uiso   1.00
O744   O     0.50000   0.81547   0.78974   0.00000  Uiso   1.00
C745   C     0.50268   0.66356   0.75106   0.00000  Uiso   1.00
C746   C     0.50015   0.83607   0.74895   0.00000  Uiso   1.00
O747   O     0.42392   0.75000   0.78045   0.00000  Uiso   1.00
O748   O     0.57608   0.75000   0.71956   0.00000  Uiso   1.00
O749   O     0.42392   0.74999   0.70097   0.00000  Uiso   1.00
O750   O     0.57608   0.75000   0.79904   0.00000  Uiso   1.00
C751   C     0.40053   0.74888   0.73793   0.00000  Uiso   1.00
C752   C     0.59948   0.75003   0.76221   0.00000  Uiso   1.00
Zn753  Zn    0.50000   0.75000   0.80307   0.00000  Uiso   1.00
Zn754  Zn    0.50000   0.74999   0.69693   0.00000  Uiso   1.00
C755   C     0.34568   0.74567   0.73182   0.00000  Uiso   1.00
C756   C     0.65438   0.75104   0.76892   0.00000  Uiso   1.00
C757   C     0.50792   0.53930   0.78562   0.00000  Uiso   1.00
C758   C     0.47809   0.95614   0.71065   0.00000  Uiso   1.00
C759   C     0.50298   0.58552   0.78980   0.00000  Uiso   1.00
C760   C     0.46942   0.90950   0.71498   0.00000  Uiso   1.00
C761   C     0.51321   0.61547   0.75218   0.00000  Uiso   1.00
C762   C     0.50510   0.88416   0.74619   0.00000  Uiso   1.00
C763   C     0.53349   0.59902   0.71299   0.00000  Uiso   1.00
C764   C     0.54995   0.90413   0.77072   0.00000  Uiso   1.00
C765   C     0.53928   0.55347   0.70926   0.00000  Uiso   1.00
C766   C     0.55911   0.94992   0.76565   0.00000  Uiso   1.00
H767   H     0.55324   0.54124   0.67809   0.00000  Uiso   1.00
H768   H     0.59275   0.96554   0.78643   0.00000  Uiso   1.00
C769   C     0.52435   0.52371   0.74433   0.00000  Uiso   1.00
C770   C     0.52272   0.97598   0.73694   0.00000  Uiso   1.00
C771   C     0.45085   0.74371   0.54783   0.00000  Uiso   1.00
C772   C     0.52217   0.79170   0.94597   0.00000  Uiso   1.00
C773   C     0.45488   0.73858   0.59792   0.00000  Uiso   1.00
C774   C     0.52413   0.78601   0.89690   0.00000  Uiso   1.00
H775   H     0.42065   0.72777   0.61432   0.00000  Uiso   1.00
H776   H     0.54316   0.81183   0.87665   0.00000  Uiso   1.00
N777   N     0.50000   0.74999   0.62624   0.00000  Uiso   1.00
N778   N     0.50000   0.75001   0.87377   0.00000  Uiso   1.00
C779   C     0.54274   0.76659   0.60550   0.00000  Uiso   1.00
C780   C     0.47426   0.71762   0.89962   0.00000  Uiso   1.00
C781   C     0.54199   0.76774   0.55603   0.00000  Uiso   1.00
C782   C     0.47613   0.72030   0.94895   0.00000  Uiso   1.00
C783   C     0.49607   0.75756   0.52603   0.00000  Uiso   1.00
C784   C     0.49770   0.75759   0.97293   0.00000  Uiso   1.00
H785   H     0.65898   0.73842   0.69700   0.00000  Uiso   1.00
H786   H     0.34107   0.75717   0.80420   0.00000  Uiso   1.00
N787   N     0.49528   0.50832   0.82292   0.00000  Uiso   1.00
O788   O     0.45892   0.97703   0.81449   0.00000  Uiso   1.00
O789   O     0.51822   0.51281   0.86596   0.00000  Uiso   1.00
N790   N     0.43896   0.98359   0.68410   0.00000  Uiso   1.00
O791   O     0.39049   0.98023   0.69283   0.00000  Uiso   1.00
O792   O     0.45103   0.51021   0.64946   0.00000  Uiso   1.00
N793   N     0.48469   0.60093   0.83105   0.00000  Uiso   1.00
O794   O     0.51882   0.61749   0.86408   0.00000  Uiso   1.00
O795   O     0.43919   0.58595   0.84144   0.00000  Uiso   1.00
N796   N     0.42423   0.88824   0.68866   0.00000  Uiso   1.00
O797   O     0.39490   0.85911   0.70948   0.00000  Uiso   1.00
O798   O     0.41160   0.89864   0.64394   0.00000  Uiso   1.00
H799   H     0.54384   0.62131   0.68434   0.00000  Uiso   1.00
H800   H     0.57799   0.88414   0.79361   0.00000  Uiso   1.00
N801   N     0.40031   0.73699   0.52034   0.00000  Uiso   1.00
O802   O     0.38640   0.76276   0.98311   0.00000  Uiso   1.00
O803   O     0.36539   0.70934   0.53589   0.00000  Uiso   1.00
N804   N     0.54288   0.83287   0.96667   0.00000  Uiso   1.00
O805   O     0.51908   0.85140   0.99805   0.00000  Uiso   1.00
O806   O     0.58137   0.85508   0.94977   0.00000  Uiso   1.00
N807   N     0.58738   0.78689   0.63290   0.00000  Uiso   1.00
O808   O     0.63397   0.78164   0.62115   0.00000  Uiso   1.00
O809   O     0.58050   0.82080   0.65835   0.00000  Uiso   1.00
N810   N     0.44295   0.68100   0.87820   0.00000  Uiso   1.00
O811   O     0.41728   0.68567   0.83624   0.00000  Uiso   1.00
O812   O     0.42933   0.64699   0.90480   0.00000  Uiso   1.00
H813   H     0.57712   0.77859   0.54089   0.00000  Uiso   1.00
H814   H     0.45846   0.69346   0.96901   0.00000  Uiso   1.00
O815   O     0.83334   0.68453   0.78974   0.00000  Uiso   1.00
O816   O     0.83333   0.81546   0.71026   0.00000  Uiso   1.00
O817   O     0.83334   0.68453   0.71026   0.00000  Uiso   1.00
O818   O     0.83333   0.81547   0.78974   0.00000  Uiso   1.00
C819   C     0.83601   0.66356   0.75106   0.00000  Uiso   1.00
C820   C     0.83348   0.83607   0.74895   0.00000  Uiso   1.00
O821   O     0.75725   0.75000   0.78045   0.00000  Uiso   1.00
O822   O     0.90942   0.75000   0.71956   0.00000  Uiso   1.00
O823   O     0.75725   0.74999   0.70097   0.00000  Uiso   1.00
O824   O     0.90942   0.75000   0.79904   0.00000  Uiso   1.00
C825   C     0.73386   0.74888   0.73793   0.00000  Uiso   1.00
C826   C     0.93281   0.75003   0.76221   0.00000  Uiso   1.00
Zn827  Zn    0.83333   0.75000   0.80307   0.00000  Uiso   1.00
Zn828  Zn    0.83333   0.74999   0.69693   0.00000  Uiso   1.00
C829   C     0.67901   0.74567   0.73182   0.00000  Uiso   1.00
C830   C     0.98771   0.75104   0.76892   0.00000  Uiso   1.00
C831   C     0.84126   0.53930   0.78562   0.00000  Uiso   1.00
C832   C     0.81143   0.95614   0.71065   0.00000  Uiso   1.00
C833   C     0.83632   0.58552   0.78980   0.00000  Uiso   1.00
C834   C     0.80276   0.90950   0.71498   0.00000  Uiso   1.00
C835   C     0.84655   0.61547   0.75218   0.00000  Uiso   1.00
C836   C     0.83844   0.88416   0.74619   0.00000  Uiso   1.00
C837   C     0.86682   0.59902   0.71299   0.00000  Uiso   1.00
C838   C     0.88328   0.90413   0.77072   0.00000  Uiso   1.00
C839   C     0.87261   0.55347   0.70926   0.00000  Uiso   1.00
C840   C     0.89244   0.94992   0.76565   0.00000  Uiso   1.00
H841   H     0.88658   0.54124   0.67809   0.00000  Uiso   1.00
H842   H     0.92608   0.96554   0.78643   0.00000  Uiso   1.00
C843   C     0.85768   0.52371   0.74433   0.00000  Uiso   1.00
C844   C     0.85605   0.97598   0.73694   0.00000  Uiso   1.00
C845   C     0.78418   0.74371   0.54783   0.00000  Uiso   1.00
C846   C     0.85551   0.79170   0.94597   0.00000  Uiso   1.00
C847   C     0.78821   0.73858   0.59792   0.00000  Uiso   1.00
C848   C     0.85747   0.78601   0.89690   0.00000  Uiso   1.00
H849   H     0.75399   0.72777   0.61432   0.00000  Uiso   1.00
H850   H     0.87649   0.81183   0.87665   0.00000  Uiso   1.00
N851   N     0.83333   0.74999   0.62624   0.00000  Uiso   1.00
N852   N     0.83333   0.75001   0.87377   0.00000  Uiso   1.00
C853   C     0.87608   0.76659   0.60550   0.00000  Uiso   1.00
C854   C     0.80760   0.71762   0.89962   0.00000  Uiso   1.00
C855   C     0.87532   0.76774   0.55603   0.00000  Uiso   1.00
C856   C     0.80946   0.72030   0.94895   0.00000  Uiso   1.00
C857   C     0.82940   0.75756   0.52603   0.00000  Uiso   1.00
C858   C     0.83103   0.75759   0.97293   0.00000  Uiso   1.00
H859   H     0.99231   0.73842   0.69700   0.00000  Uiso   1.00
H860   H     0.67440   0.75717   0.80420   0.00000  Uiso   1.00
N861   N     0.82861   0.50832   0.82292   0.00000  Uiso   1.00
O862   O     0.79226   0.97703   0.81449   0.00000  Uiso   1.00
O863   O     0.85156   0.51281   0.86596   0.00000  Uiso   1.00
N864   N     0.77230   0.98359   0.68410   0.00000  Uiso   1.00
O865   O     0.72383   0.98023   0.69283   0.00000  Uiso   1.00
O866   O     0.78436   0.51021   0.64946   0.00000  Uiso   1.00
N867   N     0.81803   0.60093   0.83105   0.00000  Uiso   1.00
O868   O     0.85215   0.61749   0.86408   0.00000  Uiso   1.00
O869   O     0.77252   0.58595   0.84144   0.00000  Uiso   1.00
N870   N     0.75756   0.88824   0.68866   0.00000  Uiso   1.00
O871   O     0.72824   0.85911   0.70948   0.00000  Uiso   1.00
O872   O     0.74493   0.89864   0.64394   0.00000  Uiso   1.00
H873   H     0.87717   0.62131   0.68434   0.00000  Uiso   1.00
H874   H     0.91132   0.88414   0.79361   0.00000  Uiso   1.00
N875   N     0.73364   0.73699   0.52034   0.00000  Uiso   1.00
O876   O     0.71973   0.76276   0.98311   0.00000  Uiso   1.00
O877   O     0.69873   0.70934   0.53589   0.00000  Uiso   1.00
N878   N     0.87621   0.83287   0.96667   0.00000  Uiso   1.00
O879   O     0.85241   0.85140   0.99805   0.00000  Uiso   1.00
O880   O     0.91470   0.85508   0.94977   0.00000  Uiso   1.00
N881   N     0.92071   0.78689   0.63290   0.00000  Uiso   1.00
O882   O     0.96730   0.78164   0.62115   0.00000  Uiso   1.00
O883   O     0.91384   0.82080   0.65835   0.00000  Uiso   1.00
N884   N     0.77628   0.68100   0.87820   0.00000  Uiso   1.00
O885   O     0.75062   0.68567   0.83624   0.00000  Uiso   1.00
O886   O     0.76266   0.64699   0.90480   0.00000  Uiso   1.00
H887   H     0.91045   0.77859   0.54089   0.00000  Uiso   1.00
H888   H     0.79180   0.69346   0.96901   0.00000  Uiso   1.00
loop_
_geom_bond_atom_site_label_1
_geom_bond_atom_site_label_2
_geom_bond_distance
_geom_bond_site_symmetry_2
_ccdc_geom_bond_type
O1     C5      1.303   .     A
O1     Zn13    2.003   .     S
O2     C6      1.286   .     A
O2     Zn14    2.003   .     S
O3     Zn14    1.969   .     S
O3     C5      1.291   .     A
O4     C6      1.291   .     A
O4     Zn13    1.969   .     S
C5     C21     1.466   .     S
C6     C22     1.432   .     S
O7     C11     1.283   .     A
O7     Zn13    1.978   .     S
O8     C12     1.285   .     A
O8     Zn14    1.978   .     S
O9     Zn14    1.974   .     S
O9     C11     1.279   .     A
O10    C12     1.277   .     A
O10    Zn13    1.974   .     S
C11    C15     1.398   .     S
C12    C16     1.398   .     S
Zn13   N38     2.017   .     S
Zn14   N37     2.017   .     S
C15    C164    1.321   1_455 S
C15    H193    1.084   1_455 S
C16    C89     1.321   .     S
C16    H120    1.088   .     S
C17    C29     1.405   .     A
C17    N47     1.438   .     S
C17    C19     1.399   .     A
C18    C30     1.410   .     A
C18    N50     1.436   .     S
C18    C20     1.401   .     A
C19    N53     1.423   .     S
C19    C21     1.410   .     A
C20    N56     1.439   .     S
C20    C22     1.408   .     A
C21    C23     1.408   .     A
C22    C24     1.395   .     A
C23    H59     1.083   .     S
C23    C25     1.380   .     A
C24    H60     1.084   .     S
C24    C26     1.379   .     A
C25    H27     1.084   .     S
C25    C29     1.389   .     A
C26    C30     1.395   .     A
C26    H28     1.084   .     S
C29    C252    1.444   1_545 S
C30    C251    1.444   .     S
C31    C33     1.421   .     A
C31    N61     1.439   .     S
C31    C43     1.427   .     A
C32    C44     1.423   .     A
C32    N64     1.438   .     S
C32    C34     1.425   .     A
C33    H35     1.081   .     S
C33    N37     1.365   .     A
C34    H36     1.081   .     S
C34    N38     1.369   .     A
N37    C39     1.379   .     A
N38    C40     1.388   .     A
C39    C41     1.408   .     A
C39    N67     1.431   .     S
C40    N70     1.440   .     S
C40    C42     1.408   .     A
C41    H73     1.083   .     S
C41    C43     1.396   .     A
C42    C44     1.389   .     A
C42    H74     1.082   .     S
C43    C488    1.521   1_554 S
C44    C487    1.521   .     S
H45    C89     1.084   .     S
H46    C164    1.088   1_455 S
N47    O49     1.301   .     A
N47    O270    1.301   1_545 S
O48    N269    1.301   .     S
N50    O51     1.301   .     A
N50    O274    1.301   .     S
O52    N272    1.301   1_545 S
N53    O54     1.301   .     A
N53    O55     1.301   .     A
N56    O57     1.301   .     A
N56    O58     1.301   .     A
N61    O63     1.302   .     A
N61    O506    1.301   1_554 S
O62    N505    1.301   .     S
N64    O65     1.301   .     A
N64    O66     1.301   .     A
N67    O69     1.300   .     A
N67    O68     1.302   .     A
N70    O71     1.294   .     A
N70    O72     1.303   .     A
O75    C79     1.303   .     A
O75    Zn87    2.003   .     S
O76    C80     1.286   .     A
O76    Zn88    2.003   .     S
O77    Zn88    1.969   .     S
O77    C79     1.291   .     A
O78    C80     1.291   .     A
O78    Zn87    1.969   .     S
C79    C95     1.466   .     S
C80    C96     1.432   .     S
O81    C85     1.283   .     A
O81    Zn87    1.978   .     S
O82    C86     1.285   .     A
O82    Zn88    1.978   .     S
O83    Zn88    1.974   .     S
O83    C85     1.279   .     A
O84    C86     1.277   .     A
O84    Zn87    1.974   .     S
C85    C89     1.398   .     S
C86    C90     1.398   .     S
Zn87   N112    2.017   .     S
Zn88   N111    2.017   .     S
C90    C163    1.321   .     S
C90    H194    1.088   .     S
C91    C103    1.405   .     A
C91    N121    1.438   .     S
C91    C93     1.399   .     A
C92    C104    1.410   .     A
C92    N124    1.436   .     S
C92    C94     1.401   .     A
C93    N127    1.423   .     S
C93    C95     1.410   .     A
C94    N130    1.439   .     S
C94    C96     1.408   .     A
C95    C97     1.408   .     A
C96    C98     1.395   .     A
C97    H133    1.083   .     S
C97    C99     1.380   .     A
C98    H134    1.084   .     S
C98    C100    1.379   .     A
C99    H101    1.084   .     S
C99    C103    1.389   .     A
C100   C104    1.395   .     A
C100   H102    1.084   .     S
C103   C326    1.444   1_545 S
C104   C325    1.444   .     S
C105   C107    1.421   .     A
C105   N135    1.439   .     S
C105   C117    1.427   .     A
C106   C118    1.423   .     A
C106   N138    1.438   .     S
C106   C108    1.425   .     A
C107   H109    1.081   .     S
C107   N111    1.365   .     A
C108   H110    1.081   .     S
C108   N112    1.369   .     A
N111   C113    1.379   .     A
N112   C114    1.388   .     A
C113   C115    1.408   .     A
C113   N141    1.431   .     S
C114   N144    1.440   .     S
C114   C116    1.408   .     A
C115   H147    1.083   .     S
C115   C117    1.396   .     A
C116   C118    1.389   .     A
C116   H148    1.082   .     S
C117   C562    1.521   1_554 S
C118   C561    1.521   .     S
H119   C163    1.084   .     S
N121   O123    1.301   .     A
N121   O344    1.301   1_545 S
O122   N343    1.301   .     S
N124   O125    1.301   .     A
N124   O348    1.301   .     S
O126   N346    1.301   1_545 S
N127   O128    1.301   .     A
N127   O129    1.301   .     A
N130   O131    1.301   .     A
N130   O132    1.301   .     A
N135   O137    1.302   .     A
N135   O580    1.301   1_554 S
O136   N579    1.301   .     S
N138   O139    1.301   .     A
N138   O140    1.301   .     A
N141   O143    1.300   .     A
N141   O142    1.302   .     A
N144   O145    1.294   .     A
N144   O146    1.303   .     A
O149   C153    1.303   .     A
O149   Zn161   2.003   .     S
O150   C154    1.286   .     A
O150   Zn162   2.003   .     S
O151   Zn162   1.969   .     S
O151   C153    1.291   .     A
O152   C154    1.291   .     A
O152   Zn161   1.969   .     S
C153   C169    1.466   .     S
C154   C170    1.432   .     S
O155   C159    1.283   .     A
O155   Zn161   1.978   .     S
O156   C160    1.285   .     A
O156   Zn162   1.978   .     S
O157   Zn162   1.974   .     S
O157   C159    1.279   .     A
O158   C160    1.277   .     A
O158   Zn161   1.974   .     S
C159   C163    1.398   .     S
C160   C164    1.398   .     S
Zn161  N186    2.017   .     S
Zn162  N185    2.017   .     S
C164   C15     1.321   1_655 S
C164   H46     1.088   1_655 S
C165   C177    1.405   .     A
C165   N195    1.438   .     S
C165   C167    1.399   .     A
C166   C178    1.410   .     A
C166   N198    1.436   .     S
C166   C168    1.401   .     A
C167   N201    1.423   .     S
C167   C169    1.410   .     A
C168   N204    1.439   .     S
C168   C170    1.408   .     A
C169   C171    1.408   .     A
C170   C172    1.395   .     A
C171   H207    1.083   .     S
C171   C173    1.380   .     A
C172   H208    1.084   .     S
C172   C174    1.379   .     A
C173   H175    1.084   .     S
C173   C177    1.389   .     A
C174   C178    1.395   .     A
C174   H176    1.084   .     S
C177   C400    1.444   1_545 S
C178   C399    1.444   .     S
C179   C181    1.421   .     A
C179   N209    1.439   .     S
C179   C191    1.427   .     A
C180   C192    1.423   .     A
C180   N212    1.438   .     S
C180   C182    1.425   .     A
C181   H183    1.081   .     S
C181   N185    1.365   .     A
C182   H184    1.081   .     S
C182   N186    1.369   .     A
N185   C187    1.379   .     A
N186   C188    1.388   .     A
C187   C189    1.408   .     A
C187   N215    1.431   .     S
C188   N218    1.440   .     S
C188   C190    1.408   .     A
C189   H221    1.083   .     S
C189   C191    1.396   .     A
C190   C192    1.389   .     A
C190   H222    1.082   .     S
C191   C636    1.521   1_554 S
C192   C635    1.521   .     S
H193   C15     1.084   1_655 S
N195   O197    1.301   .     A
N195   O418    1.301   1_545 S
O196   N417    1.301   .     S
N198   O199    1.301   .     A
N198   O422    1.301   .     S
O200   N420    1.301   1_545 S
N201   O202    1.301   .     A
N201   O203    1.301   .     A
N204   O205    1.301   .     A
N204   O206    1.301   .     A
N209   O211    1.302   .     A
N209   O654    1.301   1_554 S
O210   N653    1.301   .     S
N212   O213    1.301   .     A
N212   O214    1.301   .     A
N215   O217    1.300   .     A
N215   O216    1.302   .     A
N218   O219    1.294   .     A
N218   O220    1.303   .     A
O223   C227    1.303   .     A
O223   Zn235   2.003   .     S
O224   C228    1.286   .     A
O224   Zn236   2.003   .     S
O225   Zn236   1.969   .     S
O225   C227    1.291   .     A
O226   C228    1.291   .     A
O226   Zn235   1.969   .     S
C227   C243    1.466   .     S
C228   C244    1.432   .     S
O229   C233    1.283   .     A
O229   Zn235   1.978   .     S
O230   C234    1.285   .     A
O230   Zn236   1.978   .     S
O231   Zn236   1.974   .     S
O231   C233    1.279   .     A
O232   C234    1.277   .     A
O232   Zn235   1.974   .     S
C233   C237    1.398   .     S
C234   C238    1.398   .     S
Zn235  N260    2.017   .     S
Zn236  N259    2.017   .     S
C237   C386    1.321   1_455 S
C237   H415    1.084   1_455 S
C238   C311    1.321   .     S
C238   H342    1.088   .     S
C239   C251    1.405   .     A
C239   N269    1.438   .     S
C239   C241    1.399   .     A
C240   C252    1.410   .     A
C240   N272    1.436   .     S
C240   C242    1.401   .     A
C241   N275    1.423   .     S
C241   C243    1.410   .     A
C242   N278    1.439   .     S
C242   C244    1.408   .     A
C243   C245    1.408   .     A
C244   C246    1.395   .     A
C245   H281    1.083   .     S
C245   C247    1.380   .     A
C246   H282    1.084   .     S
C246   C248    1.379   .     A
C247   H249    1.084   .     S
C247   C251    1.389   .     A
C248   C252    1.395   .     A
C248   H250    1.084   .     S
C252   C29     1.444   1_565 S
C253   C255    1.421   .     A
C253   N283    1.439   .     S
C253   C265    1.427   .     A
C254   C266    1.423   .     A
C254   N286    1.438   .     S
C254   C256    1.425   .     A
C255   H257    1.081   .     S
C255   N259    1.365   .     A
C256   H258    1.081   .     S
C256   N260    1.369   .     A
N259   C261    1.379   .     A
N260   C262    1.388   .     A
C261   C263    1.408   .     A
C261   N289    1.431   .     S
C262   N292    1.440   .     S
C262   C264    1.408   .     A
C263   H295    1.083   .     S
C263   C265    1.396   .     A
C264   C266    1.389   .     A
C264   H296    1.082   .     S
C265   C710    1.521   1_554 S
C266   C709    1.521   .     S
H267   C311    1.084   .     S
H268   C386    1.088   1_455 S
N269   O271    1.301   .     A
O270   N47     1.301   1_565 S
N272   O273    1.301   .     A
N272   O52     1.301   1_565 S
N275   O276    1.301   .     A
N275   O277    1.301   .     A
N278   O279    1.301   .     A
N278   O280    1.301   .     A
N283   O285    1.302   .     A
N283   O728    1.301   1_554 S
O284   N727    1.301   .     S
N286   O287    1.301   .     A
N286   O288    1.301   .     A
N289   O291    1.300   .     A
N289   O290    1.302   .     A
N292   O293    1.294   .     A
N292   O294    1.303   .     A
O297   C301    1.303   .     A
O297   Zn309   2.003   .     S
O298   C302    1.286   .     A
O298   Zn310   2.003   .     S
O299   Zn310   1.969   .     S
O299   C301    1.291   .     A
O300   C302    1.291   .     A
O300   Zn309   1.969   .     S
C301   C317    1.466   .     S
C302   C318    1.432   .     S
O303   C307    1.283   .     A
O303   Zn309   1.978   .     S
O304   C308    1.285   .     A
O304   Zn310   1.978   .     S
O305   Zn310   1.974   .     S
O305   C307    1.279   .     A
O306   C308    1.277   .     A
O306   Zn309   1.974   .     S
C307   C311    1.398   .     S
C308   C312    1.398   .     S
Zn309  N334    2.017   .     S
Zn310  N333    2.017   .     S
C312   C385    1.321   .     S
C312   H416    1.088   .     S
C313   C325    1.405   .     A
C313   N343    1.438   .     S
C313   C315    1.399   .     A
C314   C326    1.410   .     A
C314   N346    1.436   .     S
C314   C316    1.401   .     A
C315   N349    1.423   .     S
C315   C317    1.410   .     A
C316   N352    1.439   .     S
C316   C318    1.408   .     A
C317   C319    1.408   .     A
C318   C320    1.395   .     A
C319   H355    1.083   .     S
C319   C321    1.380   .     A
C320   H356    1.084   .     S
C320   C322    1.379   .     A
C321   H323    1.084   .     S
C321   C325    1.389   .     A
C322   C326    1.395   .     A
C322   H324    1.084   .     S
C326   C103    1.444   1_565 S
C327   C329    1.421   .     A
C327   N357    1.439   .     S
C327   C339    1.427   .     A
C328   C340    1.423   .     A
C328   N360    1.438   .     S
C328   C330    1.425   .     A
C329   H331    1.081   .     S
C329   N333    1.365   .     A
C330   H332    1.081   .     S
C330   N334    1.369   .     A
N333   C335    1.379   .     A
N334   C336    1.388   .     A
C335   C337    1.408   .     A
C335   N363    1.431   .     S
C336   N366    1.440   .     S
C336   C338    1.408   .     A
C337   H369    1.083   .     S
C337   C339    1.396   .     A
C338   C340    1.389   .     A
C338   H370    1.082   .     S
C339   C784    1.521   1_554 S
C340   C783    1.521   .     S
H341   C385    1.084   .     S
N343   O345    1.301   .     A
O344   N121    1.301   1_565 S
N346   O347    1.301   .     A
N346   O126    1.301   1_565 S
N349   O350    1.301   .     A
N349   O351    1.301   .     A
N352   O353    1.301   .     A
N352   O354    1.301   .     A
N357   O359    1.302   .     A
N357   O802    1.301   1_554 S
O358   N801    1.301   .     S
N360   O361    1.301   .     A
N360   O362    1.301   .     A
N363   O365    1.300   .     A
N363   O364    1.302   .     A
N366   O367    1.294   .     A
N366   O368    1.303   .     A
O371   C375    1.303   .     A
O371   Zn383   2.003   .     S
O372   C376    1.286   .     A
O372   Zn384   2.003   .     S
O373   Zn384   1.969   .     S
O373   C375    1.291   .     A
O374   C376    1.291   .     A
O374   Zn383   1.969   .     S
C375   C391    1.466   .     S
C376   C392    1.432   .     S
O377   C381    1.283   .     A
O377   Zn383   1.978   .     S
O378   C382    1.285   .     A
O378   Zn384   1.978   .     S
O379   Zn384   1.974   .     S
O379   C381    1.279   .     A
O380   C382    1.277   .     A
O380   Zn383   1.974   .     S
C381   C385    1.398   .     S
C382   C386    1.398   .     S
Zn383  N408    2.017   .     S
Zn384  N407    2.017   .     S
C386   C237    1.321   1_655 S
C386   H268    1.088   1_655 S
C387   C399    1.405   .     A
C387   N417    1.438   .     S
C387   C389    1.399   .     A
C388   C400    1.410   .     A
C388   N420    1.436   .     S
C388   C390    1.401   .     A
C389   N423    1.423   .     S
C389   C391    1.410   .     A
C390   N426    1.439   .     S
C390   C392    1.408   .     A
C391   C393    1.408   .     A
C392   C394    1.395   .     A
C393   H429    1.083   .     S
C393   C395    1.380   .     A
C394   H430    1.084   .     S
C394   C396    1.379   .     A
C395   H397    1.084   .     S
C395   C399    1.389   .     A
C396   C400    1.395   .     A
C396   H398    1.084   .     S
C400   C177    1.444   1_565 S
C401   C403    1.421   .     A
C401   N431    1.439   .     S
C401   C413    1.427   .     A
C402   C414    1.423   .     A
C402   N434    1.438   .     S
C402   C404    1.425   .     A
C403   H405    1.081   .     S
C403   N407    1.365   .     A
C404   H406    1.081   .     S
C404   N408    1.369   .     A
N407   C409    1.379   .     A
N408   C410    1.388   .     A
C409   C411    1.408   .     A
C409   N437    1.431   .     S
C410   N440    1.440   .     S
C410   C412    1.408   .     A
C411   H443    1.083   .     S
C411   C413    1.396   .     A
C412   C414    1.389   .     A
C412   H444    1.082   .     S
C413   C858    1.521   1_554 S
C414   C857    1.521   .     S
H415   C237    1.084   1_655 S
N417   O419    1.301   .     A
O418   N195    1.301   1_565 S
N420   O421    1.301   .     A
N420   O200    1.301   1_565 S
N423   O424    1.301   .     A
N423   O425    1.301   .     A
N426   O427    1.301   .     A
N426   O428    1.301   .     A
N431   O433    1.302   .     A
N431   O876    1.301   1_554 S
O432   N875    1.301   .     S
N434   O435    1.301   .     A
N434   O436    1.301   .     A
N437   O439    1.300   .     A
N437   O438    1.302   .     A
N440   O441    1.294   .     A
N440   O442    1.303   .     A
O445   C449    1.303   .     A
O445   Zn457   2.003   .     S
O446   C450    1.286   .     A
O446   Zn458   2.003   .     S
O447   Zn458   1.969   .     S
O447   C449    1.291   .     A
O448   C450    1.291   .     A
O448   Zn457   1.969   .     S
C449   C465    1.466   .     S
C450   C466    1.432   .     S
O451   C455    1.283   .     A
O451   Zn457   1.978   .     S
O452   C456    1.285   .     A
O452   Zn458   1.978   .     S
O453   Zn458   1.974   .     S
O453   C455    1.279   .     A
O454   C456    1.277   .     A
O454   Zn457   1.974   .     S
C455   C459    1.398   .     S
C456   C460    1.398   .     S
Zn457  N482    2.017   .     S
Zn458  N481    2.017   .     S
C459   C608    1.321   1_455 S
C459   H637    1.084   1_455 S
C460   C533    1.321   .     S
C460   H564    1.088   .     S
C461   C473    1.405   .     A
C461   N491    1.438   .     S
C461   C463    1.399   .     A
C462   C474    1.410   .     A
C462   N494    1.436   .     S
C462   C464    1.401   .     A
C463   N497    1.423   .     S
C463   C465    1.410   .     A
C464   N500    1.439   .     S
C464   C466    1.408   .     A
C465   C467    1.408   .     A
C466   C468    1.395   .     A
C467   H503    1.083   .     S
C467   C469    1.380   .     A
C468   H504    1.084   .     S
C468   C470    1.379   .     A
C469   H471    1.084   .     S
C469   C473    1.389   .     A
C470   C474    1.395   .     A
C470   H472    1.084   .     S
C473   C696    1.444   1_545 S
C474   C695    1.444   .     S
C475   C477    1.421   .     A
C475   N505    1.439   .     S
C475   C487    1.427   .     A
C476   C488    1.423   .     A
C476   N508    1.438   .     S
C476   C478    1.425   .     A
C477   H479    1.081   .     S
C477   N481    1.365   .     A
C478   H480    1.081   .     S
C478   N482    1.369   .     A
N481   C483    1.379   .     A
N482   C484    1.388   .     A
C483   C485    1.408   .     A
C483   N511    1.431   .     S
C484   N514    1.440   .     S
C484   C486    1.408   .     A
C485   H517    1.083   .     S
C485   C487    1.396   .     A
C486   C488    1.389   .     A
C486   H518    1.082   .     S
C488   C43     1.521   1_556 S
H489   C533    1.084   .     S
H490   C608    1.088   1_455 S
N491   O493    1.301   .     A
N491   O714    1.301   1_545 S
O492   N713    1.301   .     S
N494   O495    1.301   .     A
N494   O718    1.301   .     S
O496   N716    1.301   1_545 S
N497   O498    1.301   .     A
N497   O499    1.301   .     A
N500   O501    1.301   .     A
N500   O502    1.301   .     A
N505   O507    1.302   .     A
O506   N61     1.301   1_556 S
N508   O509    1.301   .     A
N508   O510    1.301   .     A
N511   O513    1.300   .     A
N511   O512    1.302   .     A
N514   O515    1.294   .     A
N514   O516    1.303   .     A
O519   C523    1.303   .     A
O519   Zn531   2.003   .     S
O520   C524    1.286   .     A
O520   Zn532   2.003   .     S
O521   Zn532   1.969   .     S
O521   C523    1.291   .     A
O522   C524    1.291   .     A
O522   Zn531   1.969   .     S
C523   C539    1.466   .     S
C524   C540    1.432   .     S
O525   C529    1.283   .     A
O525   Zn531   1.978   .     S
O526   C530    1.285   .     A
O526   Zn532   1.978   .     S
O527   Zn532   1.974   .     S
O527   C529    1.279   .     A
O528   C530    1.277   .     A
O528   Zn531   1.974   .     S
C529   C533    1.398   .     S
C530   C534    1.398   .     S
Zn531  N556    2.017   .     S
Zn532  N555    2.017   .     S
C534   C607    1.321   .     S
C534   H638    1.088   .     S
C535   C547    1.405   .     A
C535   N565    1.438   .     S
C535   C537    1.399   .     A
C536   C548    1.410   .     A
C536   N568    1.436   .     S
C536   C538    1.401   .     A
C537   N571    1.423   .     S
C537   C539    1.410   .     A
C538   N574    1.439   .     S
C538   C540    1.408   .     A
C539   C541    1.408   .     A
C540   C542    1.395   .     A
C541   H577    1.083   .     S
C541   C543    1.380   .     A
C542   H578    1.084   .     S
C542   C544    1.379   .     A
C543   H545    1.084   .     S
C543   C547    1.389   .     A
C544   C548    1.395   .     A
C544   H546    1.084   .     S
C547   C770    1.444   1_545 S
C548   C769    1.444   .     S
C549   C551    1.421   .     A
C549   N579    1.439   .     S
C549   C561    1.427   .     A
C550   C562    1.423   .     A
C550   N582    1.438   .     S
C550   C552    1.425   .     A
C551   H553    1.081   .     S
C551   N555    1.365   .     A
C552   H554    1.081   .     S
C552   N556    1.369   .     A
N555   C557    1.379   .     A
N556   C558    1.388   .     A
C557   C559    1.408   .     A
C557   N585    1.431   .     S
C558   N588    1.440   .     S
C558   C560    1.408   .     A
C559   H591    1.083   .     S
C559   C561    1.396   .     A
C560   C562    1.389   .     A
C560   H592    1.082   .     S
C562   C117    1.521   1_556 S
H563   C607    1.084   .     S
N565   O567    1.301   .     A
N565   O788    1.301   1_545 S
O566   N787    1.301   .     S
N568   O569    1.301   .     A
N568   O792    1.301   .     S
O570   N790    1.301   1_545 S
N571   O572    1.301   .     A
N571   O573    1.301   .     A
N574   O575    1.301   .     A
N574   O576    1.301   .     A
N579   O581    1.302   .     A
O580   N135    1.301   1_556 S
N582   O583    1.301   .     A
N582   O584    1.301   .     A
N585   O587    1.300   .     A
N585   O586    1.302   .     A
N588   O589    1.294   .     A
N588   O590    1.303   .     A
O593   C597    1.303   .     A
O593   Zn605   2.003   .     S
O594   C598    1.286   .     A
O594   Zn606   2.003   .     S
O595   Zn606   1.969   .     S
O595   C597    1.291   .     A
O596   C598    1.291   .     A
O596   Zn605   1.969   .     S
C597   C613    1.466   .     S
C598   C614    1.432   .     S
O599   C603    1.283   .     A
O599   Zn605   1.978   .     S
O600   C604    1.285   .     A
O600   Zn606   1.978   .     S
O601   Zn606   1.974   .     S
O601   C603    1.279   .     A
O602   C604    1.277   .     A
O602   Zn605   1.974   .     S
C603   C607    1.398   .     S
C604   C608    1.398   .     S
Zn605  N630    2.017   .     S
Zn606  N629    2.017   .     S
C608   C459    1.321   1_655 S
C608   H490    1.088   1_655 S
C609   C621    1.405   .     A
C609   N639    1.438   .     S
C609   C611    1.399   .     A
C610   C622    1.410   .     A
C610   N642    1.436   .     S
C610   C612    1.401   .     A
C611   N645    1.423   .     S
C611   C613    1.410   .     A
C612   N648    1.439   .     S
C612   C614    1.408   .     A
C613   C615    1.408   .     A
C614   C616    1.395   .     A
C615   H651    1.083   .     S
C615   C617    1.380   .     A
C616   H652    1.084   .     S
C616   C618    1.379   .     A
C617   H619    1.084   .     S
C617   C621    1.389   .     A
C618   C622    1.395   .     A
C618   H620    1.084   .     S
C621   C844    1.444   1_545 S
C622   C843    1.444   .     S
C623   C625    1.421   .     A
C623   N653    1.439   .     S
C623   C635    1.427   .     A
C624   C636    1.423   .     A
C624   N656    1.438   .     S
C624   C626    1.425   .     A
C625   H627    1.081   .     S
C625   N629    1.365   .     A
C626   H628    1.081   .     S
C626   N630    1.369   .     A
N629   C631    1.379   .     A
N630   C632    1.388   .     A
C631   C633    1.408   .     A
C631   N659    1.431   .     S
C632   N662    1.440   .     S
C632   C634    1.408   .     A
C633   H665    1.083   .     S
C633   C635    1.396   .     A
C634   C636    1.389   .     A
C634   H666    1.082   .     S
C636   C191    1.521   1_556 S
H637   C459    1.084   1_655 S
N639   O641    1.301   .     A
N639   O862    1.301   1_545 S
O640   N861    1.301   .     S
N642   O643    1.301   .     A
N642   O866    1.301   .     S
O644   N864    1.301   1_545 S
N645   O646    1.301   .     A
N645   O647    1.301   .     A
N648   O649    1.301   .     A
N648   O650    1.301   .     A
N653   O655    1.302   .     A
O654   N209    1.301   1_556 S
N656   O657    1.301   .     A
N656   O658    1.301   .     A
N659   O661    1.300   .     A
N659   O660    1.302   .     A
N662   O663    1.294   .     A
N662   O664    1.303   .     A
O667   C671    1.303   .     A
O667   Zn679   2.003   .     S
O668   C672    1.286   .     A
O668   Zn680   2.003   .     S
O669   Zn680   1.969   .     S
O669   C671    1.291   .     A
O670   C672    1.291   .     A
O670   Zn679   1.969   .     S
C671   C687    1.466   .     S
C672   C688    1.432   .     S
O673   C677    1.283   .     A
O673   Zn679   1.978   .     S
O674   C678    1.285   .     A
O674   Zn680   1.978   .     S
O675   Zn680   1.974   .     S
O675   C677    1.279   .     A
O676   C678    1.277   .     A
O676   Zn679   1.974   .     S
C677   C681    1.398   .     S
C678   C682    1.398   .     S
Zn679  N704    2.017   .     S
Zn680  N703    2.017   .     S
C681   C830    1.321   1_455 S
C681   H859    1.084   1_455 S
C682   C755    1.321   .     S
C682   H786    1.088   .     S
C683   C695    1.405   .     A
C683   N713    1.438   .     S
C683   C685    1.399   .     A
C684   C696    1.410   .     A
C684   N716    1.436   .     S
C684   C686    1.401   .     A
C685   N719    1.423   .     S
C685   C687    1.410   .     A
C686   N722    1.439   .     S
C686   C688    1.408   .     A
C687   C689    1.408   .     A
C688   C690    1.395   .     A
C689   H725    1.083   .     S
C689   C691    1.380   .     A
C690   H726    1.084   .     S
C690   C692    1.379   .     A
C691   H693    1.084   .     S
C691   C695    1.389   .     A
C692   C696    1.395   .     A
C692   H694    1.084   .     S
C696   C473    1.444   1_565 S
C697   C699    1.421   .     A
C697   N727    1.439   .     S
C697   C709    1.427   .     A
C698   C710    1.423   .     A
C698   N730    1.438   .     S
C698   C700    1.425   .     A
C699   H701    1.081   .     S
C699   N703    1.365   .     A
C700   H702    1.081   .     S
C700   N704    1.369   .     A
N703   C705    1.379   .     A
N704   C706    1.388   .     A
C705   C707    1.408   .     A
C705   N733    1.431   .     S
C706   N736    1.440   .     S
C706   C708    1.408   .     A
C707   H739    1.083   .     S
C707   C709    1.396   .     A
C708   C710    1.389   .     A
C708   H740    1.082   .     S
C710   C265    1.521   1_556 S
H711   C755    1.084   .     S
H712   C830    1.088   1_455 S
N713   O715    1.301   .     A
O714   N491    1.301   1_565 S
N716   O717    1.301   .     A
N716   O496    1.301   1_565 S
N719   O720    1.301   .     A
N719   O721    1.301   .     A
N722   O723    1.301   .     A
N722   O724    1.301   .     A
N727   O729    1.302   .     A
O728   N283    1.301   1_556 S
N730   O731    1.301   .     A
N730   O732    1.301   .     A
N733   O735    1.300   .     A
N733   O734    1.302   .     A
N736   O737    1.294   .     A
N736   O738    1.303   .     A
O741   C745    1.303   .     A
O741   Zn753   2.003   .     S
O742   C746    1.286   .     A
O742   Zn754   2.003   .     S
O743   Zn754   1.969   .     S
O743   C745    1.291   .     A
O744   C746    1.291   .     A
O744   Zn753   1.969   .     S
C745   C761    1.466   .     S
C746   C762    1.432   .     S
O747   C751    1.283   .     A
O747   Zn753   1.978   .     S
O748   C752    1.285   .     A
O748   Zn754   1.978   .     S
O749   Zn754   1.974   .     S
O749   C751    1.279   .     A
O750   C752    1.277   .     A
O750   Zn753   1.974   .     S
C751   C755    1.398   .     S
C752   C756    1.398   .     S
Zn753  N778    2.017   .     S
Zn754  N777    2.017   .     S
C756   C829    1.321   .     S
C756   H860    1.088   .     S
C757   C769    1.405   .     A
C757   N787    1.438   .     S
C757   C759    1.399   .     A
C758   C770    1.410   .     A
C758   N790    1.436   .     S
C758   C760    1.401   .     A
C759   N793    1.423   .     S
C759   C761    1.410   .     A
C760   N796    1.439   .     S
C760   C762    1.408   .     A
C761   C763    1.408   .     A
C762   C764    1.395   .     A
C763   H799    1.083   .     S
C763   C765    1.380   .     A
C764   H800    1.084   .     S
C764   C766    1.379   .     A
C765   H767    1.084   .     S
C765   C769    1.389   .     A
C766   C770    1.395   .     A
C766   H768    1.084   .     S
C770   C547    1.444   1_565 S
C771   C773    1.421   .     A
C771   N801    1.439   .     S
C771   C783    1.427   .     A
C772   C784    1.423   .     A
C772   N804    1.438   .     S
C772   C774    1.425   .     A
C773   H775    1.081   .     S
C773   N777    1.365   .     A
C774   H776    1.081   .     S
C774   N778    1.369   .     A
N777   C779    1.379   .     A
N778   C780    1.388   .     A
C779   C781    1.408   .     A
C779   N807    1.431   .     S
C780   N810    1.440   .     S
C780   C782    1.408   .     A
C781   H813    1.083   .     S
C781   C783    1.396   .     A
C782   C784    1.389   .     A
C782   H814    1.082   .     S
C784   C339    1.521   1_556 S
H785   C829    1.084   .     S
N787   O789    1.301   .     A
O788   N565    1.301   1_565 S
N790   O791    1.301   .     A
N790   O570    1.301   1_565 S
N793   O794    1.301   .     A
N793   O795    1.301   .     A
N796   O797    1.301   .     A
N796   O798    1.301   .     A
N801   O803    1.302   .     A
O802   N357    1.301   1_556 S
N804   O805    1.301   .     A
N804   O806    1.301   .     A
N807   O809    1.300   .     A
N807   O808    1.302   .     A
N810   O811    1.294   .     A
N810   O812    1.303   .     A
O815   C819    1.303   .     A
O815   Zn827   2.003   .     S
O816   C820    1.286   .     A
O816   Zn828   2.003   .     S
O817   Zn828   1.969   .     S
O817   C819    1.291   .     A
O818   C820    1.291   .     A
O818   Zn827   1.969   .     S
C819   C835    1.466   .     S
C820   C836    1.432   .     S
O821   C825    1.283   .     A
O821   Zn827   1.978   .     S
O822   C826    1.285   .     A
O822   Zn828   1.978   .     S
O823   Zn828   1.974   .     S
O823   C825    1.279   .     A
O824   C826    1.277   .     A
O824   Zn827   1.974   .     S
C825   C829    1.398   .     S
C826   C830    1.398   .     S
Zn827  N852    2.017   .     S
Zn828  N851    2.017   .     S
C830   C681    1.321   1_655 S
C830   H712    1.088   1_655 S
C831   C843    1.405   .     A
C831   N861    1.438   .     S
C831   C833    1.399   .     A
C832   C844    1.410   .     A
C832   N864    1.436   .     S
C832   C834    1.401   .     A
C833   N867    1.423   .     S
C833   C835    1.410   .     A
C834   N870    1.439   .     S
C834   C836    1.408   .     A
C835   C837    1.408   .     A
C836   C838    1.395   .     A
C837   H873    1.083   .     S
C837   C839    1.380   .     A
C838   H874    1.084   .     S
C838   C840    1.379   .     A
C839   H841    1.084   .     S
C839   C843    1.389   .     A
C840   C844    1.395   .     A
C840   H842    1.084   .     S
C844   C621    1.444   1_565 S
C845   C847    1.421   .     A
C845   N875    1.439   .     S
C845   C857    1.427   .     A
C846   C858    1.423   .     A
C846   N878    1.438   .     S
C846   C848    1.425   .     A
C847   H849    1.081   .     S
C847   N851    1.365   .     A
C848   H850    1.081   .     S
C848   N852    1.369   .     A
N851   C853    1.379   .     A
N852   C854    1.388   .     A
C853   C855    1.408   .     A
C853   N881    1.431   .     S
C854   N884    1.440   .     S
C854   C856    1.408   .     A
C855   H887    1.083   .     S
C855   C857    1.396   .     A
C856   C858    1.389   .     A
C856   H888    1.082   .     S
C858   C413    1.521   1_556 S
H859   C681    1.084   1_655 S
N861   O863    1.301   .     A
O862   N639    1.301   1_565 S
N864   O865    1.301   .     A
N864   O644    1.301   1_565 S
N867   O868    1.301   .     A
N867   O869    1.301   .     A
N870   O871    1.301   .     A
N870   O872    1.301   .     A
N875   O877    1.302   .     A
O876   N431    1.301   1_556 S
N878   O879    1.301   .     A
N878   O880    1.301   .     A
N881   O883    1.300   .     A
N881   O882    1.302   .     A
N884   O885    1.294   .     A
N884   O886    1.303   .     A
