data_str_m3_o10_o17_pcu_sym.196
_audit_creation_date              2020-01-03
_audit_creation_method            'Materials Studio'
_symmetry_space_group_name_H-M    'P1'
_symmetry_Int_Tables_number       1
_symmetry_cell_setting            triclinic
loop_
_symmetry_equiv_pos_as_xyz
  x,y,z
_cell_length_a                    23.3097
_cell_length_b                    25.9961
_cell_length_c                    29.7775
_cell_angle_alpha                 91.4817
_cell_angle_beta                  85.8242
_cell_angle_gamma                 93.6556
loop_
_atom_site_label
_atom_site_type_symbol
_atom_site_fract_x
_atom_site_fract_y
_atom_site_fract_z
_atom_site_U_iso_or_equiv
_atom_site_adp_type
_atom_site_occupancy
O1     O     0.12975   0.24619   0.25299   0.00000  Uiso   1.00
O2     O     0.20358   0.08714   0.24702   0.00000  Uiso   1.00
O3     O     0.22613   0.23721   0.24519   0.00000  Uiso   1.00
O4     O     0.10720   0.09613   0.25482   0.00000  Uiso   1.00
C5     C     0.18169   0.26463   0.24819   0.00000  Uiso   1.00
C6     C     0.15164   0.06870   0.25182   0.00000  Uiso   1.00
O7     O     0.11847   0.17117   0.31998   0.00000  Uiso   1.00
O8     O     0.21486   0.16216   0.18003   0.00000  Uiso   1.00
O9     O     0.21485   0.16219   0.31218   0.00000  Uiso   1.00
O10    O     0.11848   0.17115   0.18783   0.00000  Uiso   1.00
C11    C     0.16742   0.16704   0.33631   0.00000  Uiso   1.00
C12    C     0.16591   0.16629   0.16369   0.00000  Uiso   1.00
Zn13   Zn    0.10231   0.17266   0.25521   0.00000  Uiso   1.00
Zn14   Zn    0.23102   0.16067   0.24479   0.00000  Uiso   1.00
C15    C     0.14570   0.12071   0.09349   0.00000  Uiso   1.00
C16    C     0.18765   0.21261   0.40650   0.00000  Uiso   1.00
C17    C     0.16444   0.16566   0.11618   0.00000  Uiso   1.00
C18    C     0.16890   0.16767   0.38381   0.00000  Uiso   1.00
C19    C     0.18278   0.21061   0.09401   0.00000  Uiso   1.00
C20    C     0.15056   0.12272   0.40599   0.00000  Uiso   1.00
C21    C     0.18368   0.21188   0.04745   0.00000  Uiso   1.00
C22    C     0.14969   0.12145   0.45254   0.00000  Uiso   1.00
C23    C     0.16589   0.16652   0.02348   0.00000  Uiso   1.00
C24    C     0.16749   0.16680   0.47652   0.00000  Uiso   1.00
C25    C     0.14674   0.12080   0.04652   0.00000  Uiso   1.00
C26    C     0.18664   0.21252   0.45347   0.00000  Uiso   1.00
C27    C     0.20204   0.25744   0.02459   0.00000  Uiso   1.00
C28    C     0.13136   0.07588   0.47541   0.00000  Uiso   1.00
C29    C     0.20300   0.25736   0.47775   0.00000  Uiso   1.00
C30    C     0.13040   0.07595   0.02225   0.00000  Uiso   1.00
H31    H     0.19628   0.24444   0.11358   0.00000  Uiso   1.00
H32    H     0.13706   0.08889   0.38642   0.00000  Uiso   1.00
H33    H     0.21652   0.29272   0.46053   0.00000  Uiso   1.00
H34    H     0.11689   0.04059   0.03947   0.00000  Uiso   1.00
C35    C     0.18980   0.31863   0.25039   0.00000  Uiso   1.00
C36    C     0.14354   0.01470   0.24963   0.00000  Uiso   1.00
N37    N     0.31678   0.15265   0.23783   0.00000  Uiso   1.00
N38    N     0.01656   0.18068   0.26217   0.00000  Uiso   1.00
H39    H     0.00461   0.12745   0.21623   0.00000  Uiso   1.00
H40    H     0.32873   0.20589   0.28377   0.00000  Uiso   1.00
N41    N     0.12682   0.07528   0.11825   0.00000  Uiso   1.00
O42    O     0.16270   0.05264   0.14148   0.00000  Uiso   1.00
O43    O     0.07312   0.05799   0.11928   0.00000  Uiso   1.00
N44    N     0.20651   0.25805   0.38175   0.00000  Uiso   1.00
O45    O     0.17060   0.28073   0.35858   0.00000  Uiso   1.00
O46    O     0.26023   0.27530   0.38065   0.00000  Uiso   1.00
N47    N     0.21945   0.30366   0.04900   0.00000  Uiso   1.00
H48    H     0.25942   0.29798   0.06127   0.00000  Uiso   1.00
H49    H     0.22595   0.00164   0.02747   0.00000  Uiso   1.00
N50    N     0.11395   0.02966   0.45099   0.00000  Uiso   1.00
H51    H     0.07391   0.03528   0.43882   0.00000  Uiso   1.00
H52    H     0.10760   0.33165   0.47250   0.00000  Uiso   1.00
N53    N     0.24734   0.00570   0.25723   0.00000  Uiso   1.00
O54    O     0.28591   0.00822   0.22341   0.00000  Uiso   1.00
O55    O     0.26134   0.02017   0.29735   0.00000  Uiso   1.00
N56    N     0.08599   0.32763   0.24279   0.00000  Uiso   1.00
O57    O     0.04743   0.32510   0.27662   0.00000  Uiso   1.00
O58    O     0.07198   0.31319   0.20267   0.00000  Uiso   1.00
O59    O     0.46308   0.24619   0.25299   0.00000  Uiso   1.00
O60    O     0.53692   0.08714   0.24702   0.00000  Uiso   1.00
O61    O     0.55946   0.23721   0.24519   0.00000  Uiso   1.00
O62    O     0.44054   0.09613   0.25482   0.00000  Uiso   1.00
C63    C     0.51503   0.26463   0.24819   0.00000  Uiso   1.00
C64    C     0.48497   0.06870   0.25182   0.00000  Uiso   1.00
O65    O     0.45181   0.17117   0.31998   0.00000  Uiso   1.00
O66    O     0.54819   0.16216   0.18003   0.00000  Uiso   1.00
O67    O     0.54819   0.16219   0.31218   0.00000  Uiso   1.00
O68    O     0.45181   0.17115   0.18783   0.00000  Uiso   1.00
C69    C     0.50075   0.16704   0.33631   0.00000  Uiso   1.00
C70    C     0.49925   0.16629   0.16369   0.00000  Uiso   1.00
Zn71   Zn    0.43565   0.17266   0.25521   0.00000  Uiso   1.00
Zn72   Zn    0.56435   0.16067   0.24479   0.00000  Uiso   1.00
C73    C     0.47903   0.12071   0.09349   0.00000  Uiso   1.00
C74    C     0.52099   0.21261   0.40650   0.00000  Uiso   1.00
C75    C     0.49778   0.16566   0.11618   0.00000  Uiso   1.00
C76    C     0.50223   0.16767   0.38381   0.00000  Uiso   1.00
C77    C     0.51612   0.21061   0.09401   0.00000  Uiso   1.00
C78    C     0.48390   0.12272   0.40599   0.00000  Uiso   1.00
C79    C     0.51702   0.21188   0.04745   0.00000  Uiso   1.00
C80    C     0.48302   0.12145   0.45254   0.00000  Uiso   1.00
C81    C     0.49922   0.16652   0.02348   0.00000  Uiso   1.00
C82    C     0.50082   0.16680   0.47652   0.00000  Uiso   1.00
C83    C     0.48007   0.12080   0.04652   0.00000  Uiso   1.00
C84    C     0.51997   0.21252   0.45347   0.00000  Uiso   1.00
C85    C     0.53537   0.25744   0.02459   0.00000  Uiso   1.00
C86    C     0.46469   0.07588   0.47541   0.00000  Uiso   1.00
C87    C     0.53633   0.25736   0.47775   0.00000  Uiso   1.00
C88    C     0.46373   0.07595   0.02225   0.00000  Uiso   1.00
H89    H     0.52961   0.24444   0.11358   0.00000  Uiso   1.00
H90    H     0.47039   0.08889   0.38642   0.00000  Uiso   1.00
H91    H     0.54985   0.29272   0.46053   0.00000  Uiso   1.00
H92    H     0.45022   0.04059   0.03947   0.00000  Uiso   1.00
C93    C     0.52313   0.31863   0.25039   0.00000  Uiso   1.00
C94    C     0.47687   0.01470   0.24963   0.00000  Uiso   1.00
N95    N     0.65011   0.15265   0.23783   0.00000  Uiso   1.00
N96    N     0.34989   0.18068   0.26217   0.00000  Uiso   1.00
H97    H     0.33794   0.12745   0.21623   0.00000  Uiso   1.00
H98    H     0.66206   0.20589   0.28377   0.00000  Uiso   1.00
N99    N     0.46016   0.07528   0.11825   0.00000  Uiso   1.00
O100   O     0.49603   0.05264   0.14148   0.00000  Uiso   1.00
O101   O     0.40645   0.05799   0.11928   0.00000  Uiso   1.00
N102   N     0.53985   0.25805   0.38175   0.00000  Uiso   1.00
O103   O     0.50393   0.28073   0.35858   0.00000  Uiso   1.00
O104   O     0.59356   0.27530   0.38065   0.00000  Uiso   1.00
N105   N     0.55278   0.30366   0.04900   0.00000  Uiso   1.00
H106   H     0.59275   0.29798   0.06127   0.00000  Uiso   1.00
H107   H     0.55929   0.00164   0.02747   0.00000  Uiso   1.00
N108   N     0.44729   0.02966   0.45099   0.00000  Uiso   1.00
H109   H     0.40725   0.03528   0.43882   0.00000  Uiso   1.00
H110   H     0.44094   0.33165   0.47250   0.00000  Uiso   1.00
N111   N     0.58067   0.00570   0.25723   0.00000  Uiso   1.00
O112   O     0.61924   0.00822   0.22341   0.00000  Uiso   1.00
O113   O     0.59467   0.02017   0.29735   0.00000  Uiso   1.00
N114   N     0.41933   0.32763   0.24279   0.00000  Uiso   1.00
O115   O     0.38076   0.32510   0.27662   0.00000  Uiso   1.00
O116   O     0.40531   0.31319   0.20267   0.00000  Uiso   1.00
O117   O     0.79642   0.24619   0.25299   0.00000  Uiso   1.00
O118   O     0.87025   0.08714   0.24702   0.00000  Uiso   1.00
O119   O     0.89280   0.23721   0.24519   0.00000  Uiso   1.00
O120   O     0.77387   0.09613   0.25482   0.00000  Uiso   1.00
C121   C     0.84836   0.26463   0.24819   0.00000  Uiso   1.00
C122   C     0.81831   0.06870   0.25182   0.00000  Uiso   1.00
O123   O     0.78514   0.17117   0.31998   0.00000  Uiso   1.00
O124   O     0.88153   0.16216   0.18003   0.00000  Uiso   1.00
O125   O     0.88152   0.16219   0.31218   0.00000  Uiso   1.00
O126   O     0.78515   0.17115   0.18783   0.00000  Uiso   1.00
C127   C     0.83409   0.16704   0.33631   0.00000  Uiso   1.00
C128   C     0.83258   0.16629   0.16369   0.00000  Uiso   1.00
Zn129  Zn    0.76898   0.17266   0.25521   0.00000  Uiso   1.00
Zn130  Zn    0.89769   0.16067   0.24479   0.00000  Uiso   1.00
C131   C     0.81237   0.12071   0.09349   0.00000  Uiso   1.00
C132   C     0.85432   0.21261   0.40650   0.00000  Uiso   1.00
C133   C     0.83111   0.16566   0.11618   0.00000  Uiso   1.00
C134   C     0.83556   0.16767   0.38381   0.00000  Uiso   1.00
C135   C     0.84945   0.21061   0.09401   0.00000  Uiso   1.00
C136   C     0.81723   0.12272   0.40599   0.00000  Uiso   1.00
C137   C     0.85035   0.21188   0.04745   0.00000  Uiso   1.00
C138   C     0.81635   0.12145   0.45254   0.00000  Uiso   1.00
C139   C     0.83256   0.16652   0.02348   0.00000  Uiso   1.00
C140   C     0.83415   0.16680   0.47652   0.00000  Uiso   1.00
C141   C     0.81340   0.12080   0.04652   0.00000  Uiso   1.00
C142   C     0.85330   0.21252   0.45347   0.00000  Uiso   1.00
C143   C     0.86870   0.25744   0.02459   0.00000  Uiso   1.00
C144   C     0.79802   0.07588   0.47541   0.00000  Uiso   1.00
C145   C     0.86967   0.25736   0.47775   0.00000  Uiso   1.00
C146   C     0.79706   0.07595   0.02225   0.00000  Uiso   1.00
H147   H     0.86295   0.24444   0.11358   0.00000  Uiso   1.00
H148   H     0.80373   0.08889   0.38642   0.00000  Uiso   1.00
H149   H     0.88319   0.29272   0.46053   0.00000  Uiso   1.00
H150   H     0.78355   0.04059   0.03947   0.00000  Uiso   1.00
C151   C     0.85646   0.31863   0.25039   0.00000  Uiso   1.00
C152   C     0.81020   0.01470   0.24963   0.00000  Uiso   1.00
N153   N     0.98344   0.15265   0.23783   0.00000  Uiso   1.00
N154   N     0.68322   0.18068   0.26217   0.00000  Uiso   1.00
H155   H     0.67127   0.12745   0.21623   0.00000  Uiso   1.00
H156   H     0.99540   0.20589   0.28377   0.00000  Uiso   1.00
N157   N     0.79349   0.07528   0.11825   0.00000  Uiso   1.00
O158   O     0.82937   0.05264   0.14148   0.00000  Uiso   1.00
O159   O     0.73978   0.05799   0.11928   0.00000  Uiso   1.00
N160   N     0.87318   0.25805   0.38175   0.00000  Uiso   1.00
O161   O     0.83727   0.28073   0.35858   0.00000  Uiso   1.00
O162   O     0.92690   0.27530   0.38065   0.00000  Uiso   1.00
N163   N     0.88611   0.30366   0.04900   0.00000  Uiso   1.00
H164   H     0.92608   0.29798   0.06127   0.00000  Uiso   1.00
H165   H     0.89262   0.00164   0.02747   0.00000  Uiso   1.00
N166   N     0.78062   0.02966   0.45099   0.00000  Uiso   1.00
H167   H     0.74058   0.03528   0.43882   0.00000  Uiso   1.00
H168   H     0.77427   0.33165   0.47250   0.00000  Uiso   1.00
N169   N     0.91400   0.00570   0.25723   0.00000  Uiso   1.00
O170   O     0.95258   0.00822   0.22341   0.00000  Uiso   1.00
O171   O     0.92801   0.02017   0.29735   0.00000  Uiso   1.00
N172   N     0.75266   0.32763   0.24279   0.00000  Uiso   1.00
O173   O     0.71410   0.32510   0.27662   0.00000  Uiso   1.00
O174   O     0.73864   0.31319   0.20267   0.00000  Uiso   1.00
O175   O     0.12975   0.57952   0.25299   0.00000  Uiso   1.00
O176   O     0.20358   0.42048   0.24702   0.00000  Uiso   1.00
O177   O     0.22613   0.57054   0.24519   0.00000  Uiso   1.00
O178   O     0.10720   0.42946   0.25482   0.00000  Uiso   1.00
C179   C     0.18169   0.59797   0.24819   0.00000  Uiso   1.00
C180   C     0.15164   0.40203   0.25182   0.00000  Uiso   1.00
O181   O     0.11847   0.50450   0.31998   0.00000  Uiso   1.00
O182   O     0.21486   0.49550   0.18003   0.00000  Uiso   1.00
O183   O     0.21485   0.49552   0.31218   0.00000  Uiso   1.00
O184   O     0.11848   0.50448   0.18783   0.00000  Uiso   1.00
C185   C     0.16742   0.50037   0.33631   0.00000  Uiso   1.00
C186   C     0.16591   0.49963   0.16369   0.00000  Uiso   1.00
Zn187  Zn    0.10231   0.50600   0.25521   0.00000  Uiso   1.00
Zn188  Zn    0.23102   0.49400   0.24479   0.00000  Uiso   1.00
C189   C     0.14570   0.45405   0.09349   0.00000  Uiso   1.00
C190   C     0.18765   0.54595   0.40650   0.00000  Uiso   1.00
C191   C     0.16444   0.49899   0.11618   0.00000  Uiso   1.00
C192   C     0.16890   0.50100   0.38381   0.00000  Uiso   1.00
C193   C     0.18278   0.54394   0.09401   0.00000  Uiso   1.00
C194   C     0.15056   0.45605   0.40599   0.00000  Uiso   1.00
C195   C     0.18368   0.54521   0.04745   0.00000  Uiso   1.00
C196   C     0.14969   0.45478   0.45254   0.00000  Uiso   1.00
C197   C     0.16589   0.49985   0.02348   0.00000  Uiso   1.00
C198   C     0.16749   0.50014   0.47652   0.00000  Uiso   1.00
C199   C     0.14674   0.45413   0.04652   0.00000  Uiso   1.00
C200   C     0.18664   0.54586   0.45347   0.00000  Uiso   1.00
C201   C     0.20204   0.59077   0.02459   0.00000  Uiso   1.00
C202   C     0.13136   0.40921   0.47541   0.00000  Uiso   1.00
C203   C     0.20300   0.59070   0.47775   0.00000  Uiso   1.00
C204   C     0.13040   0.40928   0.02225   0.00000  Uiso   1.00
H205   H     0.19628   0.57777   0.11358   0.00000  Uiso   1.00
H206   H     0.13706   0.42222   0.38642   0.00000  Uiso   1.00
H207   H     0.21652   0.62605   0.46053   0.00000  Uiso   1.00
H208   H     0.11689   0.37392   0.03947   0.00000  Uiso   1.00
C209   C     0.18980   0.65197   0.25039   0.00000  Uiso   1.00
C210   C     0.14354   0.34803   0.24963   0.00000  Uiso   1.00
N211   N     0.31678   0.48598   0.23783   0.00000  Uiso   1.00
N212   N     0.01656   0.51402   0.26217   0.00000  Uiso   1.00
H213   H     0.00461   0.46078   0.21623   0.00000  Uiso   1.00
H214   H     0.32873   0.53922   0.28377   0.00000  Uiso   1.00
N215   N     0.12682   0.40861   0.11825   0.00000  Uiso   1.00
O216   O     0.16270   0.38597   0.14148   0.00000  Uiso   1.00
O217   O     0.07312   0.39132   0.11928   0.00000  Uiso   1.00
N218   N     0.20651   0.59138   0.38175   0.00000  Uiso   1.00
O219   O     0.17060   0.61407   0.35858   0.00000  Uiso   1.00
O220   O     0.26023   0.60863   0.38065   0.00000  Uiso   1.00
N221   N     0.21945   0.63699   0.04900   0.00000  Uiso   1.00
H222   H     0.25942   0.63131   0.06127   0.00000  Uiso   1.00
H223   H     0.22595   0.33497   0.02747   0.00000  Uiso   1.00
N224   N     0.11395   0.36299   0.45099   0.00000  Uiso   1.00
H225   H     0.07391   0.36861   0.43882   0.00000  Uiso   1.00
H226   H     0.10760   0.66499   0.47250   0.00000  Uiso   1.00
N227   N     0.24734   0.33903   0.25723   0.00000  Uiso   1.00
O228   O     0.28591   0.34156   0.22341   0.00000  Uiso   1.00
O229   O     0.26134   0.35350   0.29735   0.00000  Uiso   1.00
N230   N     0.08599   0.66097   0.24279   0.00000  Uiso   1.00
O231   O     0.04743   0.65843   0.27662   0.00000  Uiso   1.00
O232   O     0.07198   0.64652   0.20267   0.00000  Uiso   1.00
O233   O     0.46308   0.57952   0.25299   0.00000  Uiso   1.00
O234   O     0.53692   0.42048   0.24702   0.00000  Uiso   1.00
O235   O     0.55946   0.57054   0.24519   0.00000  Uiso   1.00
O236   O     0.44054   0.42946   0.25482   0.00000  Uiso   1.00
C237   C     0.51503   0.59797   0.24819   0.00000  Uiso   1.00
C238   C     0.48497   0.40203   0.25182   0.00000  Uiso   1.00
O239   O     0.45181   0.50450   0.31998   0.00000  Uiso   1.00
O240   O     0.54819   0.49550   0.18003   0.00000  Uiso   1.00
O241   O     0.54819   0.49552   0.31218   0.00000  Uiso   1.00
O242   O     0.45181   0.50448   0.18783   0.00000  Uiso   1.00
C243   C     0.50075   0.50037   0.33631   0.00000  Uiso   1.00
C244   C     0.49925   0.49963   0.16369   0.00000  Uiso   1.00
Zn245  Zn    0.43565   0.50600   0.25521   0.00000  Uiso   1.00
Zn246  Zn    0.56435   0.49400   0.24479   0.00000  Uiso   1.00
C247   C     0.47903   0.45405   0.09349   0.00000  Uiso   1.00
C248   C     0.52099   0.54595   0.40650   0.00000  Uiso   1.00
C249   C     0.49778   0.49899   0.11618   0.00000  Uiso   1.00
C250   C     0.50223   0.50100   0.38381   0.00000  Uiso   1.00
C251   C     0.51612   0.54394   0.09401   0.00000  Uiso   1.00
C252   C     0.48390   0.45605   0.40599   0.00000  Uiso   1.00
C253   C     0.51702   0.54521   0.04745   0.00000  Uiso   1.00
C254   C     0.48302   0.45478   0.45254   0.00000  Uiso   1.00
C255   C     0.49922   0.49985   0.02348   0.00000  Uiso   1.00
C256   C     0.50082   0.50014   0.47652   0.00000  Uiso   1.00
C257   C     0.48007   0.45413   0.04652   0.00000  Uiso   1.00
C258   C     0.51997   0.54586   0.45347   0.00000  Uiso   1.00
C259   C     0.53537   0.59077   0.02459   0.00000  Uiso   1.00
C260   C     0.46469   0.40921   0.47541   0.00000  Uiso   1.00
C261   C     0.53633   0.59070   0.47775   0.00000  Uiso   1.00
C262   C     0.46373   0.40928   0.02225   0.00000  Uiso   1.00
H263   H     0.52961   0.57777   0.11358   0.00000  Uiso   1.00
H264   H     0.47039   0.42222   0.38642   0.00000  Uiso   1.00
H265   H     0.54985   0.62605   0.46053   0.00000  Uiso   1.00
H266   H     0.45022   0.37392   0.03947   0.00000  Uiso   1.00
C267   C     0.52313   0.65197   0.25039   0.00000  Uiso   1.00
C268   C     0.47687   0.34803   0.24963   0.00000  Uiso   1.00
N269   N     0.65011   0.48598   0.23783   0.00000  Uiso   1.00
N270   N     0.34989   0.51402   0.26217   0.00000  Uiso   1.00
H271   H     0.33794   0.46078   0.21623   0.00000  Uiso   1.00
H272   H     0.66206   0.53922   0.28377   0.00000  Uiso   1.00
N273   N     0.46016   0.40861   0.11825   0.00000  Uiso   1.00
O274   O     0.49603   0.38597   0.14148   0.00000  Uiso   1.00
O275   O     0.40645   0.39132   0.11928   0.00000  Uiso   1.00
N276   N     0.53985   0.59138   0.38175   0.00000  Uiso   1.00
O277   O     0.50393   0.61407   0.35858   0.00000  Uiso   1.00
O278   O     0.59356   0.60863   0.38065   0.00000  Uiso   1.00
N279   N     0.55278   0.63699   0.04900   0.00000  Uiso   1.00
H280   H     0.59275   0.63131   0.06127   0.00000  Uiso   1.00
H281   H     0.55929   0.33497   0.02747   0.00000  Uiso   1.00
N282   N     0.44729   0.36299   0.45099   0.00000  Uiso   1.00
H283   H     0.40725   0.36861   0.43882   0.00000  Uiso   1.00
H284   H     0.44094   0.66499   0.47250   0.00000  Uiso   1.00
N285   N     0.58067   0.33903   0.25723   0.00000  Uiso   1.00
O286   O     0.61924   0.34156   0.22341   0.00000  Uiso   1.00
O287   O     0.59467   0.35350   0.29735   0.00000  Uiso   1.00
N288   N     0.41933   0.66097   0.24279   0.00000  Uiso   1.00
O289   O     0.38076   0.65843   0.27662   0.00000  Uiso   1.00
O290   O     0.40531   0.64652   0.20267   0.00000  Uiso   1.00
O291   O     0.79642   0.57952   0.25299   0.00000  Uiso   1.00
O292   O     0.87025   0.42048   0.24702   0.00000  Uiso   1.00
O293   O     0.89280   0.57054   0.24519   0.00000  Uiso   1.00
O294   O     0.77387   0.42946   0.25482   0.00000  Uiso   1.00
C295   C     0.84836   0.59797   0.24819   0.00000  Uiso   1.00
C296   C     0.81831   0.40203   0.25182   0.00000  Uiso   1.00
O297   O     0.78514   0.50450   0.31998   0.00000  Uiso   1.00
O298   O     0.88153   0.49550   0.18003   0.00000  Uiso   1.00
O299   O     0.88152   0.49552   0.31218   0.00000  Uiso   1.00
O300   O     0.78515   0.50448   0.18783   0.00000  Uiso   1.00
C301   C     0.83409   0.50037   0.33631   0.00000  Uiso   1.00
C302   C     0.83258   0.49963   0.16369   0.00000  Uiso   1.00
Zn303  Zn    0.76898   0.50600   0.25521   0.00000  Uiso   1.00
Zn304  Zn    0.89769   0.49400   0.24479   0.00000  Uiso   1.00
C305   C     0.81237   0.45405   0.09349   0.00000  Uiso   1.00
C306   C     0.85432   0.54595   0.40650   0.00000  Uiso   1.00
C307   C     0.83111   0.49899   0.11618   0.00000  Uiso   1.00
C308   C     0.83556   0.50100   0.38381   0.00000  Uiso   1.00
C309   C     0.84945   0.54394   0.09401   0.00000  Uiso   1.00
C310   C     0.81723   0.45605   0.40599   0.00000  Uiso   1.00
C311   C     0.85035   0.54521   0.04745   0.00000  Uiso   1.00
C312   C     0.81635   0.45478   0.45254   0.00000  Uiso   1.00
C313   C     0.83256   0.49985   0.02348   0.00000  Uiso   1.00
C314   C     0.83415   0.50014   0.47652   0.00000  Uiso   1.00
C315   C     0.81340   0.45413   0.04652   0.00000  Uiso   1.00
C316   C     0.85330   0.54586   0.45347   0.00000  Uiso   1.00
C317   C     0.86870   0.59077   0.02459   0.00000  Uiso   1.00
C318   C     0.79802   0.40921   0.47541   0.00000  Uiso   1.00
C319   C     0.86967   0.59070   0.47775   0.00000  Uiso   1.00
C320   C     0.79706   0.40928   0.02225   0.00000  Uiso   1.00
H321   H     0.86295   0.57777   0.11358   0.00000  Uiso   1.00
H322   H     0.80373   0.42222   0.38642   0.00000  Uiso   1.00
H323   H     0.88319   0.62605   0.46053   0.00000  Uiso   1.00
H324   H     0.78355   0.37392   0.03947   0.00000  Uiso   1.00
C325   C     0.85646   0.65197   0.25039   0.00000  Uiso   1.00
C326   C     0.81020   0.34803   0.24963   0.00000  Uiso   1.00
N327   N     0.98344   0.48598   0.23783   0.00000  Uiso   1.00
N328   N     0.68322   0.51402   0.26217   0.00000  Uiso   1.00
H329   H     0.67127   0.46078   0.21623   0.00000  Uiso   1.00
H330   H     0.99540   0.53922   0.28377   0.00000  Uiso   1.00
N331   N     0.79349   0.40861   0.11825   0.00000  Uiso   1.00
O332   O     0.82937   0.38597   0.14148   0.00000  Uiso   1.00
O333   O     0.73978   0.39132   0.11928   0.00000  Uiso   1.00
N334   N     0.87318   0.59138   0.38175   0.00000  Uiso   1.00
O335   O     0.83727   0.61407   0.35858   0.00000  Uiso   1.00
O336   O     0.92690   0.60863   0.38065   0.00000  Uiso   1.00
N337   N     0.88611   0.63699   0.04900   0.00000  Uiso   1.00
H338   H     0.92608   0.63131   0.06127   0.00000  Uiso   1.00
H339   H     0.89262   0.33497   0.02747   0.00000  Uiso   1.00
N340   N     0.78062   0.36299   0.45099   0.00000  Uiso   1.00
H341   H     0.74058   0.36861   0.43882   0.00000  Uiso   1.00
H342   H     0.77427   0.66499   0.47250   0.00000  Uiso   1.00
N343   N     0.91400   0.33903   0.25723   0.00000  Uiso   1.00
O344   O     0.95258   0.34156   0.22341   0.00000  Uiso   1.00
O345   O     0.92801   0.35350   0.29735   0.00000  Uiso   1.00
N346   N     0.75266   0.66097   0.24279   0.00000  Uiso   1.00
O347   O     0.71410   0.65843   0.27662   0.00000  Uiso   1.00
O348   O     0.73864   0.64652   0.20267   0.00000  Uiso   1.00
O349   O     0.12975   0.91286   0.25299   0.00000  Uiso   1.00
O350   O     0.20358   0.75381   0.24702   0.00000  Uiso   1.00
O351   O     0.22613   0.90387   0.24519   0.00000  Uiso   1.00
O352   O     0.10720   0.76279   0.25482   0.00000  Uiso   1.00
C353   C     0.18169   0.93130   0.24819   0.00000  Uiso   1.00
C354   C     0.15164   0.73537   0.25182   0.00000  Uiso   1.00
O355   O     0.11847   0.83784   0.31998   0.00000  Uiso   1.00
O356   O     0.21486   0.82883   0.18003   0.00000  Uiso   1.00
O357   O     0.21485   0.82885   0.31218   0.00000  Uiso   1.00
O358   O     0.11848   0.83781   0.18783   0.00000  Uiso   1.00
C359   C     0.16742   0.83371   0.33631   0.00000  Uiso   1.00
C360   C     0.16591   0.83296   0.16369   0.00000  Uiso   1.00
Zn361  Zn    0.10231   0.83933   0.25521   0.00000  Uiso   1.00
Zn362  Zn    0.23102   0.82734   0.24479   0.00000  Uiso   1.00
C363   C     0.14570   0.78738   0.09349   0.00000  Uiso   1.00
C364   C     0.18765   0.87928   0.40650   0.00000  Uiso   1.00
C365   C     0.16444   0.83233   0.11618   0.00000  Uiso   1.00
C366   C     0.16890   0.83434   0.38381   0.00000  Uiso   1.00
C367   C     0.18278   0.87728   0.09401   0.00000  Uiso   1.00
C368   C     0.15056   0.78938   0.40599   0.00000  Uiso   1.00
C369   C     0.18368   0.87854   0.04745   0.00000  Uiso   1.00
C370   C     0.14969   0.78811   0.45254   0.00000  Uiso   1.00
C371   C     0.16589   0.83318   0.02348   0.00000  Uiso   1.00
C372   C     0.16749   0.83347   0.47652   0.00000  Uiso   1.00
C373   C     0.14674   0.78746   0.04652   0.00000  Uiso   1.00
C374   C     0.18664   0.87919   0.45347   0.00000  Uiso   1.00
C375   C     0.20204   0.92410   0.02459   0.00000  Uiso   1.00
C376   C     0.13136   0.74255   0.47541   0.00000  Uiso   1.00
C377   C     0.20300   0.92403   0.47775   0.00000  Uiso   1.00
C378   C     0.13040   0.74262   0.02225   0.00000  Uiso   1.00
H379   H     0.19628   0.91110   0.11358   0.00000  Uiso   1.00
H380   H     0.13706   0.75556   0.38642   0.00000  Uiso   1.00
H381   H     0.21652   0.95939   0.46053   0.00000  Uiso   1.00
H382   H     0.11689   0.70726   0.03947   0.00000  Uiso   1.00
C383   C     0.18980   0.98530   0.25039   0.00000  Uiso   1.00
C384   C     0.14354   0.68137   0.24963   0.00000  Uiso   1.00
N385   N     0.31678   0.81932   0.23783   0.00000  Uiso   1.00
N386   N     0.01656   0.84735   0.26217   0.00000  Uiso   1.00
H387   H     0.00461   0.79411   0.21623   0.00000  Uiso   1.00
H388   H     0.32873   0.87255   0.28377   0.00000  Uiso   1.00
N389   N     0.12682   0.74194   0.11825   0.00000  Uiso   1.00
O390   O     0.16270   0.71930   0.14148   0.00000  Uiso   1.00
O391   O     0.07312   0.72466   0.11928   0.00000  Uiso   1.00
N392   N     0.20651   0.92472   0.38175   0.00000  Uiso   1.00
O393   O     0.17060   0.94740   0.35858   0.00000  Uiso   1.00
O394   O     0.26023   0.94196   0.38065   0.00000  Uiso   1.00
N395   N     0.21945   0.97032   0.04900   0.00000  Uiso   1.00
H396   H     0.25942   0.96465   0.06127   0.00000  Uiso   1.00
H397   H     0.22595   0.66830   0.02747   0.00000  Uiso   1.00
N398   N     0.11395   0.69633   0.45099   0.00000  Uiso   1.00
H399   H     0.07391   0.70195   0.43882   0.00000  Uiso   1.00
H400   H     0.10760   0.99832   0.47250   0.00000  Uiso   1.00
N401   N     0.24734   0.67237   0.25723   0.00000  Uiso   1.00
O402   O     0.28591   0.67489   0.22341   0.00000  Uiso   1.00
O403   O     0.26134   0.68683   0.29735   0.00000  Uiso   1.00
N404   N     0.08599   0.99430   0.24279   0.00000  Uiso   1.00
O405   O     0.04743   0.99177   0.27662   0.00000  Uiso   1.00
O406   O     0.07198   0.97985   0.20267   0.00000  Uiso   1.00
O407   O     0.46308   0.91286   0.25299   0.00000  Uiso   1.00
O408   O     0.53692   0.75381   0.24702   0.00000  Uiso   1.00
O409   O     0.55946   0.90387   0.24519   0.00000  Uiso   1.00
O410   O     0.44054   0.76279   0.25482   0.00000  Uiso   1.00
C411   C     0.51503   0.93130   0.24819   0.00000  Uiso   1.00
C412   C     0.48497   0.73537   0.25182   0.00000  Uiso   1.00
O413   O     0.45181   0.83784   0.31998   0.00000  Uiso   1.00
O414   O     0.54819   0.82883   0.18003   0.00000  Uiso   1.00
O415   O     0.54819   0.82885   0.31218   0.00000  Uiso   1.00
O416   O     0.45181   0.83781   0.18783   0.00000  Uiso   1.00
C417   C     0.50075   0.83371   0.33631   0.00000  Uiso   1.00
C418   C     0.49925   0.83296   0.16369   0.00000  Uiso   1.00
Zn419  Zn    0.43565   0.83933   0.25521   0.00000  Uiso   1.00
Zn420  Zn    0.56435   0.82734   0.24479   0.00000  Uiso   1.00
C421   C     0.47903   0.78738   0.09349   0.00000  Uiso   1.00
C422   C     0.52099   0.87928   0.40650   0.00000  Uiso   1.00
C423   C     0.49778   0.83233   0.11618   0.00000  Uiso   1.00
C424   C     0.50223   0.83434   0.38381   0.00000  Uiso   1.00
C425   C     0.51612   0.87728   0.09401   0.00000  Uiso   1.00
C426   C     0.48390   0.78938   0.40599   0.00000  Uiso   1.00
C427   C     0.51702   0.87854   0.04745   0.00000  Uiso   1.00
C428   C     0.48302   0.78811   0.45254   0.00000  Uiso   1.00
C429   C     0.49922   0.83318   0.02348   0.00000  Uiso   1.00
C430   C     0.50082   0.83347   0.47652   0.00000  Uiso   1.00
C431   C     0.48007   0.78746   0.04652   0.00000  Uiso   1.00
C432   C     0.51997   0.87919   0.45347   0.00000  Uiso   1.00
C433   C     0.53537   0.92410   0.02459   0.00000  Uiso   1.00
C434   C     0.46469   0.74255   0.47541   0.00000  Uiso   1.00
C435   C     0.53633   0.92403   0.47775   0.00000  Uiso   1.00
C436   C     0.46373   0.74262   0.02225   0.00000  Uiso   1.00
H437   H     0.52961   0.91110   0.11358   0.00000  Uiso   1.00
H438   H     0.47039   0.75556   0.38642   0.00000  Uiso   1.00
H439   H     0.54985   0.95939   0.46053   0.00000  Uiso   1.00
H440   H     0.45022   0.70726   0.03947   0.00000  Uiso   1.00
C441   C     0.52313   0.98530   0.25039   0.00000  Uiso   1.00
C442   C     0.47687   0.68137   0.24963   0.00000  Uiso   1.00
N443   N     0.65011   0.81932   0.23783   0.00000  Uiso   1.00
N444   N     0.34989   0.84735   0.26217   0.00000  Uiso   1.00
H445   H     0.33794   0.79411   0.21623   0.00000  Uiso   1.00
H446   H     0.66206   0.87255   0.28377   0.00000  Uiso   1.00
N447   N     0.46016   0.74194   0.11825   0.00000  Uiso   1.00
O448   O     0.49603   0.71930   0.14148   0.00000  Uiso   1.00
O449   O     0.40645   0.72466   0.11928   0.00000  Uiso   1.00
N450   N     0.53985   0.92472   0.38175   0.00000  Uiso   1.00
O451   O     0.50393   0.94740   0.35858   0.00000  Uiso   1.00
O452   O     0.59356   0.94196   0.38065   0.00000  Uiso   1.00
N453   N     0.55278   0.97032   0.04900   0.00000  Uiso   1.00
H454   H     0.59275   0.96465   0.06127   0.00000  Uiso   1.00
H455   H     0.55929   0.66830   0.02747   0.00000  Uiso   1.00
N456   N     0.44729   0.69633   0.45099   0.00000  Uiso   1.00
H457   H     0.40725   0.70195   0.43882   0.00000  Uiso   1.00
H458   H     0.44094   0.99832   0.47250   0.00000  Uiso   1.00
N459   N     0.58067   0.67237   0.25723   0.00000  Uiso   1.00
O460   O     0.61924   0.67489   0.22341   0.00000  Uiso   1.00
O461   O     0.59467   0.68683   0.29735   0.00000  Uiso   1.00
N462   N     0.41933   0.99430   0.24279   0.00000  Uiso   1.00
O463   O     0.38076   0.99177   0.27662   0.00000  Uiso   1.00
O464   O     0.40531   0.97985   0.20267   0.00000  Uiso   1.00
O465   O     0.79642   0.91286   0.25299   0.00000  Uiso   1.00
O466   O     0.87025   0.75381   0.24702   0.00000  Uiso   1.00
O467   O     0.89280   0.90387   0.24519   0.00000  Uiso   1.00
O468   O     0.77387   0.76279   0.25482   0.00000  Uiso   1.00
C469   C     0.84836   0.93130   0.24819   0.00000  Uiso   1.00
C470   C     0.81831   0.73537   0.25182   0.00000  Uiso   1.00
O471   O     0.78514   0.83784   0.31998   0.00000  Uiso   1.00
O472   O     0.88153   0.82883   0.18003   0.00000  Uiso   1.00
O473   O     0.88152   0.82885   0.31218   0.00000  Uiso   1.00
O474   O     0.78515   0.83781   0.18783   0.00000  Uiso   1.00
C475   C     0.83409   0.83371   0.33631   0.00000  Uiso   1.00
C476   C     0.83258   0.83296   0.16369   0.00000  Uiso   1.00
Zn477  Zn    0.76898   0.83933   0.25521   0.00000  Uiso   1.00
Zn478  Zn    0.89769   0.82734   0.24479   0.00000  Uiso   1.00
C479   C     0.81237   0.78738   0.09349   0.00000  Uiso   1.00
C480   C     0.85432   0.87928   0.40650   0.00000  Uiso   1.00
C481   C     0.83111   0.83233   0.11618   0.00000  Uiso   1.00
C482   C     0.83556   0.83434   0.38381   0.00000  Uiso   1.00
C483   C     0.84945   0.87728   0.09401   0.00000  Uiso   1.00
C484   C     0.81723   0.78938   0.40599   0.00000  Uiso   1.00
C485   C     0.85035   0.87854   0.04745   0.00000  Uiso   1.00
C486   C     0.81635   0.78811   0.45254   0.00000  Uiso   1.00
C487   C     0.83256   0.83318   0.02348   0.00000  Uiso   1.00
C488   C     0.83415   0.83347   0.47652   0.00000  Uiso   1.00
C489   C     0.81340   0.78746   0.04652   0.00000  Uiso   1.00
C490   C     0.85330   0.87919   0.45347   0.00000  Uiso   1.00
C491   C     0.86870   0.92410   0.02459   0.00000  Uiso   1.00
C492   C     0.79802   0.74255   0.47541   0.00000  Uiso   1.00
C493   C     0.86967   0.92403   0.47775   0.00000  Uiso   1.00
C494   C     0.79706   0.74262   0.02225   0.00000  Uiso   1.00
H495   H     0.86295   0.91110   0.11358   0.00000  Uiso   1.00
H496   H     0.80373   0.75556   0.38642   0.00000  Uiso   1.00
H497   H     0.88319   0.95939   0.46053   0.00000  Uiso   1.00
H498   H     0.78355   0.70726   0.03947   0.00000  Uiso   1.00
C499   C     0.85646   0.98530   0.25039   0.00000  Uiso   1.00
C500   C     0.81020   0.68137   0.24963   0.00000  Uiso   1.00
N501   N     0.98344   0.81932   0.23783   0.00000  Uiso   1.00
N502   N     0.68322   0.84735   0.26217   0.00000  Uiso   1.00
H503   H     0.67127   0.79411   0.21623   0.00000  Uiso   1.00
H504   H     0.99540   0.87255   0.28377   0.00000  Uiso   1.00
N505   N     0.79349   0.74194   0.11825   0.00000  Uiso   1.00
O506   O     0.82937   0.71930   0.14148   0.00000  Uiso   1.00
O507   O     0.73978   0.72466   0.11928   0.00000  Uiso   1.00
N508   N     0.87318   0.92472   0.38175   0.00000  Uiso   1.00
O509   O     0.83727   0.94740   0.35858   0.00000  Uiso   1.00
O510   O     0.92690   0.94196   0.38065   0.00000  Uiso   1.00
N511   N     0.88611   0.97032   0.04900   0.00000  Uiso   1.00
H512   H     0.92608   0.96465   0.06127   0.00000  Uiso   1.00
H513   H     0.89262   0.66830   0.02747   0.00000  Uiso   1.00
N514   N     0.78062   0.69633   0.45099   0.00000  Uiso   1.00
H515   H     0.74058   0.70195   0.43882   0.00000  Uiso   1.00
H516   H     0.77427   0.99832   0.47250   0.00000  Uiso   1.00
N517   N     0.91400   0.67237   0.25723   0.00000  Uiso   1.00
O518   O     0.95258   0.67489   0.22341   0.00000  Uiso   1.00
O519   O     0.92801   0.68683   0.29735   0.00000  Uiso   1.00
N520   N     0.75266   0.99430   0.24279   0.00000  Uiso   1.00
O521   O     0.71410   0.99177   0.27662   0.00000  Uiso   1.00
O522   O     0.73864   0.97985   0.20267   0.00000  Uiso   1.00
O523   O     0.12975   0.24619   0.75299   0.00000  Uiso   1.00
O524   O     0.20358   0.08714   0.74702   0.00000  Uiso   1.00
O525   O     0.22613   0.23721   0.74519   0.00000  Uiso   1.00
O526   O     0.10720   0.09613   0.75482   0.00000  Uiso   1.00
C527   C     0.18169   0.26463   0.74819   0.00000  Uiso   1.00
C528   C     0.15164   0.06870   0.75182   0.00000  Uiso   1.00
O529   O     0.11847   0.17117   0.81998   0.00000  Uiso   1.00
O530   O     0.21486   0.16216   0.68003   0.00000  Uiso   1.00
O531   O     0.21485   0.16219   0.81218   0.00000  Uiso   1.00
O532   O     0.11848   0.17115   0.68783   0.00000  Uiso   1.00
C533   C     0.16742   0.16704   0.83631   0.00000  Uiso   1.00
C534   C     0.16591   0.16629   0.66369   0.00000  Uiso   1.00
Zn535  Zn    0.10231   0.17266   0.75521   0.00000  Uiso   1.00
Zn536  Zn    0.23102   0.16067   0.74479   0.00000  Uiso   1.00
C537   C     0.14570   0.12071   0.59349   0.00000  Uiso   1.00
C538   C     0.18765   0.21261   0.90650   0.00000  Uiso   1.00
C539   C     0.16444   0.16566   0.61618   0.00000  Uiso   1.00
C540   C     0.16890   0.16767   0.88381   0.00000  Uiso   1.00
C541   C     0.18278   0.21061   0.59401   0.00000  Uiso   1.00
C542   C     0.15056   0.12272   0.90599   0.00000  Uiso   1.00
C543   C     0.18368   0.21188   0.54745   0.00000  Uiso   1.00
C544   C     0.14969   0.12145   0.95254   0.00000  Uiso   1.00
C545   C     0.16589   0.16652   0.52348   0.00000  Uiso   1.00
C546   C     0.16749   0.16680   0.97652   0.00000  Uiso   1.00
C547   C     0.14674   0.12080   0.54652   0.00000  Uiso   1.00
C548   C     0.18664   0.21252   0.95347   0.00000  Uiso   1.00
C549   C     0.20204   0.25744   0.52459   0.00000  Uiso   1.00
C550   C     0.13136   0.07588   0.97541   0.00000  Uiso   1.00
C551   C     0.20300   0.25736   0.97775   0.00000  Uiso   1.00
C552   C     0.13040   0.07595   0.52225   0.00000  Uiso   1.00
H553   H     0.19628   0.24444   0.61358   0.00000  Uiso   1.00
H554   H     0.13706   0.08889   0.88642   0.00000  Uiso   1.00
H555   H     0.21652   0.29272   0.96053   0.00000  Uiso   1.00
H556   H     0.11689   0.04059   0.53947   0.00000  Uiso   1.00
C557   C     0.18980   0.31863   0.75039   0.00000  Uiso   1.00
C558   C     0.14354   0.01470   0.74963   0.00000  Uiso   1.00
N559   N     0.31678   0.15265   0.73783   0.00000  Uiso   1.00
N560   N     0.01656   0.18068   0.76217   0.00000  Uiso   1.00
H561   H     0.00461   0.12745   0.71623   0.00000  Uiso   1.00
H562   H     0.32873   0.20589   0.78377   0.00000  Uiso   1.00
N563   N     0.12682   0.07528   0.61825   0.00000  Uiso   1.00
O564   O     0.16270   0.05264   0.64148   0.00000  Uiso   1.00
O565   O     0.07312   0.05799   0.61928   0.00000  Uiso   1.00
N566   N     0.20651   0.25805   0.88175   0.00000  Uiso   1.00
O567   O     0.17060   0.28073   0.85858   0.00000  Uiso   1.00
O568   O     0.26023   0.27530   0.88065   0.00000  Uiso   1.00
N569   N     0.21945   0.30366   0.54900   0.00000  Uiso   1.00
H570   H     0.25942   0.29798   0.56127   0.00000  Uiso   1.00
H571   H     0.22595   0.00164   0.52747   0.00000  Uiso   1.00
N572   N     0.11395   0.02966   0.95099   0.00000  Uiso   1.00
H573   H     0.07391   0.03528   0.93882   0.00000  Uiso   1.00
H574   H     0.10760   0.33165   0.97250   0.00000  Uiso   1.00
N575   N     0.24734   0.00570   0.75723   0.00000  Uiso   1.00
O576   O     0.28591   0.00822   0.72341   0.00000  Uiso   1.00
O577   O     0.26134   0.02017   0.79735   0.00000  Uiso   1.00
N578   N     0.08599   0.32763   0.74279   0.00000  Uiso   1.00
O579   O     0.04743   0.32510   0.77662   0.00000  Uiso   1.00
O580   O     0.07198   0.31319   0.70267   0.00000  Uiso   1.00
O581   O     0.46308   0.24619   0.75299   0.00000  Uiso   1.00
O582   O     0.53692   0.08714   0.74702   0.00000  Uiso   1.00
O583   O     0.55946   0.23721   0.74519   0.00000  Uiso   1.00
O584   O     0.44054   0.09613   0.75482   0.00000  Uiso   1.00
C585   C     0.51503   0.26463   0.74819   0.00000  Uiso   1.00
C586   C     0.48497   0.06870   0.75182   0.00000  Uiso   1.00
O587   O     0.45181   0.17117   0.81998   0.00000  Uiso   1.00
O588   O     0.54819   0.16216   0.68003   0.00000  Uiso   1.00
O589   O     0.54819   0.16219   0.81218   0.00000  Uiso   1.00
O590   O     0.45181   0.17115   0.68783   0.00000  Uiso   1.00
C591   C     0.50075   0.16704   0.83631   0.00000  Uiso   1.00
C592   C     0.49925   0.16629   0.66369   0.00000  Uiso   1.00
Zn593  Zn    0.43565   0.17266   0.75521   0.00000  Uiso   1.00
Zn594  Zn    0.56435   0.16067   0.74479   0.00000  Uiso   1.00
C595   C     0.47903   0.12071   0.59349   0.00000  Uiso   1.00
C596   C     0.52099   0.21261   0.90650   0.00000  Uiso   1.00
C597   C     0.49778   0.16566   0.61618   0.00000  Uiso   1.00
C598   C     0.50223   0.16767   0.88381   0.00000  Uiso   1.00
C599   C     0.51612   0.21061   0.59401   0.00000  Uiso   1.00
C600   C     0.48390   0.12272   0.90599   0.00000  Uiso   1.00
C601   C     0.51702   0.21188   0.54745   0.00000  Uiso   1.00
C602   C     0.48302   0.12145   0.95254   0.00000  Uiso   1.00
C603   C     0.49922   0.16652   0.52348   0.00000  Uiso   1.00
C604   C     0.50082   0.16680   0.97652   0.00000  Uiso   1.00
C605   C     0.48007   0.12080   0.54652   0.00000  Uiso   1.00
C606   C     0.51997   0.21252   0.95347   0.00000  Uiso   1.00
C607   C     0.53537   0.25744   0.52459   0.00000  Uiso   1.00
C608   C     0.46469   0.07588   0.97541   0.00000  Uiso   1.00
C609   C     0.53633   0.25736   0.97775   0.00000  Uiso   1.00
C610   C     0.46373   0.07595   0.52225   0.00000  Uiso   1.00
H611   H     0.52961   0.24444   0.61358   0.00000  Uiso   1.00
H612   H     0.47039   0.08889   0.88642   0.00000  Uiso   1.00
H613   H     0.54985   0.29272   0.96053   0.00000  Uiso   1.00
H614   H     0.45022   0.04059   0.53947   0.00000  Uiso   1.00
C615   C     0.52313   0.31863   0.75039   0.00000  Uiso   1.00
C616   C     0.47687   0.01470   0.74963   0.00000  Uiso   1.00
N617   N     0.65011   0.15265   0.73783   0.00000  Uiso   1.00
N618   N     0.34989   0.18068   0.76217   0.00000  Uiso   1.00
H619   H     0.33794   0.12745   0.71623   0.00000  Uiso   1.00
H620   H     0.66206   0.20589   0.78377   0.00000  Uiso   1.00
N621   N     0.46016   0.07528   0.61825   0.00000  Uiso   1.00
O622   O     0.49603   0.05264   0.64148   0.00000  Uiso   1.00
O623   O     0.40645   0.05799   0.61928   0.00000  Uiso   1.00
N624   N     0.53985   0.25805   0.88175   0.00000  Uiso   1.00
O625   O     0.50393   0.28073   0.85858   0.00000  Uiso   1.00
O626   O     0.59356   0.27530   0.88065   0.00000  Uiso   1.00
N627   N     0.55278   0.30366   0.54900   0.00000  Uiso   1.00
H628   H     0.59275   0.29798   0.56127   0.00000  Uiso   1.00
H629   H     0.55929   0.00164   0.52747   0.00000  Uiso   1.00
N630   N     0.44729   0.02966   0.95099   0.00000  Uiso   1.00
H631   H     0.40725   0.03528   0.93882   0.00000  Uiso   1.00
H632   H     0.44094   0.33165   0.97250   0.00000  Uiso   1.00
N633   N     0.58067   0.00570   0.75723   0.00000  Uiso   1.00
O634   O     0.61924   0.00822   0.72341   0.00000  Uiso   1.00
O635   O     0.59467   0.02017   0.79735   0.00000  Uiso   1.00
N636   N     0.41933   0.32763   0.74279   0.00000  Uiso   1.00
O637   O     0.38076   0.32510   0.77662   0.00000  Uiso   1.00
O638   O     0.40531   0.31319   0.70267   0.00000  Uiso   1.00
O639   O     0.79642   0.24619   0.75299   0.00000  Uiso   1.00
O640   O     0.87025   0.08714   0.74702   0.00000  Uiso   1.00
O641   O     0.89280   0.23721   0.74519   0.00000  Uiso   1.00
O642   O     0.77387   0.09613   0.75482   0.00000  Uiso   1.00
C643   C     0.84836   0.26463   0.74819   0.00000  Uiso   1.00
C644   C     0.81831   0.06870   0.75182   0.00000  Uiso   1.00
O645   O     0.78514   0.17117   0.81998   0.00000  Uiso   1.00
O646   O     0.88153   0.16216   0.68003   0.00000  Uiso   1.00
O647   O     0.88152   0.16219   0.81218   0.00000  Uiso   1.00
O648   O     0.78515   0.17115   0.68783   0.00000  Uiso   1.00
C649   C     0.83409   0.16704   0.83631   0.00000  Uiso   1.00
C650   C     0.83258   0.16629   0.66369   0.00000  Uiso   1.00
Zn651  Zn    0.76898   0.17266   0.75521   0.00000  Uiso   1.00
Zn652  Zn    0.89769   0.16067   0.74479   0.00000  Uiso   1.00
C653   C     0.81237   0.12071   0.59349   0.00000  Uiso   1.00
C654   C     0.85432   0.21261   0.90650   0.00000  Uiso   1.00
C655   C     0.83111   0.16566   0.61618   0.00000  Uiso   1.00
C656   C     0.83556   0.16767   0.88381   0.00000  Uiso   1.00
C657   C     0.84945   0.21061   0.59401   0.00000  Uiso   1.00
C658   C     0.81723   0.12272   0.90599   0.00000  Uiso   1.00
C659   C     0.85035   0.21188   0.54745   0.00000  Uiso   1.00
C660   C     0.81635   0.12145   0.95254   0.00000  Uiso   1.00
C661   C     0.83256   0.16652   0.52348   0.00000  Uiso   1.00
C662   C     0.83415   0.16680   0.97652   0.00000  Uiso   1.00
C663   C     0.81340   0.12080   0.54652   0.00000  Uiso   1.00
C664   C     0.85330   0.21252   0.95347   0.00000  Uiso   1.00
C665   C     0.86870   0.25744   0.52459   0.00000  Uiso   1.00
C666   C     0.79802   0.07588   0.97541   0.00000  Uiso   1.00
C667   C     0.86967   0.25736   0.97775   0.00000  Uiso   1.00
C668   C     0.79706   0.07595   0.52225   0.00000  Uiso   1.00
H669   H     0.86295   0.24444   0.61358   0.00000  Uiso   1.00
H670   H     0.80373   0.08889   0.88642   0.00000  Uiso   1.00
H671   H     0.88319   0.29272   0.96053   0.00000  Uiso   1.00
H672   H     0.78355   0.04059   0.53947   0.00000  Uiso   1.00
C673   C     0.85646   0.31863   0.75039   0.00000  Uiso   1.00
C674   C     0.81020   0.01470   0.74963   0.00000  Uiso   1.00
N675   N     0.98344   0.15265   0.73783   0.00000  Uiso   1.00
N676   N     0.68322   0.18068   0.76217   0.00000  Uiso   1.00
H677   H     0.67127   0.12745   0.71623   0.00000  Uiso   1.00
H678   H     0.99540   0.20589   0.78377   0.00000  Uiso   1.00
N679   N     0.79349   0.07528   0.61825   0.00000  Uiso   1.00
O680   O     0.82937   0.05264   0.64148   0.00000  Uiso   1.00
O681   O     0.73978   0.05799   0.61928   0.00000  Uiso   1.00
N682   N     0.87318   0.25805   0.88175   0.00000  Uiso   1.00
O683   O     0.83727   0.28073   0.85858   0.00000  Uiso   1.00
O684   O     0.92690   0.27530   0.88065   0.00000  Uiso   1.00
N685   N     0.88611   0.30366   0.54900   0.00000  Uiso   1.00
H686   H     0.92608   0.29798   0.56127   0.00000  Uiso   1.00
H687   H     0.89262   0.00164   0.52747   0.00000  Uiso   1.00
N688   N     0.78062   0.02966   0.95099   0.00000  Uiso   1.00
H689   H     0.74058   0.03528   0.93882   0.00000  Uiso   1.00
H690   H     0.77427   0.33165   0.97250   0.00000  Uiso   1.00
N691   N     0.91400   0.00570   0.75723   0.00000  Uiso   1.00
O692   O     0.95258   0.00822   0.72341   0.00000  Uiso   1.00
O693   O     0.92801   0.02017   0.79735   0.00000  Uiso   1.00
N694   N     0.75266   0.32763   0.74279   0.00000  Uiso   1.00
O695   O     0.71410   0.32510   0.77662   0.00000  Uiso   1.00
O696   O     0.73864   0.31319   0.70267   0.00000  Uiso   1.00
O697   O     0.12975   0.57952   0.75299   0.00000  Uiso   1.00
O698   O     0.20358   0.42048   0.74702   0.00000  Uiso   1.00
O699   O     0.22613   0.57054   0.74519   0.00000  Uiso   1.00
O700   O     0.10720   0.42946   0.75482   0.00000  Uiso   1.00
C701   C     0.18169   0.59797   0.74819   0.00000  Uiso   1.00
C702   C     0.15164   0.40203   0.75182   0.00000  Uiso   1.00
O703   O     0.11847   0.50450   0.81998   0.00000  Uiso   1.00
O704   O     0.21486   0.49550   0.68003   0.00000  Uiso   1.00
O705   O     0.21485   0.49552   0.81218   0.00000  Uiso   1.00
O706   O     0.11848   0.50448   0.68783   0.00000  Uiso   1.00
C707   C     0.16742   0.50037   0.83631   0.00000  Uiso   1.00
C708   C     0.16591   0.49963   0.66369   0.00000  Uiso   1.00
Zn709  Zn    0.10231   0.50600   0.75521   0.00000  Uiso   1.00
Zn710  Zn    0.23102   0.49400   0.74479   0.00000  Uiso   1.00
C711   C     0.14570   0.45405   0.59349   0.00000  Uiso   1.00
C712   C     0.18765   0.54595   0.90650   0.00000  Uiso   1.00
C713   C     0.16444   0.49899   0.61618   0.00000  Uiso   1.00
C714   C     0.16890   0.50100   0.88381   0.00000  Uiso   1.00
C715   C     0.18278   0.54394   0.59401   0.00000  Uiso   1.00
C716   C     0.15056   0.45605   0.90599   0.00000  Uiso   1.00
C717   C     0.18368   0.54521   0.54745   0.00000  Uiso   1.00
C718   C     0.14969   0.45478   0.95254   0.00000  Uiso   1.00
C719   C     0.16589   0.49985   0.52348   0.00000  Uiso   1.00
C720   C     0.16749   0.50014   0.97652   0.00000  Uiso   1.00
C721   C     0.14674   0.45413   0.54652   0.00000  Uiso   1.00
C722   C     0.18664   0.54586   0.95347   0.00000  Uiso   1.00
C723   C     0.20204   0.59077   0.52459   0.00000  Uiso   1.00
C724   C     0.13136   0.40921   0.97541   0.00000  Uiso   1.00
C725   C     0.20300   0.59070   0.97775   0.00000  Uiso   1.00
C726   C     0.13040   0.40928   0.52225   0.00000  Uiso   1.00
H727   H     0.19628   0.57777   0.61358   0.00000  Uiso   1.00
H728   H     0.13706   0.42222   0.88642   0.00000  Uiso   1.00
H729   H     0.21652   0.62605   0.96053   0.00000  Uiso   1.00
H730   H     0.11689   0.37392   0.53947   0.00000  Uiso   1.00
C731   C     0.18980   0.65197   0.75039   0.00000  Uiso   1.00
C732   C     0.14354   0.34803   0.74963   0.00000  Uiso   1.00
N733   N     0.31678   0.48598   0.73783   0.00000  Uiso   1.00
N734   N     0.01656   0.51402   0.76217   0.00000  Uiso   1.00
H735   H     0.00461   0.46078   0.71623   0.00000  Uiso   1.00
H736   H     0.32873   0.53922   0.78377   0.00000  Uiso   1.00
N737   N     0.12682   0.40861   0.61825   0.00000  Uiso   1.00
O738   O     0.16270   0.38597   0.64148   0.00000  Uiso   1.00
O739   O     0.07312   0.39132   0.61928   0.00000  Uiso   1.00
N740   N     0.20651   0.59138   0.88175   0.00000  Uiso   1.00
O741   O     0.17060   0.61407   0.85858   0.00000  Uiso   1.00
O742   O     0.26023   0.60863   0.88065   0.00000  Uiso   1.00
N743   N     0.21945   0.63699   0.54900   0.00000  Uiso   1.00
H744   H     0.25942   0.63131   0.56127   0.00000  Uiso   1.00
H745   H     0.22595   0.33497   0.52747   0.00000  Uiso   1.00
N746   N     0.11395   0.36299   0.95099   0.00000  Uiso   1.00
H747   H     0.07391   0.36861   0.93882   0.00000  Uiso   1.00
H748   H     0.10760   0.66499   0.97250   0.00000  Uiso   1.00
N749   N     0.24734   0.33903   0.75723   0.00000  Uiso   1.00
O750   O     0.28591   0.34156   0.72341   0.00000  Uiso   1.00
O751   O     0.26134   0.35350   0.79735   0.00000  Uiso   1.00
N752   N     0.08599   0.66097   0.74279   0.00000  Uiso   1.00
O753   O     0.04743   0.65843   0.77662   0.00000  Uiso   1.00
O754   O     0.07198   0.64652   0.70267   0.00000  Uiso   1.00
O755   O     0.46308   0.57952   0.75299   0.00000  Uiso   1.00
O756   O     0.53692   0.42048   0.74702   0.00000  Uiso   1.00
O757   O     0.55946   0.57054   0.74519   0.00000  Uiso   1.00
O758   O     0.44054   0.42946   0.75482   0.00000  Uiso   1.00
C759   C     0.51503   0.59797   0.74819   0.00000  Uiso   1.00
C760   C     0.48497   0.40203   0.75182   0.00000  Uiso   1.00
O761   O     0.45181   0.50450   0.81998   0.00000  Uiso   1.00
O762   O     0.54819   0.49550   0.68003   0.00000  Uiso   1.00
O763   O     0.54819   0.49552   0.81218   0.00000  Uiso   1.00
O764   O     0.45181   0.50448   0.68783   0.00000  Uiso   1.00
C765   C     0.50075   0.50037   0.83631   0.00000  Uiso   1.00
C766   C     0.49925   0.49963   0.66369   0.00000  Uiso   1.00
Zn767  Zn    0.43565   0.50600   0.75521   0.00000  Uiso   1.00
Zn768  Zn    0.56435   0.49400   0.74479   0.00000  Uiso   1.00
C769   C     0.47903   0.45405   0.59349   0.00000  Uiso   1.00
C770   C     0.52099   0.54595   0.90650   0.00000  Uiso   1.00
C771   C     0.49778   0.49899   0.61618   0.00000  Uiso   1.00
C772   C     0.50223   0.50100   0.88381   0.00000  Uiso   1.00
C773   C     0.51612   0.54394   0.59401   0.00000  Uiso   1.00
C774   C     0.48390   0.45605   0.90599   0.00000  Uiso   1.00
C775   C     0.51702   0.54521   0.54745   0.00000  Uiso   1.00
C776   C     0.48302   0.45478   0.95254   0.00000  Uiso   1.00
C777   C     0.49922   0.49985   0.52348   0.00000  Uiso   1.00
C778   C     0.50082   0.50014   0.97652   0.00000  Uiso   1.00
C779   C     0.48007   0.45413   0.54652   0.00000  Uiso   1.00
C780   C     0.51997   0.54586   0.95347   0.00000  Uiso   1.00
C781   C     0.53537   0.59077   0.52459   0.00000  Uiso   1.00
C782   C     0.46469   0.40921   0.97541   0.00000  Uiso   1.00
C783   C     0.53633   0.59070   0.97775   0.00000  Uiso   1.00
C784   C     0.46373   0.40928   0.52225   0.00000  Uiso   1.00
H785   H     0.52961   0.57777   0.61358   0.00000  Uiso   1.00
H786   H     0.47039   0.42222   0.88642   0.00000  Uiso   1.00
H787   H     0.54985   0.62605   0.96053   0.00000  Uiso   1.00
H788   H     0.45022   0.37392   0.53947   0.00000  Uiso   1.00
C789   C     0.52313   0.65197   0.75039   0.00000  Uiso   1.00
C790   C     0.47687   0.34803   0.74963   0.00000  Uiso   1.00
N791   N     0.65011   0.48598   0.73783   0.00000  Uiso   1.00
N792   N     0.34989   0.51402   0.76217   0.00000  Uiso   1.00
H793   H     0.33794   0.46078   0.71623   0.00000  Uiso   1.00
H794   H     0.66206   0.53922   0.78377   0.00000  Uiso   1.00
N795   N     0.46016   0.40861   0.61825   0.00000  Uiso   1.00
O796   O     0.49603   0.38597   0.64148   0.00000  Uiso   1.00
O797   O     0.40645   0.39132   0.61928   0.00000  Uiso   1.00
N798   N     0.53985   0.59138   0.88175   0.00000  Uiso   1.00
O799   O     0.50393   0.61407   0.85858   0.00000  Uiso   1.00
O800   O     0.59356   0.60863   0.88065   0.00000  Uiso   1.00
N801   N     0.55278   0.63699   0.54900   0.00000  Uiso   1.00
H802   H     0.59275   0.63131   0.56127   0.00000  Uiso   1.00
H803   H     0.55929   0.33497   0.52747   0.00000  Uiso   1.00
N804   N     0.44729   0.36299   0.95099   0.00000  Uiso   1.00
H805   H     0.40725   0.36861   0.93882   0.00000  Uiso   1.00
H806   H     0.44094   0.66499   0.97250   0.00000  Uiso   1.00
N807   N     0.58067   0.33903   0.75723   0.00000  Uiso   1.00
O808   O     0.61924   0.34156   0.72341   0.00000  Uiso   1.00
O809   O     0.59467   0.35350   0.79735   0.00000  Uiso   1.00
N810   N     0.41933   0.66097   0.74279   0.00000  Uiso   1.00
O811   O     0.38076   0.65843   0.77662   0.00000  Uiso   1.00
O812   O     0.40531   0.64652   0.70267   0.00000  Uiso   1.00
O813   O     0.79642   0.57952   0.75299   0.00000  Uiso   1.00
O814   O     0.87025   0.42048   0.74702   0.00000  Uiso   1.00
O815   O     0.89280   0.57054   0.74519   0.00000  Uiso   1.00
O816   O     0.77387   0.42946   0.75482   0.00000  Uiso   1.00
C817   C     0.84836   0.59797   0.74819   0.00000  Uiso   1.00
C818   C     0.81831   0.40203   0.75182   0.00000  Uiso   1.00
O819   O     0.78514   0.50450   0.81998   0.00000  Uiso   1.00
O820   O     0.88153   0.49550   0.68003   0.00000  Uiso   1.00
O821   O     0.88152   0.49552   0.81218   0.00000  Uiso   1.00
O822   O     0.78515   0.50448   0.68783   0.00000  Uiso   1.00
C823   C     0.83409   0.50037   0.83631   0.00000  Uiso   1.00
C824   C     0.83258   0.49963   0.66369   0.00000  Uiso   1.00
Zn825  Zn    0.76898   0.50600   0.75521   0.00000  Uiso   1.00
Zn826  Zn    0.89769   0.49400   0.74479   0.00000  Uiso   1.00
C827   C     0.81237   0.45405   0.59349   0.00000  Uiso   1.00
C828   C     0.85432   0.54595   0.90650   0.00000  Uiso   1.00
C829   C     0.83111   0.49899   0.61618   0.00000  Uiso   1.00
C830   C     0.83556   0.50100   0.88381   0.00000  Uiso   1.00
C831   C     0.84945   0.54394   0.59401   0.00000  Uiso   1.00
C832   C     0.81723   0.45605   0.90599   0.00000  Uiso   1.00
C833   C     0.85035   0.54521   0.54745   0.00000  Uiso   1.00
C834   C     0.81635   0.45478   0.95254   0.00000  Uiso   1.00
C835   C     0.83256   0.49985   0.52348   0.00000  Uiso   1.00
C836   C     0.83415   0.50014   0.97652   0.00000  Uiso   1.00
C837   C     0.81340   0.45413   0.54652   0.00000  Uiso   1.00
C838   C     0.85330   0.54586   0.95347   0.00000  Uiso   1.00
C839   C     0.86870   0.59077   0.52459   0.00000  Uiso   1.00
C840   C     0.79802   0.40921   0.97541   0.00000  Uiso   1.00
C841   C     0.86967   0.59070   0.97775   0.00000  Uiso   1.00
C842   C     0.79706   0.40928   0.52225   0.00000  Uiso   1.00
H843   H     0.86295   0.57777   0.61358   0.00000  Uiso   1.00
H844   H     0.80373   0.42222   0.88642   0.00000  Uiso   1.00
H845   H     0.88319   0.62605   0.96053   0.00000  Uiso   1.00
H846   H     0.78355   0.37392   0.53947   0.00000  Uiso   1.00
C847   C     0.85646   0.65197   0.75039   0.00000  Uiso   1.00
C848   C     0.81020   0.34803   0.74963   0.00000  Uiso   1.00
N849   N     0.98344   0.48598   0.73783   0.00000  Uiso   1.00
N850   N     0.68322   0.51402   0.76217   0.00000  Uiso   1.00
H851   H     0.67127   0.46078   0.71623   0.00000  Uiso   1.00
H852   H     0.99540   0.53922   0.78377   0.00000  Uiso   1.00
N853   N     0.79349   0.40861   0.61825   0.00000  Uiso   1.00
O854   O     0.82937   0.38597   0.64148   0.00000  Uiso   1.00
O855   O     0.73978   0.39132   0.61928   0.00000  Uiso   1.00
N856   N     0.87318   0.59138   0.88175   0.00000  Uiso   1.00
O857   O     0.83727   0.61407   0.85858   0.00000  Uiso   1.00
O858   O     0.92690   0.60863   0.88065   0.00000  Uiso   1.00
N859   N     0.88611   0.63699   0.54900   0.00000  Uiso   1.00
H860   H     0.92608   0.63131   0.56127   0.00000  Uiso   1.00
H861   H     0.89262   0.33497   0.52747   0.00000  Uiso   1.00
N862   N     0.78062   0.36299   0.95099   0.00000  Uiso   1.00
H863   H     0.74058   0.36861   0.93882   0.00000  Uiso   1.00
H864   H     0.77427   0.66499   0.97250   0.00000  Uiso   1.00
N865   N     0.91400   0.33903   0.75723   0.00000  Uiso   1.00
O866   O     0.95258   0.34156   0.72341   0.00000  Uiso   1.00
O867   O     0.92801   0.35350   0.79735   0.00000  Uiso   1.00
N868   N     0.75266   0.66097   0.74279   0.00000  Uiso   1.00
O869   O     0.71410   0.65843   0.77662   0.00000  Uiso   1.00
O870   O     0.73864   0.64652   0.70267   0.00000  Uiso   1.00
O871   O     0.12975   0.91286   0.75299   0.00000  Uiso   1.00
O872   O     0.20358   0.75381   0.74702   0.00000  Uiso   1.00
O873   O     0.22613   0.90387   0.74519   0.00000  Uiso   1.00
O874   O     0.10720   0.76279   0.75482   0.00000  Uiso   1.00
C875   C     0.18169   0.93130   0.74819   0.00000  Uiso   1.00
C876   C     0.15164   0.73537   0.75182   0.00000  Uiso   1.00
O877   O     0.11847   0.83784   0.81998   0.00000  Uiso   1.00
O878   O     0.21486   0.82883   0.68003   0.00000  Uiso   1.00
O879   O     0.21485   0.82885   0.81218   0.00000  Uiso   1.00
O880   O     0.11848   0.83781   0.68783   0.00000  Uiso   1.00
C881   C     0.16742   0.83371   0.83631   0.00000  Uiso   1.00
C882   C     0.16591   0.83296   0.66369   0.00000  Uiso   1.00
Zn883  Zn    0.10231   0.83933   0.75521   0.00000  Uiso   1.00
Zn884  Zn    0.23102   0.82734   0.74479   0.00000  Uiso   1.00
C885   C     0.14570   0.78738   0.59349   0.00000  Uiso   1.00
C886   C     0.18765   0.87928   0.90650   0.00000  Uiso   1.00
C887   C     0.16444   0.83233   0.61618   0.00000  Uiso   1.00
C888   C     0.16890   0.83434   0.88381   0.00000  Uiso   1.00
C889   C     0.18278   0.87728   0.59401   0.00000  Uiso   1.00
C890   C     0.15056   0.78938   0.90599   0.00000  Uiso   1.00
C891   C     0.18368   0.87854   0.54745   0.00000  Uiso   1.00
C892   C     0.14969   0.78811   0.95254   0.00000  Uiso   1.00
C893   C     0.16589   0.83318   0.52348   0.00000  Uiso   1.00
C894   C     0.16749   0.83347   0.97652   0.00000  Uiso   1.00
C895   C     0.14674   0.78746   0.54652   0.00000  Uiso   1.00
C896   C     0.18664   0.87919   0.95347   0.00000  Uiso   1.00
C897   C     0.20204   0.92410   0.52459   0.00000  Uiso   1.00
C898   C     0.13136   0.74255   0.97541   0.00000  Uiso   1.00
C899   C     0.20300   0.92403   0.97775   0.00000  Uiso   1.00
C900   C     0.13040   0.74262   0.52225   0.00000  Uiso   1.00
H901   H     0.19628   0.91110   0.61358   0.00000  Uiso   1.00
H902   H     0.13706   0.75556   0.88642   0.00000  Uiso   1.00
H903   H     0.21652   0.95939   0.96053   0.00000  Uiso   1.00
H904   H     0.11689   0.70726   0.53947   0.00000  Uiso   1.00
C905   C     0.18980   0.98530   0.75039   0.00000  Uiso   1.00
C906   C     0.14354   0.68137   0.74963   0.00000  Uiso   1.00
N907   N     0.31678   0.81932   0.73783   0.00000  Uiso   1.00
N908   N     0.01656   0.84735   0.76217   0.00000  Uiso   1.00
H909   H     0.00461   0.79411   0.71623   0.00000  Uiso   1.00
H910   H     0.32873   0.87255   0.78377   0.00000  Uiso   1.00
N911   N     0.12682   0.74194   0.61825   0.00000  Uiso   1.00
O912   O     0.16270   0.71930   0.64148   0.00000  Uiso   1.00
O913   O     0.07312   0.72466   0.61928   0.00000  Uiso   1.00
N914   N     0.20651   0.92472   0.88175   0.00000  Uiso   1.00
O915   O     0.17060   0.94740   0.85858   0.00000  Uiso   1.00
O916   O     0.26023   0.94196   0.88065   0.00000  Uiso   1.00
N917   N     0.21945   0.97032   0.54900   0.00000  Uiso   1.00
H918   H     0.25942   0.96465   0.56127   0.00000  Uiso   1.00
H919   H     0.22595   0.66830   0.52747   0.00000  Uiso   1.00
N920   N     0.11395   0.69633   0.95099   0.00000  Uiso   1.00
H921   H     0.07391   0.70195   0.93882   0.00000  Uiso   1.00
H922   H     0.10760   0.99832   0.97250   0.00000  Uiso   1.00
N923   N     0.24734   0.67237   0.75723   0.00000  Uiso   1.00
O924   O     0.28591   0.67489   0.72341   0.00000  Uiso   1.00
O925   O     0.26134   0.68683   0.79735   0.00000  Uiso   1.00
N926   N     0.08599   0.99430   0.74279   0.00000  Uiso   1.00
O927   O     0.04743   0.99177   0.77662   0.00000  Uiso   1.00
O928   O     0.07198   0.97985   0.70267   0.00000  Uiso   1.00
O929   O     0.46308   0.91286   0.75299   0.00000  Uiso   1.00
O930   O     0.53692   0.75381   0.74702   0.00000  Uiso   1.00
O931   O     0.55946   0.90387   0.74519   0.00000  Uiso   1.00
O932   O     0.44054   0.76279   0.75482   0.00000  Uiso   1.00
C933   C     0.51503   0.93130   0.74819   0.00000  Uiso   1.00
C934   C     0.48497   0.73537   0.75182   0.00000  Uiso   1.00
O935   O     0.45181   0.83784   0.81998   0.00000  Uiso   1.00
O936   O     0.54819   0.82883   0.68003   0.00000  Uiso   1.00
O937   O     0.54819   0.82885   0.81218   0.00000  Uiso   1.00
O938   O     0.45181   0.83781   0.68783   0.00000  Uiso   1.00
C939   C     0.50075   0.83371   0.83631   0.00000  Uiso   1.00
C940   C     0.49925   0.83296   0.66369   0.00000  Uiso   1.00
Zn941  Zn    0.43565   0.83933   0.75521   0.00000  Uiso   1.00
Zn942  Zn    0.56435   0.82734   0.74479   0.00000  Uiso   1.00
C943   C     0.47903   0.78738   0.59349   0.00000  Uiso   1.00
C944   C     0.52099   0.87928   0.90650   0.00000  Uiso   1.00
C945   C     0.49778   0.83233   0.61618   0.00000  Uiso   1.00
C946   C     0.50223   0.83434   0.88381   0.00000  Uiso   1.00
C947   C     0.51612   0.87728   0.59401   0.00000  Uiso   1.00
C948   C     0.48390   0.78938   0.90599   0.00000  Uiso   1.00
C949   C     0.51702   0.87854   0.54745   0.00000  Uiso   1.00
C950   C     0.48302   0.78811   0.95254   0.00000  Uiso   1.00
C951   C     0.49922   0.83318   0.52348   0.00000  Uiso   1.00
C952   C     0.50082   0.83347   0.97652   0.00000  Uiso   1.00
C953   C     0.48007   0.78746   0.54652   0.00000  Uiso   1.00
C954   C     0.51997   0.87919   0.95347   0.00000  Uiso   1.00
C955   C     0.53537   0.92410   0.52459   0.00000  Uiso   1.00
C956   C     0.46469   0.74255   0.97541   0.00000  Uiso   1.00
C957   C     0.53633   0.92403   0.97775   0.00000  Uiso   1.00
C958   C     0.46373   0.74262   0.52225   0.00000  Uiso   1.00
H959   H     0.52961   0.91110   0.61358   0.00000  Uiso   1.00
H960   H     0.47039   0.75556   0.88642   0.00000  Uiso   1.00
H961   H     0.54985   0.95939   0.96053   0.00000  Uiso   1.00
H962   H     0.45022   0.70726   0.53947   0.00000  Uiso   1.00
C963   C     0.52313   0.98530   0.75039   0.00000  Uiso   1.00
C964   C     0.47687   0.68137   0.74963   0.00000  Uiso   1.00
N965   N     0.65011   0.81932   0.73783   0.00000  Uiso   1.00
N966   N     0.34989   0.84735   0.76217   0.00000  Uiso   1.00
H967   H     0.33794   0.79411   0.71623   0.00000  Uiso   1.00
H968   H     0.66206   0.87255   0.78377   0.00000  Uiso   1.00
N969   N     0.46016   0.74194   0.61825   0.00000  Uiso   1.00
O970   O     0.49603   0.71930   0.64148   0.00000  Uiso   1.00
O971   O     0.40645   0.72466   0.61928   0.00000  Uiso   1.00
N972   N     0.53985   0.92472   0.88175   0.00000  Uiso   1.00
O973   O     0.50393   0.94740   0.85858   0.00000  Uiso   1.00
O974   O     0.59356   0.94196   0.88065   0.00000  Uiso   1.00
N975   N     0.55278   0.97032   0.54900   0.00000  Uiso   1.00
H976   H     0.59275   0.96465   0.56127   0.00000  Uiso   1.00
H977   H     0.55929   0.66830   0.52747   0.00000  Uiso   1.00
N978   N     0.44729   0.69633   0.95099   0.00000  Uiso   1.00
H979   H     0.40725   0.70195   0.93882   0.00000  Uiso   1.00
H980   H     0.44094   0.99832   0.97250   0.00000  Uiso   1.00
N981   N     0.58067   0.67237   0.75723   0.00000  Uiso   1.00
O982   O     0.61924   0.67489   0.72341   0.00000  Uiso   1.00
O983   O     0.59467   0.68683   0.79735   0.00000  Uiso   1.00
N984   N     0.41933   0.99430   0.74279   0.00000  Uiso   1.00
O985   O     0.38076   0.99177   0.77662   0.00000  Uiso   1.00
O986   O     0.40531   0.97985   0.70267   0.00000  Uiso   1.00
O987   O     0.79642   0.91286   0.75299   0.00000  Uiso   1.00
O988   O     0.87025   0.75381   0.74702   0.00000  Uiso   1.00
O989   O     0.89280   0.90387   0.74519   0.00000  Uiso   1.00
O990   O     0.77387   0.76279   0.75482   0.00000  Uiso   1.00
C991   C     0.84836   0.93130   0.74819   0.00000  Uiso   1.00
C992   C     0.81831   0.73537   0.75182   0.00000  Uiso   1.00
O993   O     0.78514   0.83784   0.81998   0.00000  Uiso   1.00
O994   O     0.88153   0.82883   0.68003   0.00000  Uiso   1.00
O995   O     0.88152   0.82885   0.81218   0.00000  Uiso   1.00
O996   O     0.78515   0.83781   0.68783   0.00000  Uiso   1.00
C997   C     0.83409   0.83371   0.83631   0.00000  Uiso   1.00
C998   C     0.83258   0.83296   0.66369   0.00000  Uiso   1.00
Zn999  Zn    0.76898   0.83933   0.75521   0.00000  Uiso   1.00
Zn1000 Zn    0.89769   0.82734   0.74479   0.00000  Uiso   1.00
C1001  C     0.81237   0.78738   0.59349   0.00000  Uiso   1.00
C1002  C     0.85432   0.87928   0.90650   0.00000  Uiso   1.00
C1003  C     0.83111   0.83233   0.61618   0.00000  Uiso   1.00
C1004  C     0.83556   0.83434   0.88381   0.00000  Uiso   1.00
C1005  C     0.84945   0.87728   0.59401   0.00000  Uiso   1.00
C1006  C     0.81723   0.78938   0.90599   0.00000  Uiso   1.00
C1007  C     0.85035   0.87854   0.54745   0.00000  Uiso   1.00
C1008  C     0.81635   0.78811   0.95254   0.00000  Uiso   1.00
C1009  C     0.83256   0.83318   0.52348   0.00000  Uiso   1.00
C1010  C     0.83415   0.83347   0.97652   0.00000  Uiso   1.00
C1011  C     0.81340   0.78746   0.54652   0.00000  Uiso   1.00
C1012  C     0.85330   0.87919   0.95347   0.00000  Uiso   1.00
C1013  C     0.86870   0.92410   0.52459   0.00000  Uiso   1.00
C1014  C     0.79802   0.74255   0.97541   0.00000  Uiso   1.00
C1015  C     0.86967   0.92403   0.97775   0.00000  Uiso   1.00
C1016  C     0.79706   0.74262   0.52225   0.00000  Uiso   1.00
H1017  H     0.86295   0.91110   0.61358   0.00000  Uiso   1.00
H1018  H     0.80373   0.75556   0.88642   0.00000  Uiso   1.00
H1019  H     0.88319   0.95939   0.96053   0.00000  Uiso   1.00
H1020  H     0.78355   0.70726   0.53947   0.00000  Uiso   1.00
C1021  C     0.85646   0.98530   0.75039   0.00000  Uiso   1.00
C1022  C     0.81020   0.68137   0.74963   0.00000  Uiso   1.00
N1023  N     0.98344   0.81932   0.73783   0.00000  Uiso   1.00
N1024  N     0.68322   0.84735   0.76217   0.00000  Uiso   1.00
H1025  H     0.67127   0.79411   0.71623   0.00000  Uiso   1.00
H1026  H     0.99540   0.87255   0.78377   0.00000  Uiso   1.00
N1027  N     0.79349   0.74194   0.61825   0.00000  Uiso   1.00
O1028  O     0.82937   0.71930   0.64148   0.00000  Uiso   1.00
O1029  O     0.73978   0.72466   0.61928   0.00000  Uiso   1.00
N1030  N     0.87318   0.92472   0.88175   0.00000  Uiso   1.00
O1031  O     0.83727   0.94740   0.85858   0.00000  Uiso   1.00
O1032  O     0.92690   0.94196   0.88065   0.00000  Uiso   1.00
N1033  N     0.88611   0.97032   0.54900   0.00000  Uiso   1.00
H1034  H     0.92608   0.96465   0.56127   0.00000  Uiso   1.00
H1035  H     0.89262   0.66830   0.52747   0.00000  Uiso   1.00
N1036  N     0.78062   0.69633   0.95099   0.00000  Uiso   1.00
H1037  H     0.74058   0.70195   0.93882   0.00000  Uiso   1.00
H1038  H     0.77427   0.99832   0.97250   0.00000  Uiso   1.00
N1039  N     0.91400   0.67237   0.75723   0.00000  Uiso   1.00
O1040  O     0.95258   0.67489   0.72341   0.00000  Uiso   1.00
O1041  O     0.92801   0.68683   0.79735   0.00000  Uiso   1.00
N1042  N     0.75266   0.99430   0.74279   0.00000  Uiso   1.00
O1043  O     0.71410   0.99177   0.77662   0.00000  Uiso   1.00
O1044  O     0.73864   0.97985   0.70267   0.00000  Uiso   1.00
loop_
_geom_bond_atom_site_label_1
_geom_bond_atom_site_label_2
_geom_bond_distance
_geom_bond_site_symmetry_2
_ccdc_geom_bond_type
O1     C5      1.273   .     A
O1     Zn13    1.978   .     S
O2     C6      1.273   .     A
O2     Zn14    1.978   .     S
O3     C5      1.291   .     A
O3     Zn14    2.000   .     S
O4     C6      1.291   .     A
O4     Zn13    2.000   .     S
C5     C35     1.405   .     S
C6     C36     1.405   .     S
O7     C11     1.284   .     A
O7     Zn13    1.994   .     S
O8     C12     1.284   .     A
O8     Zn14    1.994   .     S
O9     Zn14    2.014   .     S
O9     C11     1.285   .     A
O10    C12     1.285   .     A
O10    Zn13    2.014   .     S
C11    C18     1.417   .     S
C12    C17     1.417   .     S
Zn13   N38     2.018   .     S
Zn14   N37     2.018   .     S
C15    C25     1.397   .     A
C15    N41     1.436   .     S
C15    C17     1.396   .     A
C16    N44     1.436   .     S
C16    C26     1.397   .     A
C16    C18     1.396   .     A
C17    C19     1.386   .     A
C18    C20     1.386   .     A
C19    H31     1.085   .     S
C19    C21     1.386   .     A
C20    C22     1.386   .     A
C20    H32     1.085   .     S
C21    C27     1.409   .     A
C21    C23     1.418   .     A
C22    C28     1.409   .     A
C22    C24     1.418   .     A
C23    C25     1.419   .     A
C23    C546    1.396   1_554 S
C24    C26     1.419   .     A
C24    C545    1.396   .     S
C25    C30     1.402   .     A
C26    C29     1.402   .     A
C27    N47     1.440   .     S
C27    C551    1.393   1_554 S
C28    N50     1.440   .     S
C28    C552    1.393   .     S
C29    H33     1.082   .     S
C29    C549    1.393   .     S
C30    H34     1.082   .     S
C30    C550    1.393   1_554 S
C35    C210    1.363   .     S
C35    N227    1.437   .     S
C36    C383    1.363   1_545 S
C36    N404    1.437   1_545 S
N37    N96     1.279   .     S
N37    H97     1.029   .     S
N38    N153    1.279   1_455 S
N38    H156    1.029   1_455 S
H39    N153    1.029   1_455 S
H40    N96     1.029   .     S
N41    O43     1.301   .     A
N41    O42     1.301   .     A
N44    O45     1.301   .     A
N44    O46     1.301   .     A
N47    H48     1.046   .     S
N47    H223    1.046   .     S
H49    N395    1.046   1_545 S
N50    H51     1.046   .     S
N50    H400    1.046   1_545 S
H52    N224    1.046   .     S
N53    O54     1.300   .     A
N53    O55     1.301   .     A
N53    C383    1.437   1_545 S
N56    O58     1.301   .     A
N56    O57     1.300   .     A
N56    C210    1.437   .     S
O59    C63     1.273   .     A
O59    Zn71    1.978   .     S
O60    C64     1.273   .     A
O60    Zn72    1.978   .     S
O61    C63     1.291   .     A
O61    Zn72    2.000   .     S
O62    C64     1.291   .     A
O62    Zn71    2.000   .     S
C63    C93     1.405   .     S
C64    C94     1.405   .     S
O65    C69     1.284   .     A
O65    Zn71    1.994   .     S
O66    C70     1.284   .     A
O66    Zn72    1.994   .     S
O67    Zn72    2.014   .     S
O67    C69     1.285   .     A
O68    C70     1.285   .     A
O68    Zn71    2.014   .     S
C69    C76     1.417   .     S
C70    C75     1.417   .     S
Zn71   N96     2.018   .     S
Zn72   N95     2.018   .     S
C73    C83     1.397   .     A
C73    N99     1.436   .     S
C73    C75     1.396   .     A
C74    N102    1.436   .     S
C74    C84     1.397   .     A
C74    C76     1.396   .     A
C75    C77     1.386   .     A
C76    C78     1.386   .     A
C77    H89     1.085   .     S
C77    C79     1.386   .     A
C78    C80     1.386   .     A
C78    H90     1.085   .     S
C79    C85     1.409   .     A
C79    C81     1.418   .     A
C80    C86     1.409   .     A
C80    C82     1.418   .     A
C81    C83     1.419   .     A
C81    C604    1.396   1_554 S
C82    C84     1.419   .     A
C82    C603    1.396   .     S
C83    C88     1.402   .     A
C84    C87     1.402   .     A
C85    N105    1.440   .     S
C85    C609    1.393   1_554 S
C86    N108    1.440   .     S
C86    C610    1.393   .     S
C87    H91     1.082   .     S
C87    C607    1.393   .     S
C88    H92     1.082   .     S
C88    C608    1.393   1_554 S
C93    C268    1.363   .     S
C93    N285    1.437   .     S
C94    C441    1.363   1_545 S
C94    N462    1.437   1_545 S
N95    N154    1.279   .     S
N95    H155    1.029   .     S
H98    N154    1.029   .     S
N99    O101    1.301   .     A
N99    O100    1.301   .     A
N102   O103    1.301   .     A
N102   O104    1.301   .     A
N105   H106    1.046   .     S
N105   H281    1.046   .     S
H107   N453    1.046   1_545 S
N108   H109    1.046   .     S
N108   H458    1.046   1_545 S
H110   N282    1.046   .     S
N111   O112    1.300   .     A
N111   O113    1.301   .     A
N111   C441    1.437   1_545 S
N114   O116    1.301   .     A
N114   O115    1.300   .     A
N114   C268    1.437   .     S
O117   C121    1.273   .     A
O117   Zn129   1.978   .     S
O118   C122    1.273   .     A
O118   Zn130   1.978   .     S
O119   C121    1.291   .     A
O119   Zn130   2.000   .     S
O120   C122    1.291   .     A
O120   Zn129   2.000   .     S
C121   C151    1.405   .     S
C122   C152    1.405   .     S
O123   C127    1.284   .     A
O123   Zn129   1.994   .     S
O124   C128    1.284   .     A
O124   Zn130   1.994   .     S
O125   Zn130   2.014   .     S
O125   C127    1.285   .     A
O126   C128    1.285   .     A
O126   Zn129   2.014   .     S
C127   C134    1.417   .     S
C128   C133    1.417   .     S
Zn129  N154    2.018   .     S
Zn130  N153    2.018   .     S
C131   C141    1.397   .     A
C131   N157    1.436   .     S
C131   C133    1.396   .     A
C132   N160    1.436   .     S
C132   C142    1.397   .     A
C132   C134    1.396   .     A
C133   C135    1.386   .     A
C134   C136    1.386   .     A
C135   H147    1.085   .     S
C135   C137    1.386   .     A
C136   C138    1.386   .     A
C136   H148    1.085   .     S
C137   C143    1.409   .     A
C137   C139    1.418   .     A
C138   C144    1.409   .     A
C138   C140    1.418   .     A
C139   C141    1.419   .     A
C139   C662    1.396   1_554 S
C140   C142    1.419   .     A
C140   C661    1.396   .     S
C141   C146    1.402   .     A
C142   C145    1.402   .     A
C143   N163    1.440   .     S
C143   C667    1.393   1_554 S
C144   N166    1.440   .     S
C144   C668    1.393   .     S
C145   H149    1.082   .     S
C145   C665    1.393   .     S
C146   H150    1.082   .     S
C146   C666    1.393   1_554 S
C151   C326    1.363   .     S
C151   N343    1.437   .     S
C152   C499    1.363   1_545 S
C152   N520    1.437   1_545 S
N153   N38     1.279   1_655 S
N153   H39     1.029   1_655 S
H156   N38     1.029   1_655 S
N157   O159    1.301   .     A
N157   O158    1.301   .     A
N160   O161    1.301   .     A
N160   O162    1.301   .     A
N163   H164    1.046   .     S
N163   H339    1.046   .     S
H165   N511    1.046   1_545 S
N166   H167    1.046   .     S
N166   H516    1.046   1_545 S
H168   N340    1.046   .     S
N169   O170    1.300   .     A
N169   O171    1.301   .     A
N169   C499    1.437   1_545 S
N172   O174    1.301   .     A
N172   O173    1.300   .     A
N172   C326    1.437   .     S
O175   C179    1.273   .     A
O175   Zn187   1.978   .     S
O176   C180    1.273   .     A
O176   Zn188   1.978   .     S
O177   C179    1.291   .     A
O177   Zn188   2.000   .     S
O178   C180    1.291   .     A
O178   Zn187   2.000   .     S
C179   C209    1.405   .     S
C180   C210    1.405   .     S
O181   C185    1.284   .     A
O181   Zn187   1.994   .     S
O182   C186    1.284   .     A
O182   Zn188   1.994   .     S
O183   Zn188   2.014   .     S
O183   C185    1.285   .     A
O184   C186    1.285   .     A
O184   Zn187   2.014   .     S
C185   C192    1.417   .     S
C186   C191    1.417   .     S
Zn187  N212    2.018   .     S
Zn188  N211    2.018   .     S
C189   C199    1.397   .     A
C189   N215    1.436   .     S
C189   C191    1.396   .     A
C190   N218    1.436   .     S
C190   C200    1.397   .     A
C190   C192    1.396   .     A
C191   C193    1.386   .     A
C192   C194    1.386   .     A
C193   H205    1.085   .     S
C193   C195    1.386   .     A
C194   C196    1.386   .     A
C194   H206    1.085   .     S
C195   C201    1.409   .     A
C195   C197    1.418   .     A
C196   C202    1.409   .     A
C196   C198    1.418   .     A
C197   C199    1.419   .     A
C197   C720    1.396   1_554 S
C198   C200    1.419   .     A
C198   C719    1.396   .     S
C199   C204    1.402   .     A
C200   C203    1.402   .     A
C201   N221    1.440   .     S
C201   C725    1.393   1_554 S
C202   N224    1.440   .     S
C202   C726    1.393   .     S
C203   H207    1.082   .     S
C203   C723    1.393   .     S
C204   H208    1.082   .     S
C204   C724    1.393   1_554 S
C209   C384    1.363   .     S
C209   N401    1.437   .     S
N211   N270    1.279   .     S
N211   H271    1.029   .     S
N212   N327    1.279   1_455 S
N212   H330    1.029   1_455 S
H213   N327    1.029   1_455 S
H214   N270    1.029   .     S
N215   O217    1.301   .     A
N215   O216    1.301   .     A
N218   O219    1.301   .     A
N218   O220    1.301   .     A
N221   H222    1.046   .     S
N221   H397    1.046   .     S
N224   H225    1.046   .     S
H226   N398    1.046   .     S
N227   O228    1.300   .     A
N227   O229    1.301   .     A
N230   O232    1.301   .     A
N230   O231    1.300   .     A
N230   C384    1.437   .     S
O233   C237    1.273   .     A
O233   Zn245   1.978   .     S
O234   C238    1.273   .     A
O234   Zn246   1.978   .     S
O235   C237    1.291   .     A
O235   Zn246   2.000   .     S
O236   C238    1.291   .     A
O236   Zn245   2.000   .     S
C237   C267    1.405   .     S
C238   C268    1.405   .     S
O239   C243    1.284   .     A
O239   Zn245   1.994   .     S
O240   C244    1.284   .     A
O240   Zn246   1.994   .     S
O241   Zn246   2.014   .     S
O241   C243    1.285   .     A
O242   C244    1.285   .     A
O242   Zn245   2.014   .     S
C243   C250    1.417   .     S
C244   C249    1.417   .     S
Zn245  N270    2.018   .     S
Zn246  N269    2.018   .     S
C247   C257    1.397   .     A
C247   N273    1.436   .     S
C247   C249    1.396   .     A
C248   N276    1.436   .     S
C248   C258    1.397   .     A
C248   C250    1.396   .     A
C249   C251    1.386   .     A
C250   C252    1.386   .     A
C251   H263    1.085   .     S
C251   C253    1.386   .     A
C252   C254    1.386   .     A
C252   H264    1.085   .     S
C253   C259    1.409   .     A
C253   C255    1.418   .     A
C254   C260    1.409   .     A
C254   C256    1.418   .     A
C255   C257    1.419   .     A
C255   C778    1.396   1_554 S
C256   C258    1.419   .     A
C256   C777    1.396   .     S
C257   C262    1.402   .     A
C258   C261    1.402   .     A
C259   N279    1.440   .     S
C259   C783    1.393   1_554 S
C260   N282    1.440   .     S
C260   C784    1.393   .     S
C261   H265    1.082   .     S
C261   C781    1.393   .     S
C262   H266    1.082   .     S
C262   C782    1.393   1_554 S
C267   C442    1.363   .     S
C267   N459    1.437   .     S
N269   N328    1.279   .     S
N269   H329    1.029   .     S
H272   N328    1.029   .     S
N273   O275    1.301   .     A
N273   O274    1.301   .     A
N276   O277    1.301   .     A
N276   O278    1.301   .     A
N279   H280    1.046   .     S
N279   H455    1.046   .     S
N282   H283    1.046   .     S
H284   N456    1.046   .     S
N285   O286    1.300   .     A
N285   O287    1.301   .     A
N288   O290    1.301   .     A
N288   O289    1.300   .     A
N288   C442    1.437   .     S
O291   C295    1.273   .     A
O291   Zn303   1.978   .     S
O292   C296    1.273   .     A
O292   Zn304   1.978   .     S
O293   C295    1.291   .     A
O293   Zn304   2.000   .     S
O294   C296    1.291   .     A
O294   Zn303   2.000   .     S
C295   C325    1.405   .     S
C296   C326    1.405   .     S
O297   C301    1.284   .     A
O297   Zn303   1.994   .     S
O298   C302    1.284   .     A
O298   Zn304   1.994   .     S
O299   Zn304   2.014   .     S
O299   C301    1.285   .     A
O300   C302    1.285   .     A
O300   Zn303   2.014   .     S
C301   C308    1.417   .     S
C302   C307    1.417   .     S
Zn303  N328    2.018   .     S
Zn304  N327    2.018   .     S
C305   C315    1.397   .     A
C305   N331    1.436   .     S
C305   C307    1.396   .     A
C306   N334    1.436   .     S
C306   C316    1.397   .     A
C306   C308    1.396   .     A
C307   C309    1.386   .     A
C308   C310    1.386   .     A
C309   H321    1.085   .     S
C309   C311    1.386   .     A
C310   C312    1.386   .     A
C310   H322    1.085   .     S
C311   C317    1.409   .     A
C311   C313    1.418   .     A
C312   C318    1.409   .     A
C312   C314    1.418   .     A
C313   C315    1.419   .     A
C313   C836    1.396   1_554 S
C314   C316    1.419   .     A
C314   C835    1.396   .     S
C315   C320    1.402   .     A
C316   C319    1.402   .     A
C317   N337    1.440   .     S
C317   C841    1.393   1_554 S
C318   N340    1.440   .     S
C318   C842    1.393   .     S
C319   H323    1.082   .     S
C319   C839    1.393   .     S
C320   H324    1.082   .     S
C320   C840    1.393   1_554 S
C325   C500    1.363   .     S
C325   N517    1.437   .     S
N327   N212    1.279   1_655 S
N327   H213    1.029   1_655 S
H330   N212    1.029   1_655 S
N331   O333    1.301   .     A
N331   O332    1.301   .     A
N334   O335    1.301   .     A
N334   O336    1.301   .     A
N337   H338    1.046   .     S
N337   H513    1.046   .     S
N340   H341    1.046   .     S
H342   N514    1.046   .     S
N343   O344    1.300   .     A
N343   O345    1.301   .     A
N346   O348    1.301   .     A
N346   O347    1.300   .     A
N346   C500    1.437   .     S
O349   C353    1.273   .     A
O349   Zn361   1.978   .     S
O350   C354    1.273   .     A
O350   Zn362   1.978   .     S
O351   C353    1.291   .     A
O351   Zn362   2.000   .     S
O352   C354    1.291   .     A
O352   Zn361   2.000   .     S
C353   C383    1.405   .     S
C354   C384    1.405   .     S
O355   C359    1.284   .     A
O355   Zn361   1.994   .     S
O356   C360    1.284   .     A
O356   Zn362   1.994   .     S
O357   Zn362   2.014   .     S
O357   C359    1.285   .     A
O358   C360    1.285   .     A
O358   Zn361   2.014   .     S
C359   C366    1.417   .     S
C360   C365    1.417   .     S
Zn361  N386    2.018   .     S
Zn362  N385    2.018   .     S
C363   C373    1.397   .     A
C363   N389    1.436   .     S
C363   C365    1.396   .     A
C364   N392    1.436   .     S
C364   C374    1.397   .     A
C364   C366    1.396   .     A
C365   C367    1.386   .     A
C366   C368    1.386   .     A
C367   H379    1.085   .     S
C367   C369    1.386   .     A
C368   C370    1.386   .     A
C368   H380    1.085   .     S
C369   C375    1.409   .     A
C369   C371    1.418   .     A
C370   C376    1.409   .     A
C370   C372    1.418   .     A
C371   C373    1.419   .     A
C371   C894    1.396   1_554 S
C372   C374    1.419   .     A
C372   C893    1.396   .     S
C373   C378    1.402   .     A
C374   C377    1.402   .     A
C375   N395    1.440   .     S
C375   C899    1.393   1_554 S
C376   N398    1.440   .     S
C376   C900    1.393   .     S
C377   H381    1.082   .     S
C377   C897    1.393   .     S
C378   H382    1.082   .     S
C378   C898    1.393   1_554 S
C383   C36     1.363   1_565 S
C383   N53     1.437   1_565 S
N385   N444    1.279   .     S
N385   H445    1.029   .     S
N386   N501    1.279   1_455 S
N386   H504    1.029   1_455 S
H387   N501    1.029   1_455 S
H388   N444    1.029   .     S
N389   O391    1.301   .     A
N389   O390    1.301   .     A
N392   O393    1.301   .     A
N392   O394    1.301   .     A
N395   H396    1.046   .     S
N395   H49     1.046   1_565 S
N398   H399    1.046   .     S
H400   N50     1.046   1_565 S
N401   O402    1.300   .     A
N401   O403    1.301   .     A
N404   O406    1.301   .     A
N404   O405    1.300   .     A
N404   C36     1.437   1_565 S
O407   C411    1.273   .     A
O407   Zn419   1.978   .     S
O408   C412    1.273   .     A
O408   Zn420   1.978   .     S
O409   C411    1.291   .     A
O409   Zn420   2.000   .     S
O410   C412    1.291   .     A
O410   Zn419   2.000   .     S
C411   C441    1.405   .     S
C412   C442    1.405   .     S
O413   C417    1.284   .     A
O413   Zn419   1.994   .     S
O414   C418    1.284   .     A
O414   Zn420   1.994   .     S
O415   Zn420   2.014   .     S
O415   C417    1.285   .     A
O416   C418    1.285   .     A
O416   Zn419   2.014   .     S
C417   C424    1.417   .     S
C418   C423    1.417   .     S
Zn419  N444    2.018   .     S
Zn420  N443    2.018   .     S
C421   C431    1.397   .     A
C421   N447    1.436   .     S
C421   C423    1.396   .     A
C422   N450    1.436   .     S
C422   C432    1.397   .     A
C422   C424    1.396   .     A
C423   C425    1.386   .     A
C424   C426    1.386   .     A
C425   H437    1.085   .     S
C425   C427    1.386   .     A
C426   C428    1.386   .     A
C426   H438    1.085   .     S
C427   C433    1.409   .     A
C427   C429    1.418   .     A
C428   C434    1.409   .     A
C428   C430    1.418   .     A
C429   C431    1.419   .     A
C429   C952    1.396   1_554 S
C430   C432    1.419   .     A
C430   C951    1.396   .     S
C431   C436    1.402   .     A
C432   C435    1.402   .     A
C433   N453    1.440   .     S
C433   C957    1.393   1_554 S
C434   N456    1.440   .     S
C434   C958    1.393   .     S
C435   H439    1.082   .     S
C435   C955    1.393   .     S
C436   H440    1.082   .     S
C436   C956    1.393   1_554 S
C441   C94     1.363   1_565 S
C441   N111    1.437   1_565 S
N443   N502    1.279   .     S
N443   H503    1.029   .     S
H446   N502    1.029   .     S
N447   O449    1.301   .     A
N447   O448    1.301   .     A
N450   O451    1.301   .     A
N450   O452    1.301   .     A
N453   H454    1.046   .     S
N453   H107    1.046   1_565 S
N456   H457    1.046   .     S
H458   N108    1.046   1_565 S
N459   O460    1.300   .     A
N459   O461    1.301   .     A
N462   O464    1.301   .     A
N462   O463    1.300   .     A
N462   C94     1.437   1_565 S
O465   C469    1.273   .     A
O465   Zn477   1.978   .     S
O466   C470    1.273   .     A
O466   Zn478   1.978   .     S
O467   C469    1.291   .     A
O467   Zn478   2.000   .     S
O468   C470    1.291   .     A
O468   Zn477   2.000   .     S
C469   C499    1.405   .     S
C470   C500    1.405   .     S
O471   C475    1.284   .     A
O471   Zn477   1.994   .     S
O472   C476    1.284   .     A
O472   Zn478   1.994   .     S
O473   Zn478   2.014   .     S
O473   C475    1.285   .     A
O474   C476    1.285   .     A
O474   Zn477   2.014   .     S
C475   C482    1.417   .     S
C476   C481    1.417   .     S
Zn477  N502    2.018   .     S
Zn478  N501    2.018   .     S
C479   C489    1.397   .     A
C479   N505    1.436   .     S
C479   C481    1.396   .     A
C480   N508    1.436   .     S
C480   C490    1.397   .     A
C480   C482    1.396   .     A
C481   C483    1.386   .     A
C482   C484    1.386   .     A
C483   H495    1.085   .     S
C483   C485    1.386   .     A
C484   C486    1.386   .     A
C484   H496    1.085   .     S
C485   C491    1.409   .     A
C485   C487    1.418   .     A
C486   C492    1.409   .     A
C486   C488    1.418   .     A
C487   C489    1.419   .     A
C487   C1010   1.396   1_554 S
C488   C490    1.419   .     A
C488   C1009   1.396   .     S
C489   C494    1.402   .     A
C490   C493    1.402   .     A
C491   N511    1.440   .     S
C491   C1015   1.393   1_554 S
C492   N514    1.440   .     S
C492   C1016   1.393   .     S
C493   H497    1.082   .     S
C493   C1013   1.393   .     S
C494   H498    1.082   .     S
C494   C1014   1.393   1_554 S
C499   C152    1.363   1_565 S
C499   N169    1.437   1_565 S
N501   N386    1.279   1_655 S
N501   H387    1.029   1_655 S
H504   N386    1.029   1_655 S
N505   O507    1.301   .     A
N505   O506    1.301   .     A
N508   O509    1.301   .     A
N508   O510    1.301   .     A
N511   H512    1.046   .     S
N511   H165    1.046   1_565 S
N514   H515    1.046   .     S
H516   N166    1.046   1_565 S
N517   O518    1.300   .     A
N517   O519    1.301   .     A
N520   O522    1.301   .     A
N520   O521    1.300   .     A
N520   C152    1.437   1_565 S
O523   C527    1.273   .     A
O523   Zn535   1.978   .     S
O524   C528    1.273   .     A
O524   Zn536   1.978   .     S
O525   C527    1.291   .     A
O525   Zn536   2.000   .     S
O526   C528    1.291   .     A
O526   Zn535   2.000   .     S
C527   C557    1.405   .     S
C528   C558    1.405   .     S
O529   C533    1.284   .     A
O529   Zn535   1.994   .     S
O530   C534    1.284   .     A
O530   Zn536   1.994   .     S
O531   Zn536   2.014   .     S
O531   C533    1.285   .     A
O532   C534    1.285   .     A
O532   Zn535   2.014   .     S
C533   C540    1.417   .     S
C534   C539    1.417   .     S
Zn535  N560    2.018   .     S
Zn536  N559    2.018   .     S
C537   C547    1.397   .     A
C537   N563    1.436   .     S
C537   C539    1.396   .     A
C538   N566    1.436   .     S
C538   C548    1.397   .     A
C538   C540    1.396   .     A
C539   C541    1.386   .     A
C540   C542    1.386   .     A
C541   H553    1.085   .     S
C541   C543    1.386   .     A
C542   C544    1.386   .     A
C542   H554    1.085   .     S
C543   C549    1.409   .     A
C543   C545    1.418   .     A
C544   C550    1.409   .     A
C544   C546    1.418   .     A
C545   C547    1.419   .     A
C546   C548    1.419   .     A
C546   C23     1.396   1_556 S
C547   C552    1.402   .     A
C548   C551    1.402   .     A
C549   N569    1.440   .     S
C550   N572    1.440   .     S
C550   C30     1.393   1_556 S
C551   H555    1.082   .     S
C551   C27     1.393   1_556 S
C552   H556    1.082   .     S
C557   C732    1.363   .     S
C557   N749    1.437   .     S
C558   C905    1.363   1_545 S
C558   N926    1.437   1_545 S
N559   N618    1.279   .     S
N559   H619    1.029   .     S
N560   N675    1.279   1_455 S
N560   H678    1.029   1_455 S
H561   N675    1.029   1_455 S
H562   N618    1.029   .     S
N563   O565    1.301   .     A
N563   O564    1.301   .     A
N566   O567    1.301   .     A
N566   O568    1.301   .     A
N569   H570    1.046   .     S
N569   H745    1.046   .     S
H571   N917    1.046   1_545 S
N572   H573    1.046   .     S
N572   H922    1.046   1_545 S
H574   N746    1.046   .     S
N575   O576    1.300   .     A
N575   O577    1.301   .     A
N575   C905    1.437   1_545 S
N578   O580    1.301   .     A
N578   O579    1.300   .     A
N578   C732    1.437   .     S
O581   C585    1.273   .     A
O581   Zn593   1.978   .     S
O582   C586    1.273   .     A
O582   Zn594   1.978   .     S
O583   C585    1.291   .     A
O583   Zn594   2.000   .     S
O584   C586    1.291   .     A
O584   Zn593   2.000   .     S
C585   C615    1.405   .     S
C586   C616    1.405   .     S
O587   C591    1.284   .     A
O587   Zn593   1.994   .     S
O588   C592    1.284   .     A
O588   Zn594   1.994   .     S
O589   Zn594   2.014   .     S
O589   C591    1.285   .     A
O590   C592    1.285   .     A
O590   Zn593   2.014   .     S
C591   C598    1.417   .     S
C592   C597    1.417   .     S
Zn593  N618    2.018   .     S
Zn594  N617    2.018   .     S
C595   C605    1.397   .     A
C595   N621    1.436   .     S
C595   C597    1.396   .     A
C596   N624    1.436   .     S
C596   C606    1.397   .     A
C596   C598    1.396   .     A
C597   C599    1.386   .     A
C598   C600    1.386   .     A
C599   H611    1.085   .     S
C599   C601    1.386   .     A
C600   C602    1.386   .     A
C600   H612    1.085   .     S
C601   C607    1.409   .     A
C601   C603    1.418   .     A
C602   C608    1.409   .     A
C602   C604    1.418   .     A
C603   C605    1.419   .     A
C604   C606    1.419   .     A
C604   C81     1.396   1_556 S
C605   C610    1.402   .     A
C606   C609    1.402   .     A
C607   N627    1.440   .     S
C608   N630    1.440   .     S
C608   C88     1.393   1_556 S
C609   H613    1.082   .     S
C609   C85     1.393   1_556 S
C610   H614    1.082   .     S
C615   C790    1.363   .     S
C615   N807    1.437   .     S
C616   C963    1.363   1_545 S
C616   N984    1.437   1_545 S
N617   N676    1.279   .     S
N617   H677    1.029   .     S
H620   N676    1.029   .     S
N621   O623    1.301   .     A
N621   O622    1.301   .     A
N624   O625    1.301   .     A
N624   O626    1.301   .     A
N627   H628    1.046   .     S
N627   H803    1.046   .     S
H629   N975    1.046   1_545 S
N630   H631    1.046   .     S
N630   H980    1.046   1_545 S
H632   N804    1.046   .     S
N633   O634    1.300   .     A
N633   O635    1.301   .     A
N633   C963    1.437   1_545 S
N636   O638    1.301   .     A
N636   O637    1.300   .     A
N636   C790    1.437   .     S
O639   C643    1.273   .     A
O639   Zn651   1.978   .     S
O640   C644    1.273   .     A
O640   Zn652   1.978   .     S
O641   C643    1.291   .     A
O641   Zn652   2.000   .     S
O642   C644    1.291   .     A
O642   Zn651   2.000   .     S
C643   C673    1.405   .     S
C644   C674    1.405   .     S
O645   C649    1.284   .     A
O645   Zn651   1.994   .     S
O646   C650    1.284   .     A
O646   Zn652   1.994   .     S
O647   Zn652   2.014   .     S
O647   C649    1.285   .     A
O648   C650    1.285   .     A
O648   Zn651   2.014   .     S
C649   C656    1.417   .     S
C650   C655    1.417   .     S
Zn651  N676    2.018   .     S
Zn652  N675    2.018   .     S
C653   C663    1.397   .     A
C653   N679    1.436   .     S
C653   C655    1.396   .     A
C654   N682    1.436   .     S
C654   C664    1.397   .     A
C654   C656    1.396   .     A
C655   C657    1.386   .     A
C656   C658    1.386   .     A
C657   H669    1.085   .     S
C657   C659    1.386   .     A
C658   C660    1.386   .     A
C658   H670    1.085   .     S
C659   C665    1.409   .     A
C659   C661    1.418   .     A
C660   C666    1.409   .     A
C660   C662    1.418   .     A
C661   C663    1.419   .     A
C662   C664    1.419   .     A
C662   C139    1.396   1_556 S
C663   C668    1.402   .     A
C664   C667    1.402   .     A
C665   N685    1.440   .     S
C666   N688    1.440   .     S
C666   C146    1.393   1_556 S
C667   H671    1.082   .     S
C667   C143    1.393   1_556 S
C668   H672    1.082   .     S
C673   C848    1.363   .     S
C673   N865    1.437   .     S
C674   C1021   1.363   1_545 S
C674   N1042   1.437   1_545 S
N675   N560    1.279   1_655 S
N675   H561    1.029   1_655 S
H678   N560    1.029   1_655 S
N679   O681    1.301   .     A
N679   O680    1.301   .     A
N682   O683    1.301   .     A
N682   O684    1.301   .     A
N685   H686    1.046   .     S
N685   H861    1.046   .     S
H687   N1033   1.046   1_545 S
N688   H689    1.046   .     S
N688   H1038   1.046   1_545 S
H690   N862    1.046   .     S
N691   O692    1.300   .     A
N691   O693    1.301   .     A
N691   C1021   1.437   1_545 S
N694   O696    1.301   .     A
N694   O695    1.300   .     A
N694   C848    1.437   .     S
O697   C701    1.273   .     A
O697   Zn709   1.978   .     S
O698   C702    1.273   .     A
O698   Zn710   1.978   .     S
O699   C701    1.291   .     A
O699   Zn710   2.000   .     S
O700   C702    1.291   .     A
O700   Zn709   2.000   .     S
C701   C731    1.405   .     S
C702   C732    1.405   .     S
O703   C707    1.284   .     A
O703   Zn709   1.994   .     S
O704   C708    1.284   .     A
O704   Zn710   1.994   .     S
O705   Zn710   2.014   .     S
O705   C707    1.285   .     A
O706   C708    1.285   .     A
O706   Zn709   2.014   .     S
C707   C714    1.417   .     S
C708   C713    1.417   .     S
Zn709  N734    2.018   .     S
Zn710  N733    2.018   .     S
C711   C721    1.397   .     A
C711   N737    1.436   .     S
C711   C713    1.396   .     A
C712   N740    1.436   .     S
C712   C722    1.397   .     A
C712   C714    1.396   .     A
C713   C715    1.386   .     A
C714   C716    1.386   .     A
C715   H727    1.085   .     S
C715   C717    1.386   .     A
C716   C718    1.386   .     A
C716   H728    1.085   .     S
C717   C723    1.409   .     A
C717   C719    1.418   .     A
C718   C724    1.409   .     A
C718   C720    1.418   .     A
C719   C721    1.419   .     A
C720   C722    1.419   .     A
C720   C197    1.396   1_556 S
C721   C726    1.402   .     A
C722   C725    1.402   .     A
C723   N743    1.440   .     S
C724   N746    1.440   .     S
C724   C204    1.393   1_556 S
C725   H729    1.082   .     S
C725   C201    1.393   1_556 S
C726   H730    1.082   .     S
C731   C906    1.363   .     S
C731   N923    1.437   .     S
N733   N792    1.279   .     S
N733   H793    1.029   .     S
N734   N849    1.279   1_455 S
N734   H852    1.029   1_455 S
H735   N849    1.029   1_455 S
H736   N792    1.029   .     S
N737   O739    1.301   .     A
N737   O738    1.301   .     A
N740   O741    1.301   .     A
N740   O742    1.301   .     A
N743   H744    1.046   .     S
N743   H919    1.046   .     S
N746   H747    1.046   .     S
H748   N920    1.046   .     S
N749   O750    1.300   .     A
N749   O751    1.301   .     A
N752   O754    1.301   .     A
N752   O753    1.300   .     A
N752   C906    1.437   .     S
O755   C759    1.273   .     A
O755   Zn767   1.978   .     S
O756   C760    1.273   .     A
O756   Zn768   1.978   .     S
O757   C759    1.291   .     A
O757   Zn768   2.000   .     S
O758   C760    1.291   .     A
O758   Zn767   2.000   .     S
C759   C789    1.405   .     S
C760   C790    1.405   .     S
O761   C765    1.284   .     A
O761   Zn767   1.994   .     S
O762   C766    1.284   .     A
O762   Zn768   1.994   .     S
O763   Zn768   2.014   .     S
O763   C765    1.285   .     A
O764   C766    1.285   .     A
O764   Zn767   2.014   .     S
C765   C772    1.417   .     S
C766   C771    1.417   .     S
Zn767  N792    2.018   .     S
Zn768  N791    2.018   .     S
C769   C779    1.397   .     A
C769   N795    1.436   .     S
C769   C771    1.396   .     A
C770   N798    1.436   .     S
C770   C780    1.397   .     A
C770   C772    1.396   .     A
C771   C773    1.386   .     A
C772   C774    1.386   .     A
C773   H785    1.085   .     S
C773   C775    1.386   .     A
C774   C776    1.386   .     A
C774   H786    1.085   .     S
C775   C781    1.409   .     A
C775   C777    1.418   .     A
C776   C782    1.409   .     A
C776   C778    1.418   .     A
C777   C779    1.419   .     A
C778   C780    1.419   .     A
C778   C255    1.396   1_556 S
C779   C784    1.402   .     A
C780   C783    1.402   .     A
C781   N801    1.440   .     S
C782   N804    1.440   .     S
C782   C262    1.393   1_556 S
C783   H787    1.082   .     S
C783   C259    1.393   1_556 S
C784   H788    1.082   .     S
C789   C964    1.363   .     S
C789   N981    1.437   .     S
N791   N850    1.279   .     S
N791   H851    1.029   .     S
H794   N850    1.029   .     S
N795   O797    1.301   .     A
N795   O796    1.301   .     A
N798   O799    1.301   .     A
N798   O800    1.301   .     A
N801   H802    1.046   .     S
N801   H977    1.046   .     S
N804   H805    1.046   .     S
H806   N978    1.046   .     S
N807   O808    1.300   .     A
N807   O809    1.301   .     A
N810   O812    1.301   .     A
N810   O811    1.300   .     A
N810   C964    1.437   .     S
O813   C817    1.273   .     A
O813   Zn825   1.978   .     S
O814   C818    1.273   .     A
O814   Zn826   1.978   .     S
O815   C817    1.291   .     A
O815   Zn826   2.000   .     S
O816   C818    1.291   .     A
O816   Zn825   2.000   .     S
C817   C847    1.405   .     S
C818   C848    1.405   .     S
O819   C823    1.284   .     A
O819   Zn825   1.994   .     S
O820   C824    1.284   .     A
O820   Zn826   1.994   .     S
O821   Zn826   2.014   .     S
O821   C823    1.285   .     A
O822   C824    1.285   .     A
O822   Zn825   2.014   .     S
C823   C830    1.417   .     S
C824   C829    1.417   .     S
Zn825  N850    2.018   .     S
Zn826  N849    2.018   .     S
C827   C837    1.397   .     A
C827   N853    1.436   .     S
C827   C829    1.396   .     A
C828   N856    1.436   .     S
C828   C838    1.397   .     A
C828   C830    1.396   .     A
C829   C831    1.386   .     A
C830   C832    1.386   .     A
C831   H843    1.085   .     S
C831   C833    1.386   .     A
C832   C834    1.386   .     A
C832   H844    1.085   .     S
C833   C839    1.409   .     A
C833   C835    1.418   .     A
C834   C840    1.409   .     A
C834   C836    1.418   .     A
C835   C837    1.419   .     A
C836   C838    1.419   .     A
C836   C313    1.396   1_556 S
C837   C842    1.402   .     A
C838   C841    1.402   .     A
C839   N859    1.440   .     S
C840   N862    1.440   .     S
C840   C320    1.393   1_556 S
C841   H845    1.082   .     S
C841   C317    1.393   1_556 S
C842   H846    1.082   .     S
C847   C1022   1.363   .     S
C847   N1039   1.437   .     S
N849   N734    1.279   1_655 S
N849   H735    1.029   1_655 S
H852   N734    1.029   1_655 S
N853   O855    1.301   .     A
N853   O854    1.301   .     A
N856   O857    1.301   .     A
N856   O858    1.301   .     A
N859   H860    1.046   .     S
N859   H1035   1.046   .     S
N862   H863    1.046   .     S
H864   N1036   1.046   .     S
N865   O866    1.300   .     A
N865   O867    1.301   .     A
N868   O870    1.301   .     A
N868   O869    1.300   .     A
N868   C1022   1.437   .     S
O871   C875    1.273   .     A
O871   Zn883   1.978   .     S
O872   C876    1.273   .     A
O872   Zn884   1.978   .     S
O873   C875    1.291   .     A
O873   Zn884   2.000   .     S
O874   C876    1.291   .     A
O874   Zn883   2.000   .     S
C875   C905    1.405   .     S
C876   C906    1.405   .     S
O877   C881    1.284   .     A
O877   Zn883   1.994   .     S
O878   C882    1.284   .     A
O878   Zn884   1.994   .     S
O879   Zn884   2.014   .     S
O879   C881    1.285   .     A
O880   C882    1.285   .     A
O880   Zn883   2.014   .     S
C881   C888    1.417   .     S
C882   C887    1.417   .     S
Zn883  N908    2.018   .     S
Zn884  N907    2.018   .     S
C885   C895    1.397   .     A
C885   N911    1.436   .     S
C885   C887    1.396   .     A
C886   N914    1.436   .     S
C886   C896    1.397   .     A
C886   C888    1.396   .     A
C887   C889    1.386   .     A
C888   C890    1.386   .     A
C889   H901    1.085   .     S
C889   C891    1.386   .     A
C890   C892    1.386   .     A
C890   H902    1.085   .     S
C891   C897    1.409   .     A
C891   C893    1.418   .     A
C892   C898    1.409   .     A
C892   C894    1.418   .     A
C893   C895    1.419   .     A
C894   C896    1.419   .     A
C894   C371    1.396   1_556 S
C895   C900    1.402   .     A
C896   C899    1.402   .     A
C897   N917    1.440   .     S
C898   N920    1.440   .     S
C898   C378    1.393   1_556 S
C899   H903    1.082   .     S
C899   C375    1.393   1_556 S
C900   H904    1.082   .     S
C905   C558    1.363   1_565 S
C905   N575    1.437   1_565 S
N907   N966    1.279   .     S
N907   H967    1.029   .     S
N908   N1023   1.279   1_455 S
N908   H1026   1.029   1_455 S
H909   N1023   1.029   1_455 S
H910   N966    1.029   .     S
N911   O913    1.301   .     A
N911   O912    1.301   .     A
N914   O915    1.301   .     A
N914   O916    1.301   .     A
N917   H918    1.046   .     S
N917   H571    1.046   1_565 S
N920   H921    1.046   .     S
H922   N572    1.046   1_565 S
N923   O924    1.300   .     A
N923   O925    1.301   .     A
N926   O928    1.301   .     A
N926   O927    1.300   .     A
N926   C558    1.437   1_565 S
O929   C933    1.273   .     A
O929   Zn941   1.978   .     S
O930   C934    1.273   .     A
O930   Zn942   1.978   .     S
O931   C933    1.291   .     A
O931   Zn942   2.000   .     S
O932   C934    1.291   .     A
O932   Zn941   2.000   .     S
C933   C963    1.405   .     S
C934   C964    1.405   .     S
O935   C939    1.284   .     A
O935   Zn941   1.994   .     S
O936   C940    1.284   .     A
O936   Zn942   1.994   .     S
O937   Zn942   2.014   .     S
O937   C939    1.285   .     A
O938   C940    1.285   .     A
O938   Zn941   2.014   .     S
C939   C946    1.417   .     S
C940   C945    1.417   .     S
Zn941  N966    2.018   .     S
Zn942  N965    2.018   .     S
C943   C953    1.397   .     A
C943   N969    1.436   .     S
C943   C945    1.396   .     A
C944   N972    1.436   .     S
C944   C954    1.397   .     A
C944   C946    1.396   .     A
C945   C947    1.386   .     A
C946   C948    1.386   .     A
C947   H959    1.085   .     S
C947   C949    1.386   .     A
C948   C950    1.386   .     A
C948   H960    1.085   .     S
C949   C955    1.409   .     A
C949   C951    1.418   .     A
C950   C956    1.409   .     A
C950   C952    1.418   .     A
C951   C953    1.419   .     A
C952   C954    1.419   .     A
C952   C429    1.396   1_556 S
C953   C958    1.402   .     A
C954   C957    1.402   .     A
C955   N975    1.440   .     S
C956   N978    1.440   .     S
C956   C436    1.393   1_556 S
C957   H961    1.082   .     S
C957   C433    1.393   1_556 S
C958   H962    1.082   .     S
C963   C616    1.363   1_565 S
C963   N633    1.437   1_565 S
N965   N1024   1.279   .     S
N965   H1025   1.029   .     S
H968   N1024   1.029   .     S
N969   O971    1.301   .     A
N969   O970    1.301   .     A
N972   O973    1.301   .     A
N972   O974    1.301   .     A
N975   H976    1.046   .     S
N975   H629    1.046   1_565 S
N978   H979    1.046   .     S
H980   N630    1.046   1_565 S
N981   O982    1.300   .     A
N981   O983    1.301   .     A
N984   O986    1.301   .     A
N984   O985    1.300   .     A
N984   C616    1.437   1_565 S
O987   C991    1.273   .     A
O987   Zn999   1.978   .     S
O988   C992    1.273   .     A
O988   Zn1000  1.978   .     S
O989   C991    1.291   .     A
O989   Zn1000  2.000   .     S
O990   C992    1.291   .     A
O990   Zn999   2.000   .     S
C991   C1021   1.405   .     S
C992   C1022   1.405   .     S
O993   C997    1.284   .     A
O993   Zn999   1.994   .     S
O994   C998    1.284   .     A
O994   Zn1000  1.994   .     S
O995   Zn1000  2.014   .     S
O995   C997    1.285   .     A
O996   C998    1.285   .     A
O996   Zn999   2.014   .     S
C997   C1004   1.417   .     S
C998   C1003   1.417   .     S
Zn999  N1024   2.018   .     S
Zn1000 N1023   2.018   .     S
C1001  C1011   1.397   .     A
C1001  N1027   1.436   .     S
C1001  C1003   1.396   .     A
C1002  N1030   1.436   .     S
C1002  C1012   1.397   .     A
C1002  C1004   1.396   .     A
C1003  C1005   1.386   .     A
C1004  C1006   1.386   .     A
C1005  H1017   1.085   .     S
C1005  C1007   1.386   .     A
C1006  C1008   1.386   .     A
C1006  H1018   1.085   .     S
C1007  C1013   1.409   .     A
C1007  C1009   1.418   .     A
C1008  C1014   1.409   .     A
C1008  C1010   1.418   .     A
C1009  C1011   1.419   .     A
C1010  C1012   1.419   .     A
C1010  C487    1.396   1_556 S
C1011  C1016   1.402   .     A
C1012  C1015   1.402   .     A
C1013  N1033   1.440   .     S
C1014  N1036   1.440   .     S
C1014  C494    1.393   1_556 S
C1015  H1019   1.082   .     S
C1015  C491    1.393   1_556 S
C1016  H1020   1.082   .     S
C1021  C674    1.363   1_565 S
C1021  N691    1.437   1_565 S
N1023  N908    1.279   1_655 S
N1023  H909    1.029   1_655 S
H1026  N908    1.029   1_655 S
N1027  O1029   1.301   .     A
N1027  O1028   1.301   .     A
N1030  O1031   1.301   .     A
N1030  O1032   1.301   .     A
N1033  H1034   1.046   .     S
N1033  H687    1.046   1_565 S
N1036  H1037   1.046   .     S
H1038  N688    1.046   1_565 S
N1039  O1040   1.300   .     A
N1039  O1041   1.301   .     A
N1042  O1044   1.301   .     A
N1042  O1043   1.300   .     A
N1042  C674    1.437   1_565 S
