data_str_m2_o2_o5_pcu_sym.110
_audit_creation_date              2020-01-03
_audit_creation_method            'Materials Studio'
_symmetry_space_group_name_H-M    'P1'
_symmetry_Int_Tables_number       1
_symmetry_cell_setting            triclinic
loop_
_symmetry_equiv_pos_as_xyz
  x,y,z
_cell_length_a                    30.2743
_cell_length_b                    27.9118
_cell_length_c                    27.1416
_cell_angle_alpha                 90.0157
_cell_angle_beta                  90.3750
_cell_angle_gamma                 89.9047
loop_
_atom_site_label
_atom_site_type_symbol
_atom_site_fract_x
_atom_site_fract_y
_atom_site_fract_z
_atom_site_U_iso_or_equiv
_atom_site_adp_type
_atom_site_occupancy
C1     C     0.16481   0.25002   0.16685   0.00000  Uiso   1.00
C2     C     0.27681   0.44592   0.19935   0.00000  Uiso   1.00
C3     C     0.25003   0.25000   0.07359   0.00000  Uiso   1.00
C4     C     0.25010   0.25001   0.25974   0.00000  Uiso   1.00
C5     C     0.25018   0.02617   0.16644   0.00000  Uiso   1.00
C6     C     0.25020   0.47205   0.16641   0.00000  Uiso   1.00
C7     C     0.25010   0.25001   0.02187   0.00000  Uiso   1.00
C8     C     0.25013   0.25002   0.31146   0.00000  Uiso   1.00
C9     C     0.04644   0.29121   0.18129   0.00000  Uiso   1.00
C10    C     0.45249   0.21650   0.19573   0.00000  Uiso   1.00
C11    C     0.45232   0.28426   0.13985   0.00000  Uiso   1.00
C12    C     0.33490   0.25004   0.16675   0.00000  Uiso   1.00
C13    C     0.04634   0.20865   0.15422   0.00000  Uiso   1.00
C14    C     0.09265   0.29211   0.18049   0.00000  Uiso   1.00
C15    C     0.40647   0.21715   0.19680   0.00000  Uiso   1.00
C16    C     0.40614   0.28509   0.13993   0.00000  Uiso   1.00
C17    C     0.09245   0.20791   0.15474   0.00000  Uiso   1.00
C18    C     0.11607   0.25003   0.16736   0.00000  Uiso   1.00
C19    C     0.38312   0.25039   0.16741   0.00000  Uiso   1.00
C20    C     0.02350   0.24997   0.16765   0.00000  Uiso   1.00
C21    C     0.47534   0.25013   0.16762   0.00000  Uiso   1.00
C22    C     0.28592   0.11586   0.28399   0.00000  Uiso   1.00
C23    C     0.25068   0.10313   0.21028   0.00000  Uiso   1.00
C24    C     0.20483   0.38219   0.05243   0.00000  Uiso   1.00
C25    C     0.20688   0.12122   0.05572   0.00000  Uiso   1.00
C26    C     0.29547   0.38146   0.28037   0.00000  Uiso   1.00
C27    C     0.10551   0.37192   0.16685   0.00000  Uiso   1.00
C28    C     0.38027   0.20603   0.27378   0.00000  Uiso   1.00
C29    C     0.38840   0.36363   0.12769   0.00000  Uiso   1.00
C30    C     0.11215   0.13171   0.17513   0.00000  Uiso   1.00
C31    C     0.22440   0.39511   0.13325   0.00000  Uiso   1.00
C32    C     0.24868   0.10317   0.12303   0.00000  Uiso   1.00
C33    C     0.27591   0.39508   0.19975   0.00000  Uiso   1.00
C34    C     0.24991   0.05225   0.21015   0.00000  Uiso   1.00
C35    C     0.22359   0.44597   0.13350   0.00000  Uiso   1.00
C36    C     0.24995   0.05241   0.12284   0.00000  Uiso   1.00
Cu37   Cu    0.25000   0.29821   0.16667   0.00000  Uiso   1.00
Cu38   Cu    0.25000   0.20178   0.16667   0.00000  Uiso   1.00
H39    H     0.02823   0.32243   0.19348   0.00000  Uiso   1.00
H40    H     0.31683   0.11705   0.26194   0.00000  Uiso   1.00
H41    H     0.28285   0.08073   0.30285   0.00000  Uiso   1.00
H42    H     0.19173   0.35338   0.02827   0.00000  Uiso   1.00
H43    H     0.24071   0.38580   0.04433   0.00000  Uiso   1.00
H44    H     0.18686   0.41564   0.04277   0.00000  Uiso   1.00
H45    H     0.20600   0.14380   0.02209   0.00000  Uiso   1.00
H46    H     0.18035   0.13438   0.08051   0.00000  Uiso   1.00
H47    H     0.20015   0.08373   0.04409   0.00000  Uiso   1.00
H48    H     0.25949   0.38377   0.28844   0.00000  Uiso   1.00
H49    H     0.31234   0.41541   0.29042   0.00000  Uiso   1.00
H50    H     0.47039   0.19050   0.21783   0.00000  Uiso   1.00
H51    H     0.30945   0.35287   0.30424   0.00000  Uiso   1.00
H52    H     0.10766   0.36282   0.12695   0.00000  Uiso   1.00
H53    H     0.13023   0.40031   0.17440   0.00000  Uiso   1.00
H54    H     0.07253   0.38712   0.17547   0.00000  Uiso   1.00
H55    H     0.36471   0.17975   0.29882   0.00000  Uiso   1.00
H56    H     0.41302   0.21535   0.29005   0.00000  Uiso   1.00
H57    H     0.35858   0.23825   0.27238   0.00000  Uiso   1.00
H58    H     0.38045   0.36613   0.16764   0.00000  Uiso   1.00
H59    H     0.36494   0.38737   0.10772   0.00000  Uiso   1.00
H60    H     0.42227   0.37723   0.12079   0.00000  Uiso   1.00
H61    H     0.47028   0.30952   0.11728   0.00000  Uiso   1.00
H62    H     0.13344   0.10126   0.16392   0.00000  Uiso   1.00
H63    H     0.07795   0.11786   0.17911   0.00000  Uiso   1.00
H64    H     0.12489   0.14501   0.21123   0.00000  Uiso   1.00
H65    H     0.02829   0.17704   0.14267   0.00000  Uiso   1.00
H66    H     0.24811   0.03307   0.24474   0.00000  Uiso   1.00
H67    H     0.20162   0.46506   0.10876   0.00000  Uiso   1.00
H68    H     0.25103   0.03358   0.08796   0.00000  Uiso   1.00
H69    H     0.29887   0.46495   0.22400   0.00000  Uiso   1.00
H70    H     0.28875   0.14361   0.31309   0.00000  Uiso   1.00
N71    N     0.25000   0.12934   0.16667   0.00000  Uiso   1.00
N72    N     0.25000   0.37065   0.16667   0.00000  Uiso   1.00
O73    O     0.18573   0.29071   0.16667   0.00000  Uiso   1.00
O74    O     0.19710   0.36929   0.10192   0.00000  Uiso   1.00
O75    O     0.24905   0.12550   0.07782   0.00000  Uiso   1.00
O76    O     0.30360   0.36929   0.23075   0.00000  Uiso   1.00
O77    O     0.11520   0.33220   0.19729   0.00000  Uiso   1.00
O78    O     0.38452   0.18509   0.22671   0.00000  Uiso   1.00
O79    O     0.38328   0.31655   0.10960   0.00000  Uiso   1.00
O80    O     0.11429   0.16738   0.13840   0.00000  Uiso   1.00
O81    O     0.31427   0.20928   0.16666   0.00000  Uiso   1.00
O82    O     0.31427   0.29071   0.16666   0.00000  Uiso   1.00
O83    O     0.18573   0.20928   0.16667   0.00000  Uiso   1.00
O84    O     0.25000   0.29071   0.09613   0.00000  Uiso   1.00
O85    O     0.25000   0.20929   0.23720   0.00000  Uiso   1.00
O86    O     0.25000   0.29071   0.23720   0.00000  Uiso   1.00
O87    O     0.25000   0.20929   0.09613   0.00000  Uiso   1.00
O88    O     0.24784   0.12574   0.25533   0.00000  Uiso   1.00
C89    C     0.66481   0.25002   0.16685   0.00000  Uiso   1.00
C90    C     0.77681   0.44592   0.19935   0.00000  Uiso   1.00
C91    C     0.75003   0.25000   0.07359   0.00000  Uiso   1.00
C92    C     0.75010   0.25001   0.25974   0.00000  Uiso   1.00
C93    C     0.75018   0.02617   0.16644   0.00000  Uiso   1.00
C94    C     0.75020   0.47205   0.16641   0.00000  Uiso   1.00
C95    C     0.75010   0.25001   0.02187   0.00000  Uiso   1.00
C96    C     0.75013   0.25002   0.31146   0.00000  Uiso   1.00
C97    C     0.54644   0.29121   0.18129   0.00000  Uiso   1.00
C98    C     0.95249   0.21650   0.19573   0.00000  Uiso   1.00
C99    C     0.95232   0.28426   0.13985   0.00000  Uiso   1.00
C100   C     0.83490   0.25004   0.16675   0.00000  Uiso   1.00
C101   C     0.54634   0.20865   0.15422   0.00000  Uiso   1.00
C102   C     0.59265   0.29211   0.18049   0.00000  Uiso   1.00
C103   C     0.90647   0.21715   0.19680   0.00000  Uiso   1.00
C104   C     0.90614   0.28509   0.13993   0.00000  Uiso   1.00
C105   C     0.59245   0.20791   0.15474   0.00000  Uiso   1.00
C106   C     0.61607   0.25003   0.16736   0.00000  Uiso   1.00
C107   C     0.88312   0.25039   0.16741   0.00000  Uiso   1.00
C108   C     0.52350   0.24997   0.16765   0.00000  Uiso   1.00
C109   C     0.97534   0.25013   0.16762   0.00000  Uiso   1.00
C110   C     0.78592   0.11586   0.28399   0.00000  Uiso   1.00
C111   C     0.75068   0.10313   0.21028   0.00000  Uiso   1.00
C112   C     0.70483   0.38219   0.05243   0.00000  Uiso   1.00
C113   C     0.70688   0.12122   0.05572   0.00000  Uiso   1.00
C114   C     0.79547   0.38146   0.28037   0.00000  Uiso   1.00
C115   C     0.60551   0.37192   0.16685   0.00000  Uiso   1.00
C116   C     0.88027   0.20603   0.27378   0.00000  Uiso   1.00
C117   C     0.88840   0.36363   0.12769   0.00000  Uiso   1.00
C118   C     0.61215   0.13171   0.17513   0.00000  Uiso   1.00
C119   C     0.72440   0.39511   0.13325   0.00000  Uiso   1.00
C120   C     0.74868   0.10317   0.12303   0.00000  Uiso   1.00
C121   C     0.77591   0.39508   0.19975   0.00000  Uiso   1.00
C122   C     0.74991   0.05225   0.21015   0.00000  Uiso   1.00
C123   C     0.72359   0.44597   0.13350   0.00000  Uiso   1.00
C124   C     0.74995   0.05241   0.12284   0.00000  Uiso   1.00
Cu125  Cu    0.75000   0.29821   0.16667   0.00000  Uiso   1.00
Cu126  Cu    0.75000   0.20178   0.16667   0.00000  Uiso   1.00
H127   H     0.52823   0.32243   0.19348   0.00000  Uiso   1.00
H128   H     0.81683   0.11705   0.26194   0.00000  Uiso   1.00
H129   H     0.78285   0.08073   0.30285   0.00000  Uiso   1.00
H130   H     0.69173   0.35338   0.02827   0.00000  Uiso   1.00
H131   H     0.74071   0.38580   0.04433   0.00000  Uiso   1.00
H132   H     0.68686   0.41564   0.04277   0.00000  Uiso   1.00
H133   H     0.70600   0.14380   0.02209   0.00000  Uiso   1.00
H134   H     0.68035   0.13438   0.08051   0.00000  Uiso   1.00
H135   H     0.70015   0.08373   0.04409   0.00000  Uiso   1.00
H136   H     0.75949   0.38377   0.28844   0.00000  Uiso   1.00
H137   H     0.81234   0.41541   0.29042   0.00000  Uiso   1.00
H138   H     0.97039   0.19050   0.21783   0.00000  Uiso   1.00
H139   H     0.80945   0.35287   0.30424   0.00000  Uiso   1.00
H140   H     0.60766   0.36282   0.12695   0.00000  Uiso   1.00
H141   H     0.63023   0.40031   0.17440   0.00000  Uiso   1.00
H142   H     0.57253   0.38712   0.17547   0.00000  Uiso   1.00
H143   H     0.86471   0.17975   0.29882   0.00000  Uiso   1.00
H144   H     0.91302   0.21535   0.29005   0.00000  Uiso   1.00
H145   H     0.85858   0.23825   0.27238   0.00000  Uiso   1.00
H146   H     0.88045   0.36613   0.16764   0.00000  Uiso   1.00
H147   H     0.86494   0.38737   0.10772   0.00000  Uiso   1.00
H148   H     0.92227   0.37723   0.12079   0.00000  Uiso   1.00
H149   H     0.97028   0.30952   0.11728   0.00000  Uiso   1.00
H150   H     0.63344   0.10126   0.16392   0.00000  Uiso   1.00
H151   H     0.57795   0.11786   0.17911   0.00000  Uiso   1.00
H152   H     0.62489   0.14501   0.21123   0.00000  Uiso   1.00
H153   H     0.52829   0.17704   0.14267   0.00000  Uiso   1.00
H154   H     0.74811   0.03307   0.24474   0.00000  Uiso   1.00
H155   H     0.70162   0.46506   0.10876   0.00000  Uiso   1.00
H156   H     0.75103   0.03358   0.08796   0.00000  Uiso   1.00
H157   H     0.79887   0.46495   0.22400   0.00000  Uiso   1.00
H158   H     0.78875   0.14361   0.31309   0.00000  Uiso   1.00
N159   N     0.75000   0.12934   0.16667   0.00000  Uiso   1.00
N160   N     0.75000   0.37065   0.16667   0.00000  Uiso   1.00
O161   O     0.68573   0.29071   0.16667   0.00000  Uiso   1.00
O162   O     0.69710   0.36929   0.10192   0.00000  Uiso   1.00
O163   O     0.74905   0.12550   0.07782   0.00000  Uiso   1.00
O164   O     0.80360   0.36929   0.23075   0.00000  Uiso   1.00
O165   O     0.61520   0.33220   0.19729   0.00000  Uiso   1.00
O166   O     0.88452   0.18509   0.22671   0.00000  Uiso   1.00
O167   O     0.88328   0.31655   0.10960   0.00000  Uiso   1.00
O168   O     0.61429   0.16738   0.13840   0.00000  Uiso   1.00
O169   O     0.81427   0.20928   0.16666   0.00000  Uiso   1.00
O170   O     0.81427   0.29071   0.16666   0.00000  Uiso   1.00
O171   O     0.68573   0.20928   0.16667   0.00000  Uiso   1.00
O172   O     0.75000   0.29071   0.09613   0.00000  Uiso   1.00
O173   O     0.75000   0.20929   0.23720   0.00000  Uiso   1.00
O174   O     0.75000   0.29071   0.23720   0.00000  Uiso   1.00
O175   O     0.75000   0.20929   0.09613   0.00000  Uiso   1.00
O176   O     0.74784   0.12574   0.25533   0.00000  Uiso   1.00
C177   C     0.16481   0.75002   0.16685   0.00000  Uiso   1.00
C178   C     0.27681   0.94592   0.19935   0.00000  Uiso   1.00
C179   C     0.25003   0.75000   0.07359   0.00000  Uiso   1.00
C180   C     0.25010   0.75001   0.25974   0.00000  Uiso   1.00
C181   C     0.25018   0.52617   0.16644   0.00000  Uiso   1.00
C182   C     0.25020   0.97205   0.16641   0.00000  Uiso   1.00
C183   C     0.25010   0.75001   0.02187   0.00000  Uiso   1.00
C184   C     0.25013   0.75002   0.31146   0.00000  Uiso   1.00
C185   C     0.04644   0.79121   0.18129   0.00000  Uiso   1.00
C186   C     0.45249   0.71650   0.19573   0.00000  Uiso   1.00
C187   C     0.45232   0.78426   0.13985   0.00000  Uiso   1.00
C188   C     0.33490   0.75004   0.16675   0.00000  Uiso   1.00
C189   C     0.04634   0.70865   0.15422   0.00000  Uiso   1.00
C190   C     0.09265   0.79211   0.18049   0.00000  Uiso   1.00
C191   C     0.40647   0.71715   0.19680   0.00000  Uiso   1.00
C192   C     0.40614   0.78509   0.13993   0.00000  Uiso   1.00
C193   C     0.09245   0.70791   0.15474   0.00000  Uiso   1.00
C194   C     0.11607   0.75003   0.16736   0.00000  Uiso   1.00
C195   C     0.38312   0.75039   0.16741   0.00000  Uiso   1.00
C196   C     0.02350   0.74997   0.16765   0.00000  Uiso   1.00
C197   C     0.47534   0.75013   0.16762   0.00000  Uiso   1.00
C198   C     0.28592   0.61586   0.28399   0.00000  Uiso   1.00
C199   C     0.25068   0.60313   0.21028   0.00000  Uiso   1.00
C200   C     0.20483   0.88219   0.05243   0.00000  Uiso   1.00
C201   C     0.20688   0.62122   0.05572   0.00000  Uiso   1.00
C202   C     0.29547   0.88146   0.28037   0.00000  Uiso   1.00
C203   C     0.10551   0.87192   0.16685   0.00000  Uiso   1.00
C204   C     0.38027   0.70603   0.27378   0.00000  Uiso   1.00
C205   C     0.38840   0.86363   0.12769   0.00000  Uiso   1.00
C206   C     0.11215   0.63171   0.17513   0.00000  Uiso   1.00
C207   C     0.22440   0.89511   0.13325   0.00000  Uiso   1.00
C208   C     0.24868   0.60317   0.12303   0.00000  Uiso   1.00
C209   C     0.27591   0.89508   0.19975   0.00000  Uiso   1.00
C210   C     0.24991   0.55225   0.21015   0.00000  Uiso   1.00
C211   C     0.22359   0.94597   0.13350   0.00000  Uiso   1.00
C212   C     0.24995   0.55241   0.12284   0.00000  Uiso   1.00
Cu213  Cu    0.25000   0.79821   0.16667   0.00000  Uiso   1.00
Cu214  Cu    0.25000   0.70178   0.16667   0.00000  Uiso   1.00
H215   H     0.02823   0.82243   0.19348   0.00000  Uiso   1.00
H216   H     0.31683   0.61705   0.26194   0.00000  Uiso   1.00
H217   H     0.28285   0.58073   0.30285   0.00000  Uiso   1.00
H218   H     0.19173   0.85338   0.02827   0.00000  Uiso   1.00
H219   H     0.24071   0.88580   0.04433   0.00000  Uiso   1.00
H220   H     0.18686   0.91564   0.04277   0.00000  Uiso   1.00
H221   H     0.20600   0.64380   0.02209   0.00000  Uiso   1.00
H222   H     0.18035   0.63438   0.08051   0.00000  Uiso   1.00
H223   H     0.20015   0.58373   0.04409   0.00000  Uiso   1.00
H224   H     0.25949   0.88377   0.28844   0.00000  Uiso   1.00
H225   H     0.31234   0.91541   0.29042   0.00000  Uiso   1.00
H226   H     0.47039   0.69050   0.21783   0.00000  Uiso   1.00
H227   H     0.30945   0.85287   0.30424   0.00000  Uiso   1.00
H228   H     0.10766   0.86282   0.12695   0.00000  Uiso   1.00
H229   H     0.13023   0.90031   0.17440   0.00000  Uiso   1.00
H230   H     0.07253   0.88712   0.17547   0.00000  Uiso   1.00
H231   H     0.36471   0.67975   0.29882   0.00000  Uiso   1.00
H232   H     0.41302   0.71535   0.29005   0.00000  Uiso   1.00
H233   H     0.35858   0.73825   0.27238   0.00000  Uiso   1.00
H234   H     0.38045   0.86613   0.16764   0.00000  Uiso   1.00
H235   H     0.36494   0.88737   0.10772   0.00000  Uiso   1.00
H236   H     0.42227   0.87723   0.12079   0.00000  Uiso   1.00
H237   H     0.47028   0.80952   0.11728   0.00000  Uiso   1.00
H238   H     0.13344   0.60126   0.16392   0.00000  Uiso   1.00
H239   H     0.07795   0.61786   0.17911   0.00000  Uiso   1.00
H240   H     0.12489   0.64501   0.21123   0.00000  Uiso   1.00
H241   H     0.02829   0.67704   0.14267   0.00000  Uiso   1.00
H242   H     0.24811   0.53307   0.24474   0.00000  Uiso   1.00
H243   H     0.20162   0.96506   0.10876   0.00000  Uiso   1.00
H244   H     0.25103   0.53358   0.08796   0.00000  Uiso   1.00
H245   H     0.29887   0.96495   0.22400   0.00000  Uiso   1.00
H246   H     0.28875   0.64361   0.31309   0.00000  Uiso   1.00
N247   N     0.25000   0.62934   0.16667   0.00000  Uiso   1.00
N248   N     0.25000   0.87065   0.16667   0.00000  Uiso   1.00
O249   O     0.18573   0.79071   0.16667   0.00000  Uiso   1.00
O250   O     0.19710   0.86929   0.10192   0.00000  Uiso   1.00
O251   O     0.24905   0.62550   0.07782   0.00000  Uiso   1.00
O252   O     0.30360   0.86929   0.23075   0.00000  Uiso   1.00
O253   O     0.11520   0.83220   0.19729   0.00000  Uiso   1.00
O254   O     0.38452   0.68509   0.22671   0.00000  Uiso   1.00
O255   O     0.38328   0.81655   0.10960   0.00000  Uiso   1.00
O256   O     0.11429   0.66738   0.13840   0.00000  Uiso   1.00
O257   O     0.31427   0.70928   0.16666   0.00000  Uiso   1.00
O258   O     0.31427   0.79071   0.16666   0.00000  Uiso   1.00
O259   O     0.18573   0.70928   0.16667   0.00000  Uiso   1.00
O260   O     0.25000   0.79071   0.09613   0.00000  Uiso   1.00
O261   O     0.25000   0.70929   0.23720   0.00000  Uiso   1.00
O262   O     0.25000   0.79071   0.23720   0.00000  Uiso   1.00
O263   O     0.25000   0.70929   0.09613   0.00000  Uiso   1.00
O264   O     0.24784   0.62574   0.25533   0.00000  Uiso   1.00
C265   C     0.66481   0.75002   0.16685   0.00000  Uiso   1.00
C266   C     0.77681   0.94592   0.19935   0.00000  Uiso   1.00
C267   C     0.75003   0.75000   0.07359   0.00000  Uiso   1.00
C268   C     0.75010   0.75001   0.25974   0.00000  Uiso   1.00
C269   C     0.75018   0.52617   0.16644   0.00000  Uiso   1.00
C270   C     0.75020   0.97205   0.16641   0.00000  Uiso   1.00
C271   C     0.75010   0.75001   0.02187   0.00000  Uiso   1.00
C272   C     0.75013   0.75002   0.31146   0.00000  Uiso   1.00
C273   C     0.54644   0.79121   0.18129   0.00000  Uiso   1.00
C274   C     0.95249   0.71650   0.19573   0.00000  Uiso   1.00
C275   C     0.95232   0.78426   0.13985   0.00000  Uiso   1.00
C276   C     0.83490   0.75004   0.16675   0.00000  Uiso   1.00
C277   C     0.54634   0.70865   0.15422   0.00000  Uiso   1.00
C278   C     0.59265   0.79211   0.18049   0.00000  Uiso   1.00
C279   C     0.90647   0.71715   0.19680   0.00000  Uiso   1.00
C280   C     0.90614   0.78509   0.13993   0.00000  Uiso   1.00
C281   C     0.59245   0.70791   0.15474   0.00000  Uiso   1.00
C282   C     0.61607   0.75003   0.16736   0.00000  Uiso   1.00
C283   C     0.88312   0.75039   0.16741   0.00000  Uiso   1.00
C284   C     0.52350   0.74997   0.16765   0.00000  Uiso   1.00
C285   C     0.97534   0.75013   0.16762   0.00000  Uiso   1.00
C286   C     0.78592   0.61586   0.28399   0.00000  Uiso   1.00
C287   C     0.75068   0.60313   0.21028   0.00000  Uiso   1.00
C288   C     0.70483   0.88219   0.05243   0.00000  Uiso   1.00
C289   C     0.70688   0.62122   0.05572   0.00000  Uiso   1.00
C290   C     0.79547   0.88146   0.28037   0.00000  Uiso   1.00
C291   C     0.60551   0.87192   0.16685   0.00000  Uiso   1.00
C292   C     0.88027   0.70603   0.27378   0.00000  Uiso   1.00
C293   C     0.88840   0.86363   0.12769   0.00000  Uiso   1.00
C294   C     0.61215   0.63171   0.17513   0.00000  Uiso   1.00
C295   C     0.72440   0.89511   0.13325   0.00000  Uiso   1.00
C296   C     0.74868   0.60317   0.12303   0.00000  Uiso   1.00
C297   C     0.77591   0.89508   0.19975   0.00000  Uiso   1.00
C298   C     0.74991   0.55225   0.21015   0.00000  Uiso   1.00
C299   C     0.72359   0.94597   0.13350   0.00000  Uiso   1.00
C300   C     0.74995   0.55241   0.12284   0.00000  Uiso   1.00
Cu301  Cu    0.75000   0.79821   0.16667   0.00000  Uiso   1.00
Cu302  Cu    0.75000   0.70178   0.16667   0.00000  Uiso   1.00
H303   H     0.52823   0.82243   0.19348   0.00000  Uiso   1.00
H304   H     0.81683   0.61705   0.26194   0.00000  Uiso   1.00
H305   H     0.78285   0.58073   0.30285   0.00000  Uiso   1.00
H306   H     0.69173   0.85338   0.02827   0.00000  Uiso   1.00
H307   H     0.74071   0.88580   0.04433   0.00000  Uiso   1.00
H308   H     0.68686   0.91564   0.04277   0.00000  Uiso   1.00
H309   H     0.70600   0.64380   0.02209   0.00000  Uiso   1.00
H310   H     0.68035   0.63438   0.08051   0.00000  Uiso   1.00
H311   H     0.70015   0.58373   0.04409   0.00000  Uiso   1.00
H312   H     0.75949   0.88377   0.28844   0.00000  Uiso   1.00
H313   H     0.81234   0.91541   0.29042   0.00000  Uiso   1.00
H314   H     0.97039   0.69050   0.21783   0.00000  Uiso   1.00
H315   H     0.80945   0.85287   0.30424   0.00000  Uiso   1.00
H316   H     0.60766   0.86282   0.12695   0.00000  Uiso   1.00
H317   H     0.63023   0.90031   0.17440   0.00000  Uiso   1.00
H318   H     0.57253   0.88712   0.17547   0.00000  Uiso   1.00
H319   H     0.86471   0.67975   0.29882   0.00000  Uiso   1.00
H320   H     0.91302   0.71535   0.29005   0.00000  Uiso   1.00
H321   H     0.85858   0.73825   0.27238   0.00000  Uiso   1.00
H322   H     0.88045   0.86613   0.16764   0.00000  Uiso   1.00
H323   H     0.86494   0.88737   0.10772   0.00000  Uiso   1.00
H324   H     0.92227   0.87723   0.12079   0.00000  Uiso   1.00
H325   H     0.97028   0.80952   0.11728   0.00000  Uiso   1.00
H326   H     0.63344   0.60126   0.16392   0.00000  Uiso   1.00
H327   H     0.57795   0.61786   0.17911   0.00000  Uiso   1.00
H328   H     0.62489   0.64501   0.21123   0.00000  Uiso   1.00
H329   H     0.52829   0.67704   0.14267   0.00000  Uiso   1.00
H330   H     0.74811   0.53307   0.24474   0.00000  Uiso   1.00
H331   H     0.70162   0.96506   0.10876   0.00000  Uiso   1.00
H332   H     0.75103   0.53358   0.08796   0.00000  Uiso   1.00
H333   H     0.79887   0.96495   0.22400   0.00000  Uiso   1.00
H334   H     0.78875   0.64361   0.31309   0.00000  Uiso   1.00
N335   N     0.75000   0.62934   0.16667   0.00000  Uiso   1.00
N336   N     0.75000   0.87065   0.16667   0.00000  Uiso   1.00
O337   O     0.68573   0.79071   0.16667   0.00000  Uiso   1.00
O338   O     0.69710   0.86929   0.10192   0.00000  Uiso   1.00
O339   O     0.74905   0.62550   0.07782   0.00000  Uiso   1.00
O340   O     0.80360   0.86929   0.23075   0.00000  Uiso   1.00
O341   O     0.61520   0.83220   0.19729   0.00000  Uiso   1.00
O342   O     0.88452   0.68509   0.22671   0.00000  Uiso   1.00
O343   O     0.88328   0.81655   0.10960   0.00000  Uiso   1.00
O344   O     0.61429   0.66738   0.13840   0.00000  Uiso   1.00
O345   O     0.81427   0.70928   0.16666   0.00000  Uiso   1.00
O346   O     0.81427   0.79071   0.16666   0.00000  Uiso   1.00
O347   O     0.68573   0.70928   0.16667   0.00000  Uiso   1.00
O348   O     0.75000   0.79071   0.09613   0.00000  Uiso   1.00
O349   O     0.75000   0.70929   0.23720   0.00000  Uiso   1.00
O350   O     0.75000   0.79071   0.23720   0.00000  Uiso   1.00
O351   O     0.75000   0.70929   0.09613   0.00000  Uiso   1.00
O352   O     0.74784   0.62574   0.25533   0.00000  Uiso   1.00
C353   C     0.16481   0.25002   0.50018   0.00000  Uiso   1.00
C354   C     0.27681   0.44592   0.53268   0.00000  Uiso   1.00
C355   C     0.25003   0.25000   0.40693   0.00000  Uiso   1.00
C356   C     0.25010   0.25001   0.59307   0.00000  Uiso   1.00
C357   C     0.25018   0.02617   0.49978   0.00000  Uiso   1.00
C358   C     0.25020   0.47205   0.49975   0.00000  Uiso   1.00
C359   C     0.25010   0.25001   0.35521   0.00000  Uiso   1.00
C360   C     0.25013   0.25002   0.64479   0.00000  Uiso   1.00
C361   C     0.04644   0.29121   0.51462   0.00000  Uiso   1.00
C362   C     0.45249   0.21650   0.52906   0.00000  Uiso   1.00
C363   C     0.45232   0.28426   0.47318   0.00000  Uiso   1.00
C364   C     0.33490   0.25004   0.50009   0.00000  Uiso   1.00
C365   C     0.04634   0.20865   0.48756   0.00000  Uiso   1.00
C366   C     0.09265   0.29211   0.51383   0.00000  Uiso   1.00
C367   C     0.40647   0.21715   0.53014   0.00000  Uiso   1.00
C368   C     0.40614   0.28509   0.47327   0.00000  Uiso   1.00
C369   C     0.09245   0.20791   0.48808   0.00000  Uiso   1.00
C370   C     0.11607   0.25003   0.50069   0.00000  Uiso   1.00
C371   C     0.38312   0.25039   0.50074   0.00000  Uiso   1.00
C372   C     0.02350   0.24997   0.50098   0.00000  Uiso   1.00
C373   C     0.47534   0.25013   0.50096   0.00000  Uiso   1.00
C374   C     0.28592   0.11586   0.61732   0.00000  Uiso   1.00
C375   C     0.25068   0.10313   0.54361   0.00000  Uiso   1.00
C376   C     0.20483   0.38219   0.38576   0.00000  Uiso   1.00
C377   C     0.20688   0.12122   0.38905   0.00000  Uiso   1.00
C378   C     0.29547   0.38146   0.61370   0.00000  Uiso   1.00
C379   C     0.10551   0.37192   0.50018   0.00000  Uiso   1.00
C380   C     0.38027   0.20603   0.60712   0.00000  Uiso   1.00
C381   C     0.38840   0.36363   0.46103   0.00000  Uiso   1.00
C382   C     0.11215   0.13171   0.50846   0.00000  Uiso   1.00
C383   C     0.22440   0.39511   0.46658   0.00000  Uiso   1.00
C384   C     0.24868   0.10317   0.45637   0.00000  Uiso   1.00
C385   C     0.27591   0.39508   0.53309   0.00000  Uiso   1.00
C386   C     0.24991   0.05225   0.54349   0.00000  Uiso   1.00
C387   C     0.22359   0.44597   0.46684   0.00000  Uiso   1.00
C388   C     0.24995   0.05241   0.45618   0.00000  Uiso   1.00
Cu389  Cu    0.25000   0.29821   0.50000   0.00000  Uiso   1.00
Cu390  Cu    0.25000   0.20178   0.50000   0.00000  Uiso   1.00
H391   H     0.02823   0.32243   0.52681   0.00000  Uiso   1.00
H392   H     0.31683   0.11705   0.59527   0.00000  Uiso   1.00
H393   H     0.28285   0.08073   0.63618   0.00000  Uiso   1.00
H394   H     0.19173   0.35338   0.36160   0.00000  Uiso   1.00
H395   H     0.24071   0.38580   0.37767   0.00000  Uiso   1.00
H396   H     0.18686   0.41564   0.37610   0.00000  Uiso   1.00
H397   H     0.20600   0.14380   0.35543   0.00000  Uiso   1.00
H398   H     0.18035   0.13438   0.41385   0.00000  Uiso   1.00
H399   H     0.20015   0.08373   0.37742   0.00000  Uiso   1.00
H400   H     0.25949   0.38377   0.62178   0.00000  Uiso   1.00
H401   H     0.31234   0.41541   0.62375   0.00000  Uiso   1.00
H402   H     0.47039   0.19050   0.55117   0.00000  Uiso   1.00
H403   H     0.30945   0.35287   0.63757   0.00000  Uiso   1.00
H404   H     0.10766   0.36282   0.46028   0.00000  Uiso   1.00
H405   H     0.13023   0.40031   0.50774   0.00000  Uiso   1.00
H406   H     0.07253   0.38712   0.50881   0.00000  Uiso   1.00
H407   H     0.36471   0.17975   0.63215   0.00000  Uiso   1.00
H408   H     0.41302   0.21535   0.62339   0.00000  Uiso   1.00
H409   H     0.35858   0.23825   0.60572   0.00000  Uiso   1.00
H410   H     0.38045   0.36613   0.50098   0.00000  Uiso   1.00
H411   H     0.36494   0.38737   0.44105   0.00000  Uiso   1.00
H412   H     0.42227   0.37723   0.45413   0.00000  Uiso   1.00
H413   H     0.47028   0.30952   0.45061   0.00000  Uiso   1.00
H414   H     0.13344   0.10126   0.49725   0.00000  Uiso   1.00
H415   H     0.07795   0.11786   0.51244   0.00000  Uiso   1.00
H416   H     0.12489   0.14501   0.54456   0.00000  Uiso   1.00
H417   H     0.02829   0.17704   0.47600   0.00000  Uiso   1.00
H418   H     0.24811   0.03307   0.57808   0.00000  Uiso   1.00
H419   H     0.20162   0.46506   0.44209   0.00000  Uiso   1.00
H420   H     0.25103   0.03358   0.42130   0.00000  Uiso   1.00
H421   H     0.29887   0.46495   0.55733   0.00000  Uiso   1.00
H422   H     0.28875   0.14361   0.64643   0.00000  Uiso   1.00
N423   N     0.25000   0.12934   0.50000   0.00000  Uiso   1.00
N424   N     0.25000   0.37065   0.50000   0.00000  Uiso   1.00
O425   O     0.18573   0.29071   0.50000   0.00000  Uiso   1.00
O426   O     0.19710   0.36929   0.43525   0.00000  Uiso   1.00
O427   O     0.24905   0.12550   0.41115   0.00000  Uiso   1.00
O428   O     0.30360   0.36929   0.56408   0.00000  Uiso   1.00
O429   O     0.11520   0.33220   0.53062   0.00000  Uiso   1.00
O430   O     0.38452   0.18509   0.56005   0.00000  Uiso   1.00
O431   O     0.38328   0.31655   0.44293   0.00000  Uiso   1.00
O432   O     0.11429   0.16738   0.47173   0.00000  Uiso   1.00
O433   O     0.31427   0.20928   0.50000   0.00000  Uiso   1.00
O434   O     0.31427   0.29071   0.50000   0.00000  Uiso   1.00
O435   O     0.18573   0.20928   0.50000   0.00000  Uiso   1.00
O436   O     0.25000   0.29071   0.42946   0.00000  Uiso   1.00
O437   O     0.25000   0.20929   0.57054   0.00000  Uiso   1.00
O438   O     0.25000   0.29071   0.57054   0.00000  Uiso   1.00
O439   O     0.25000   0.20929   0.42946   0.00000  Uiso   1.00
O440   O     0.24784   0.12574   0.58866   0.00000  Uiso   1.00
C441   C     0.66481   0.25002   0.50018   0.00000  Uiso   1.00
C442   C     0.77681   0.44592   0.53268   0.00000  Uiso   1.00
C443   C     0.75003   0.25000   0.40693   0.00000  Uiso   1.00
C444   C     0.75010   0.25001   0.59307   0.00000  Uiso   1.00
C445   C     0.75018   0.02617   0.49978   0.00000  Uiso   1.00
C446   C     0.75020   0.47205   0.49975   0.00000  Uiso   1.00
C447   C     0.75010   0.25001   0.35521   0.00000  Uiso   1.00
C448   C     0.75013   0.25002   0.64479   0.00000  Uiso   1.00
C449   C     0.54644   0.29121   0.51462   0.00000  Uiso   1.00
C450   C     0.95249   0.21650   0.52906   0.00000  Uiso   1.00
C451   C     0.95232   0.28426   0.47318   0.00000  Uiso   1.00
C452   C     0.83490   0.25004   0.50009   0.00000  Uiso   1.00
C453   C     0.54634   0.20865   0.48756   0.00000  Uiso   1.00
C454   C     0.59265   0.29211   0.51383   0.00000  Uiso   1.00
C455   C     0.90647   0.21715   0.53014   0.00000  Uiso   1.00
C456   C     0.90614   0.28509   0.47327   0.00000  Uiso   1.00
C457   C     0.59245   0.20791   0.48808   0.00000  Uiso   1.00
C458   C     0.61607   0.25003   0.50069   0.00000  Uiso   1.00
C459   C     0.88312   0.25039   0.50074   0.00000  Uiso   1.00
C460   C     0.52350   0.24997   0.50098   0.00000  Uiso   1.00
C461   C     0.97534   0.25013   0.50096   0.00000  Uiso   1.00
C462   C     0.78592   0.11586   0.61732   0.00000  Uiso   1.00
C463   C     0.75068   0.10313   0.54361   0.00000  Uiso   1.00
C464   C     0.70483   0.38219   0.38576   0.00000  Uiso   1.00
C465   C     0.70688   0.12122   0.38905   0.00000  Uiso   1.00
C466   C     0.79547   0.38146   0.61370   0.00000  Uiso   1.00
C467   C     0.60551   0.37192   0.50018   0.00000  Uiso   1.00
C468   C     0.88027   0.20603   0.60712   0.00000  Uiso   1.00
C469   C     0.88840   0.36363   0.46103   0.00000  Uiso   1.00
C470   C     0.61215   0.13171   0.50846   0.00000  Uiso   1.00
C471   C     0.72440   0.39511   0.46658   0.00000  Uiso   1.00
C472   C     0.74868   0.10317   0.45637   0.00000  Uiso   1.00
C473   C     0.77591   0.39508   0.53309   0.00000  Uiso   1.00
C474   C     0.74991   0.05225   0.54349   0.00000  Uiso   1.00
C475   C     0.72359   0.44597   0.46684   0.00000  Uiso   1.00
C476   C     0.74995   0.05241   0.45618   0.00000  Uiso   1.00
Cu477  Cu    0.75000   0.29821   0.50000   0.00000  Uiso   1.00
Cu478  Cu    0.75000   0.20178   0.50000   0.00000  Uiso   1.00
H479   H     0.52823   0.32243   0.52681   0.00000  Uiso   1.00
H480   H     0.81683   0.11705   0.59527   0.00000  Uiso   1.00
H481   H     0.78285   0.08073   0.63618   0.00000  Uiso   1.00
H482   H     0.69173   0.35338   0.36160   0.00000  Uiso   1.00
H483   H     0.74071   0.38580   0.37767   0.00000  Uiso   1.00
H484   H     0.68686   0.41564   0.37610   0.00000  Uiso   1.00
H485   H     0.70600   0.14380   0.35543   0.00000  Uiso   1.00
H486   H     0.68035   0.13438   0.41385   0.00000  Uiso   1.00
H487   H     0.70015   0.08373   0.37742   0.00000  Uiso   1.00
H488   H     0.75949   0.38377   0.62178   0.00000  Uiso   1.00
H489   H     0.81234   0.41541   0.62375   0.00000  Uiso   1.00
H490   H     0.97039   0.19050   0.55117   0.00000  Uiso   1.00
H491   H     0.80945   0.35287   0.63757   0.00000  Uiso   1.00
H492   H     0.60766   0.36282   0.46028   0.00000  Uiso   1.00
H493   H     0.63023   0.40031   0.50774   0.00000  Uiso   1.00
H494   H     0.57253   0.38712   0.50881   0.00000  Uiso   1.00
H495   H     0.86471   0.17975   0.63215   0.00000  Uiso   1.00
H496   H     0.91302   0.21535   0.62339   0.00000  Uiso   1.00
H497   H     0.85858   0.23825   0.60572   0.00000  Uiso   1.00
H498   H     0.88045   0.36613   0.50098   0.00000  Uiso   1.00
H499   H     0.86494   0.38737   0.44105   0.00000  Uiso   1.00
H500   H     0.92227   0.37723   0.45413   0.00000  Uiso   1.00
H501   H     0.97028   0.30952   0.45061   0.00000  Uiso   1.00
H502   H     0.63344   0.10126   0.49725   0.00000  Uiso   1.00
H503   H     0.57795   0.11786   0.51244   0.00000  Uiso   1.00
H504   H     0.62489   0.14501   0.54456   0.00000  Uiso   1.00
H505   H     0.52829   0.17704   0.47600   0.00000  Uiso   1.00
H506   H     0.74811   0.03307   0.57808   0.00000  Uiso   1.00
H507   H     0.70162   0.46506   0.44209   0.00000  Uiso   1.00
H508   H     0.75103   0.03358   0.42130   0.00000  Uiso   1.00
H509   H     0.79887   0.46495   0.55733   0.00000  Uiso   1.00
H510   H     0.78875   0.14361   0.64643   0.00000  Uiso   1.00
N511   N     0.75000   0.12934   0.50000   0.00000  Uiso   1.00
N512   N     0.75000   0.37065   0.50000   0.00000  Uiso   1.00
O513   O     0.68573   0.29071   0.50000   0.00000  Uiso   1.00
O514   O     0.69710   0.36929   0.43525   0.00000  Uiso   1.00
O515   O     0.74905   0.12550   0.41115   0.00000  Uiso   1.00
O516   O     0.80360   0.36929   0.56408   0.00000  Uiso   1.00
O517   O     0.61520   0.33220   0.53062   0.00000  Uiso   1.00
O518   O     0.88452   0.18509   0.56005   0.00000  Uiso   1.00
O519   O     0.88328   0.31655   0.44293   0.00000  Uiso   1.00
O520   O     0.61429   0.16738   0.47173   0.00000  Uiso   1.00
O521   O     0.81427   0.20928   0.50000   0.00000  Uiso   1.00
O522   O     0.81427   0.29071   0.50000   0.00000  Uiso   1.00
O523   O     0.68573   0.20928   0.50000   0.00000  Uiso   1.00
O524   O     0.75000   0.29071   0.42946   0.00000  Uiso   1.00
O525   O     0.75000   0.20929   0.57054   0.00000  Uiso   1.00
O526   O     0.75000   0.29071   0.57054   0.00000  Uiso   1.00
O527   O     0.75000   0.20929   0.42946   0.00000  Uiso   1.00
O528   O     0.74784   0.12574   0.58866   0.00000  Uiso   1.00
C529   C     0.16481   0.75002   0.50018   0.00000  Uiso   1.00
C530   C     0.27681   0.94592   0.53268   0.00000  Uiso   1.00
C531   C     0.25003   0.75000   0.40693   0.00000  Uiso   1.00
C532   C     0.25010   0.75001   0.59307   0.00000  Uiso   1.00
C533   C     0.25018   0.52617   0.49978   0.00000  Uiso   1.00
C534   C     0.25020   0.97205   0.49975   0.00000  Uiso   1.00
C535   C     0.25010   0.75001   0.35521   0.00000  Uiso   1.00
C536   C     0.25013   0.75002   0.64479   0.00000  Uiso   1.00
C537   C     0.04644   0.79121   0.51462   0.00000  Uiso   1.00
C538   C     0.45249   0.71650   0.52906   0.00000  Uiso   1.00
C539   C     0.45232   0.78426   0.47318   0.00000  Uiso   1.00
C540   C     0.33490   0.75004   0.50009   0.00000  Uiso   1.00
C541   C     0.04634   0.70865   0.48756   0.00000  Uiso   1.00
C542   C     0.09265   0.79211   0.51383   0.00000  Uiso   1.00
C543   C     0.40647   0.71715   0.53014   0.00000  Uiso   1.00
C544   C     0.40614   0.78509   0.47327   0.00000  Uiso   1.00
C545   C     0.09245   0.70791   0.48808   0.00000  Uiso   1.00
C546   C     0.11607   0.75003   0.50069   0.00000  Uiso   1.00
C547   C     0.38312   0.75039   0.50074   0.00000  Uiso   1.00
C548   C     0.02350   0.74997   0.50098   0.00000  Uiso   1.00
C549   C     0.47534   0.75013   0.50096   0.00000  Uiso   1.00
C550   C     0.28592   0.61586   0.61732   0.00000  Uiso   1.00
C551   C     0.25068   0.60313   0.54361   0.00000  Uiso   1.00
C552   C     0.20483   0.88219   0.38576   0.00000  Uiso   1.00
C553   C     0.20688   0.62122   0.38905   0.00000  Uiso   1.00
C554   C     0.29547   0.88146   0.61370   0.00000  Uiso   1.00
C555   C     0.10551   0.87192   0.50018   0.00000  Uiso   1.00
C556   C     0.38027   0.70603   0.60712   0.00000  Uiso   1.00
C557   C     0.38840   0.86363   0.46103   0.00000  Uiso   1.00
C558   C     0.11215   0.63171   0.50846   0.00000  Uiso   1.00
C559   C     0.22440   0.89511   0.46658   0.00000  Uiso   1.00
C560   C     0.24868   0.60317   0.45637   0.00000  Uiso   1.00
C561   C     0.27591   0.89508   0.53309   0.00000  Uiso   1.00
C562   C     0.24991   0.55225   0.54349   0.00000  Uiso   1.00
C563   C     0.22359   0.94597   0.46684   0.00000  Uiso   1.00
C564   C     0.24995   0.55241   0.45618   0.00000  Uiso   1.00
Cu565  Cu    0.25000   0.79821   0.50000   0.00000  Uiso   1.00
Cu566  Cu    0.25000   0.70178   0.50000   0.00000  Uiso   1.00
H567   H     0.02823   0.82243   0.52681   0.00000  Uiso   1.00
H568   H     0.31683   0.61705   0.59527   0.00000  Uiso   1.00
H569   H     0.28285   0.58073   0.63618   0.00000  Uiso   1.00
H570   H     0.19173   0.85338   0.36160   0.00000  Uiso   1.00
H571   H     0.24071   0.88580   0.37767   0.00000  Uiso   1.00
H572   H     0.18686   0.91564   0.37610   0.00000  Uiso   1.00
H573   H     0.20600   0.64380   0.35543   0.00000  Uiso   1.00
H574   H     0.18035   0.63438   0.41385   0.00000  Uiso   1.00
H575   H     0.20015   0.58373   0.37742   0.00000  Uiso   1.00
H576   H     0.25949   0.88377   0.62178   0.00000  Uiso   1.00
H577   H     0.31234   0.91541   0.62375   0.00000  Uiso   1.00
H578   H     0.47039   0.69050   0.55117   0.00000  Uiso   1.00
H579   H     0.30945   0.85287   0.63757   0.00000  Uiso   1.00
H580   H     0.10766   0.86282   0.46028   0.00000  Uiso   1.00
H581   H     0.13023   0.90031   0.50774   0.00000  Uiso   1.00
H582   H     0.07253   0.88712   0.50881   0.00000  Uiso   1.00
H583   H     0.36471   0.67975   0.63215   0.00000  Uiso   1.00
H584   H     0.41302   0.71535   0.62339   0.00000  Uiso   1.00
H585   H     0.35858   0.73825   0.60572   0.00000  Uiso   1.00
H586   H     0.38045   0.86613   0.50098   0.00000  Uiso   1.00
H587   H     0.36494   0.88737   0.44105   0.00000  Uiso   1.00
H588   H     0.42227   0.87723   0.45413   0.00000  Uiso   1.00
H589   H     0.47028   0.80952   0.45061   0.00000  Uiso   1.00
H590   H     0.13344   0.60126   0.49725   0.00000  Uiso   1.00
H591   H     0.07795   0.61786   0.51244   0.00000  Uiso   1.00
H592   H     0.12489   0.64501   0.54456   0.00000  Uiso   1.00
H593   H     0.02829   0.67704   0.47600   0.00000  Uiso   1.00
H594   H     0.24811   0.53307   0.57808   0.00000  Uiso   1.00
H595   H     0.20162   0.96506   0.44209   0.00000  Uiso   1.00
H596   H     0.25103   0.53358   0.42130   0.00000  Uiso   1.00
H597   H     0.29887   0.96495   0.55733   0.00000  Uiso   1.00
H598   H     0.28875   0.64361   0.64643   0.00000  Uiso   1.00
N599   N     0.25000   0.62934   0.50000   0.00000  Uiso   1.00
N600   N     0.25000   0.87065   0.50000   0.00000  Uiso   1.00
O601   O     0.18573   0.79071   0.50000   0.00000  Uiso   1.00
O602   O     0.19710   0.86929   0.43525   0.00000  Uiso   1.00
O603   O     0.24905   0.62550   0.41115   0.00000  Uiso   1.00
O604   O     0.30360   0.86929   0.56408   0.00000  Uiso   1.00
O605   O     0.11520   0.83220   0.53062   0.00000  Uiso   1.00
O606   O     0.38452   0.68509   0.56005   0.00000  Uiso   1.00
O607   O     0.38328   0.81655   0.44293   0.00000  Uiso   1.00
O608   O     0.11429   0.66738   0.47173   0.00000  Uiso   1.00
O609   O     0.31427   0.70928   0.50000   0.00000  Uiso   1.00
O610   O     0.31427   0.79071   0.50000   0.00000  Uiso   1.00
O611   O     0.18573   0.70928   0.50000   0.00000  Uiso   1.00
O612   O     0.25000   0.79071   0.42946   0.00000  Uiso   1.00
O613   O     0.25000   0.70929   0.57054   0.00000  Uiso   1.00
O614   O     0.25000   0.79071   0.57054   0.00000  Uiso   1.00
O615   O     0.25000   0.70929   0.42946   0.00000  Uiso   1.00
O616   O     0.24784   0.62574   0.58866   0.00000  Uiso   1.00
C617   C     0.66481   0.75002   0.50018   0.00000  Uiso   1.00
C618   C     0.77681   0.94592   0.53268   0.00000  Uiso   1.00
C619   C     0.75003   0.75000   0.40693   0.00000  Uiso   1.00
C620   C     0.75010   0.75001   0.59307   0.00000  Uiso   1.00
C621   C     0.75018   0.52617   0.49978   0.00000  Uiso   1.00
C622   C     0.75020   0.97205   0.49975   0.00000  Uiso   1.00
C623   C     0.75010   0.75001   0.35521   0.00000  Uiso   1.00
C624   C     0.75013   0.75002   0.64479   0.00000  Uiso   1.00
C625   C     0.54644   0.79121   0.51462   0.00000  Uiso   1.00
C626   C     0.95249   0.71650   0.52906   0.00000  Uiso   1.00
C627   C     0.95232   0.78426   0.47318   0.00000  Uiso   1.00
C628   C     0.83490   0.75004   0.50009   0.00000  Uiso   1.00
C629   C     0.54634   0.70865   0.48756   0.00000  Uiso   1.00
C630   C     0.59265   0.79211   0.51383   0.00000  Uiso   1.00
C631   C     0.90647   0.71715   0.53014   0.00000  Uiso   1.00
C632   C     0.90614   0.78509   0.47327   0.00000  Uiso   1.00
C633   C     0.59245   0.70791   0.48808   0.00000  Uiso   1.00
C634   C     0.61607   0.75003   0.50069   0.00000  Uiso   1.00
C635   C     0.88312   0.75039   0.50074   0.00000  Uiso   1.00
C636   C     0.52350   0.74997   0.50098   0.00000  Uiso   1.00
C637   C     0.97534   0.75013   0.50096   0.00000  Uiso   1.00
C638   C     0.78592   0.61586   0.61732   0.00000  Uiso   1.00
C639   C     0.75068   0.60313   0.54361   0.00000  Uiso   1.00
C640   C     0.70483   0.88219   0.38576   0.00000  Uiso   1.00
C641   C     0.70688   0.62122   0.38905   0.00000  Uiso   1.00
C642   C     0.79547   0.88146   0.61370   0.00000  Uiso   1.00
C643   C     0.60551   0.87192   0.50018   0.00000  Uiso   1.00
C644   C     0.88027   0.70603   0.60712   0.00000  Uiso   1.00
C645   C     0.88840   0.86363   0.46103   0.00000  Uiso   1.00
C646   C     0.61215   0.63171   0.50846   0.00000  Uiso   1.00
C647   C     0.72440   0.89511   0.46658   0.00000  Uiso   1.00
C648   C     0.74868   0.60317   0.45637   0.00000  Uiso   1.00
C649   C     0.77591   0.89508   0.53309   0.00000  Uiso   1.00
C650   C     0.74991   0.55225   0.54349   0.00000  Uiso   1.00
C651   C     0.72359   0.94597   0.46684   0.00000  Uiso   1.00
C652   C     0.74995   0.55241   0.45618   0.00000  Uiso   1.00
Cu653  Cu    0.75000   0.79821   0.50000   0.00000  Uiso   1.00
Cu654  Cu    0.75000   0.70178   0.50000   0.00000  Uiso   1.00
H655   H     0.52823   0.82243   0.52681   0.00000  Uiso   1.00
H656   H     0.81683   0.61705   0.59527   0.00000  Uiso   1.00
H657   H     0.78285   0.58073   0.63618   0.00000  Uiso   1.00
H658   H     0.69173   0.85338   0.36160   0.00000  Uiso   1.00
H659   H     0.74071   0.88580   0.37767   0.00000  Uiso   1.00
H660   H     0.68686   0.91564   0.37610   0.00000  Uiso   1.00
H661   H     0.70600   0.64380   0.35543   0.00000  Uiso   1.00
H662   H     0.68035   0.63438   0.41385   0.00000  Uiso   1.00
H663   H     0.70015   0.58373   0.37742   0.00000  Uiso   1.00
H664   H     0.75949   0.88377   0.62178   0.00000  Uiso   1.00
H665   H     0.81234   0.91541   0.62375   0.00000  Uiso   1.00
H666   H     0.97039   0.69050   0.55117   0.00000  Uiso   1.00
H667   H     0.80945   0.85287   0.63757   0.00000  Uiso   1.00
H668   H     0.60766   0.86282   0.46028   0.00000  Uiso   1.00
H669   H     0.63023   0.90031   0.50774   0.00000  Uiso   1.00
H670   H     0.57253   0.88712   0.50881   0.00000  Uiso   1.00
H671   H     0.86471   0.67975   0.63215   0.00000  Uiso   1.00
H672   H     0.91302   0.71535   0.62339   0.00000  Uiso   1.00
H673   H     0.85858   0.73825   0.60572   0.00000  Uiso   1.00
H674   H     0.88045   0.86613   0.50098   0.00000  Uiso   1.00
H675   H     0.86494   0.88737   0.44105   0.00000  Uiso   1.00
H676   H     0.92227   0.87723   0.45413   0.00000  Uiso   1.00
H677   H     0.97028   0.80952   0.45061   0.00000  Uiso   1.00
H678   H     0.63344   0.60126   0.49725   0.00000  Uiso   1.00
H679   H     0.57795   0.61786   0.51244   0.00000  Uiso   1.00
H680   H     0.62489   0.64501   0.54456   0.00000  Uiso   1.00
H681   H     0.52829   0.67704   0.47600   0.00000  Uiso   1.00
H682   H     0.74811   0.53307   0.57808   0.00000  Uiso   1.00
H683   H     0.70162   0.96506   0.44209   0.00000  Uiso   1.00
H684   H     0.75103   0.53358   0.42130   0.00000  Uiso   1.00
H685   H     0.79887   0.96495   0.55733   0.00000  Uiso   1.00
H686   H     0.78875   0.64361   0.64643   0.00000  Uiso   1.00
N687   N     0.75000   0.62934   0.50000   0.00000  Uiso   1.00
N688   N     0.75000   0.87065   0.50000   0.00000  Uiso   1.00
O689   O     0.68573   0.79071   0.50000   0.00000  Uiso   1.00
O690   O     0.69710   0.86929   0.43525   0.00000  Uiso   1.00
O691   O     0.74905   0.62550   0.41115   0.00000  Uiso   1.00
O692   O     0.80360   0.86929   0.56408   0.00000  Uiso   1.00
O693   O     0.61520   0.83220   0.53062   0.00000  Uiso   1.00
O694   O     0.88452   0.68509   0.56005   0.00000  Uiso   1.00
O695   O     0.88328   0.81655   0.44293   0.00000  Uiso   1.00
O696   O     0.61429   0.66738   0.47173   0.00000  Uiso   1.00
O697   O     0.81427   0.70928   0.50000   0.00000  Uiso   1.00
O698   O     0.81427   0.79071   0.50000   0.00000  Uiso   1.00
O699   O     0.68573   0.70928   0.50000   0.00000  Uiso   1.00
O700   O     0.75000   0.79071   0.42946   0.00000  Uiso   1.00
O701   O     0.75000   0.70929   0.57054   0.00000  Uiso   1.00
O702   O     0.75000   0.79071   0.57054   0.00000  Uiso   1.00
O703   O     0.75000   0.70929   0.42946   0.00000  Uiso   1.00
O704   O     0.74784   0.62574   0.58866   0.00000  Uiso   1.00
C705   C     0.16481   0.25002   0.83351   0.00000  Uiso   1.00
C706   C     0.27681   0.44592   0.86602   0.00000  Uiso   1.00
C707   C     0.25003   0.25000   0.74026   0.00000  Uiso   1.00
C708   C     0.25010   0.25001   0.92641   0.00000  Uiso   1.00
C709   C     0.25018   0.02617   0.83311   0.00000  Uiso   1.00
C710   C     0.25020   0.47205   0.83308   0.00000  Uiso   1.00
C711   C     0.25010   0.25001   0.68854   0.00000  Uiso   1.00
C712   C     0.25013   0.25002   0.97812   0.00000  Uiso   1.00
C713   C     0.04644   0.29121   0.84796   0.00000  Uiso   1.00
C714   C     0.45249   0.21650   0.86240   0.00000  Uiso   1.00
C715   C     0.45232   0.28426   0.80652   0.00000  Uiso   1.00
C716   C     0.33490   0.25004   0.83342   0.00000  Uiso   1.00
C717   C     0.04634   0.20865   0.82089   0.00000  Uiso   1.00
C718   C     0.09265   0.29211   0.84716   0.00000  Uiso   1.00
C719   C     0.40647   0.21715   0.86347   0.00000  Uiso   1.00
C720   C     0.40614   0.28509   0.80660   0.00000  Uiso   1.00
C721   C     0.09245   0.20791   0.82141   0.00000  Uiso   1.00
C722   C     0.11607   0.25003   0.83402   0.00000  Uiso   1.00
C723   C     0.38312   0.25039   0.83408   0.00000  Uiso   1.00
C724   C     0.02350   0.24997   0.83431   0.00000  Uiso   1.00
C725   C     0.47534   0.25013   0.83429   0.00000  Uiso   1.00
C726   C     0.28592   0.11586   0.95066   0.00000  Uiso   1.00
C727   C     0.25068   0.10313   0.87694   0.00000  Uiso   1.00
C728   C     0.20483   0.38219   0.71909   0.00000  Uiso   1.00
C729   C     0.20688   0.12122   0.72238   0.00000  Uiso   1.00
C730   C     0.29547   0.38146   0.94704   0.00000  Uiso   1.00
C731   C     0.10551   0.37192   0.83351   0.00000  Uiso   1.00
C732   C     0.38027   0.20603   0.94045   0.00000  Uiso   1.00
C733   C     0.38840   0.36363   0.79436   0.00000  Uiso   1.00
C734   C     0.11215   0.13171   0.84180   0.00000  Uiso   1.00
C735   C     0.22440   0.39511   0.79992   0.00000  Uiso   1.00
C736   C     0.24868   0.10317   0.78970   0.00000  Uiso   1.00
C737   C     0.27591   0.39508   0.86642   0.00000  Uiso   1.00
C738   C     0.24991   0.05225   0.87682   0.00000  Uiso   1.00
C739   C     0.22359   0.44597   0.80017   0.00000  Uiso   1.00
C740   C     0.24995   0.05241   0.78951   0.00000  Uiso   1.00
Cu741  Cu    0.25000   0.29821   0.83333   0.00000  Uiso   1.00
Cu742  Cu    0.25000   0.20178   0.83333   0.00000  Uiso   1.00
H743   H     0.02823   0.32243   0.86014   0.00000  Uiso   1.00
H744   H     0.31683   0.11705   0.92861   0.00000  Uiso   1.00
H745   H     0.28285   0.08073   0.96952   0.00000  Uiso   1.00
H746   H     0.19173   0.35338   0.69494   0.00000  Uiso   1.00
H747   H     0.24071   0.38580   0.71100   0.00000  Uiso   1.00
H748   H     0.18686   0.41564   0.70944   0.00000  Uiso   1.00
H749   H     0.20600   0.14380   0.68876   0.00000  Uiso   1.00
H750   H     0.18035   0.13438   0.74718   0.00000  Uiso   1.00
H751   H     0.20015   0.08373   0.71075   0.00000  Uiso   1.00
H752   H     0.25949   0.38377   0.95511   0.00000  Uiso   1.00
H753   H     0.31234   0.41541   0.95708   0.00000  Uiso   1.00
H754   H     0.47039   0.19050   0.88450   0.00000  Uiso   1.00
H755   H     0.30945   0.35287   0.97090   0.00000  Uiso   1.00
H756   H     0.10766   0.36282   0.79361   0.00000  Uiso   1.00
H757   H     0.13023   0.40031   0.84107   0.00000  Uiso   1.00
H758   H     0.07253   0.38712   0.84214   0.00000  Uiso   1.00
H759   H     0.36471   0.17975   0.96549   0.00000  Uiso   1.00
H760   H     0.41302   0.21535   0.95672   0.00000  Uiso   1.00
H761   H     0.35858   0.23825   0.93905   0.00000  Uiso   1.00
H762   H     0.38045   0.36613   0.83431   0.00000  Uiso   1.00
H763   H     0.36494   0.38737   0.77438   0.00000  Uiso   1.00
H764   H     0.42227   0.37723   0.78746   0.00000  Uiso   1.00
H765   H     0.47028   0.30952   0.78394   0.00000  Uiso   1.00
H766   H     0.13344   0.10126   0.83058   0.00000  Uiso   1.00
H767   H     0.07795   0.11786   0.84578   0.00000  Uiso   1.00
H768   H     0.12489   0.14501   0.87789   0.00000  Uiso   1.00
H769   H     0.02829   0.17704   0.80934   0.00000  Uiso   1.00
H770   H     0.24811   0.03307   0.91141   0.00000  Uiso   1.00
H771   H     0.20162   0.46506   0.77542   0.00000  Uiso   1.00
H772   H     0.25103   0.03358   0.75463   0.00000  Uiso   1.00
H773   H     0.29887   0.46495   0.89067   0.00000  Uiso   1.00
H774   H     0.28875   0.14361   0.97976   0.00000  Uiso   1.00
N775   N     0.25000   0.12934   0.83333   0.00000  Uiso   1.00
N776   N     0.25000   0.37065   0.83333   0.00000  Uiso   1.00
O777   O     0.18573   0.29071   0.83334   0.00000  Uiso   1.00
O778   O     0.19710   0.36929   0.76859   0.00000  Uiso   1.00
O779   O     0.24905   0.12550   0.74449   0.00000  Uiso   1.00
O780   O     0.30360   0.36929   0.89741   0.00000  Uiso   1.00
O781   O     0.11520   0.33220   0.86396   0.00000  Uiso   1.00
O782   O     0.38452   0.18509   0.89338   0.00000  Uiso   1.00
O783   O     0.38328   0.31655   0.77626   0.00000  Uiso   1.00
O784   O     0.11429   0.16738   0.80507   0.00000  Uiso   1.00
O785   O     0.31427   0.20928   0.83333   0.00000  Uiso   1.00
O786   O     0.31427   0.29071   0.83333   0.00000  Uiso   1.00
O787   O     0.18573   0.20928   0.83334   0.00000  Uiso   1.00
O788   O     0.25000   0.29071   0.76280   0.00000  Uiso   1.00
O789   O     0.25000   0.20929   0.90387   0.00000  Uiso   1.00
O790   O     0.25000   0.29071   0.90387   0.00000  Uiso   1.00
O791   O     0.25000   0.20929   0.76280   0.00000  Uiso   1.00
O792   O     0.24784   0.12574   0.92199   0.00000  Uiso   1.00
C793   C     0.66481   0.25002   0.83351   0.00000  Uiso   1.00
C794   C     0.77681   0.44592   0.86602   0.00000  Uiso   1.00
C795   C     0.75003   0.25000   0.74026   0.00000  Uiso   1.00
C796   C     0.75010   0.25001   0.92641   0.00000  Uiso   1.00
C797   C     0.75018   0.02617   0.83311   0.00000  Uiso   1.00
C798   C     0.75020   0.47205   0.83308   0.00000  Uiso   1.00
C799   C     0.75010   0.25001   0.68854   0.00000  Uiso   1.00
C800   C     0.75013   0.25002   0.97812   0.00000  Uiso   1.00
C801   C     0.54644   0.29121   0.84796   0.00000  Uiso   1.00
C802   C     0.95249   0.21650   0.86240   0.00000  Uiso   1.00
C803   C     0.95232   0.28426   0.80652   0.00000  Uiso   1.00
C804   C     0.83490   0.25004   0.83342   0.00000  Uiso   1.00
C805   C     0.54634   0.20865   0.82089   0.00000  Uiso   1.00
C806   C     0.59265   0.29211   0.84716   0.00000  Uiso   1.00
C807   C     0.90647   0.21715   0.86347   0.00000  Uiso   1.00
C808   C     0.90614   0.28509   0.80660   0.00000  Uiso   1.00
C809   C     0.59245   0.20791   0.82141   0.00000  Uiso   1.00
C810   C     0.61607   0.25003   0.83402   0.00000  Uiso   1.00
C811   C     0.88312   0.25039   0.83408   0.00000  Uiso   1.00
C812   C     0.52350   0.24997   0.83431   0.00000  Uiso   1.00
C813   C     0.97534   0.25013   0.83429   0.00000  Uiso   1.00
C814   C     0.78592   0.11586   0.95066   0.00000  Uiso   1.00
C815   C     0.75068   0.10313   0.87694   0.00000  Uiso   1.00
C816   C     0.70483   0.38219   0.71909   0.00000  Uiso   1.00
C817   C     0.70688   0.12122   0.72238   0.00000  Uiso   1.00
C818   C     0.79547   0.38146   0.94704   0.00000  Uiso   1.00
C819   C     0.60551   0.37192   0.83351   0.00000  Uiso   1.00
C820   C     0.88027   0.20603   0.94045   0.00000  Uiso   1.00
C821   C     0.88840   0.36363   0.79436   0.00000  Uiso   1.00
C822   C     0.61215   0.13171   0.84180   0.00000  Uiso   1.00
C823   C     0.72440   0.39511   0.79992   0.00000  Uiso   1.00
C824   C     0.74868   0.10317   0.78970   0.00000  Uiso   1.00
C825   C     0.77591   0.39508   0.86642   0.00000  Uiso   1.00
C826   C     0.74991   0.05225   0.87682   0.00000  Uiso   1.00
C827   C     0.72359   0.44597   0.80017   0.00000  Uiso   1.00
C828   C     0.74995   0.05241   0.78951   0.00000  Uiso   1.00
Cu829  Cu    0.75000   0.29821   0.83333   0.00000  Uiso   1.00
Cu830  Cu    0.75000   0.20178   0.83333   0.00000  Uiso   1.00
H831   H     0.52823   0.32243   0.86014   0.00000  Uiso   1.00
H832   H     0.81683   0.11705   0.92861   0.00000  Uiso   1.00
H833   H     0.78285   0.08073   0.96952   0.00000  Uiso   1.00
H834   H     0.69173   0.35338   0.69494   0.00000  Uiso   1.00
H835   H     0.74071   0.38580   0.71100   0.00000  Uiso   1.00
H836   H     0.68686   0.41564   0.70944   0.00000  Uiso   1.00
H837   H     0.70600   0.14380   0.68876   0.00000  Uiso   1.00
H838   H     0.68035   0.13438   0.74718   0.00000  Uiso   1.00
H839   H     0.70015   0.08373   0.71075   0.00000  Uiso   1.00
H840   H     0.75949   0.38377   0.95511   0.00000  Uiso   1.00
H841   H     0.81234   0.41541   0.95708   0.00000  Uiso   1.00
H842   H     0.97039   0.19050   0.88450   0.00000  Uiso   1.00
H843   H     0.80945   0.35287   0.97090   0.00000  Uiso   1.00
H844   H     0.60766   0.36282   0.79361   0.00000  Uiso   1.00
H845   H     0.63023   0.40031   0.84107   0.00000  Uiso   1.00
H846   H     0.57253   0.38712   0.84214   0.00000  Uiso   1.00
H847   H     0.86471   0.17975   0.96549   0.00000  Uiso   1.00
H848   H     0.91302   0.21535   0.95672   0.00000  Uiso   1.00
H849   H     0.85858   0.23825   0.93905   0.00000  Uiso   1.00
H850   H     0.88045   0.36613   0.83431   0.00000  Uiso   1.00
H851   H     0.86494   0.38737   0.77438   0.00000  Uiso   1.00
H852   H     0.92227   0.37723   0.78746   0.00000  Uiso   1.00
H853   H     0.97028   0.30952   0.78394   0.00000  Uiso   1.00
H854   H     0.63344   0.10126   0.83058   0.00000  Uiso   1.00
H855   H     0.57795   0.11786   0.84578   0.00000  Uiso   1.00
H856   H     0.62489   0.14501   0.87789   0.00000  Uiso   1.00
H857   H     0.52829   0.17704   0.80934   0.00000  Uiso   1.00
H858   H     0.74811   0.03307   0.91141   0.00000  Uiso   1.00
H859   H     0.70162   0.46506   0.77542   0.00000  Uiso   1.00
H860   H     0.75103   0.03358   0.75463   0.00000  Uiso   1.00
H861   H     0.79887   0.46495   0.89067   0.00000  Uiso   1.00
H862   H     0.78875   0.14361   0.97976   0.00000  Uiso   1.00
N863   N     0.75000   0.12934   0.83333   0.00000  Uiso   1.00
N864   N     0.75000   0.37065   0.83333   0.00000  Uiso   1.00
O865   O     0.68573   0.29071   0.83334   0.00000  Uiso   1.00
O866   O     0.69710   0.36929   0.76859   0.00000  Uiso   1.00
O867   O     0.74905   0.12550   0.74449   0.00000  Uiso   1.00
O868   O     0.80360   0.36929   0.89741   0.00000  Uiso   1.00
O869   O     0.61520   0.33220   0.86396   0.00000  Uiso   1.00
O870   O     0.88452   0.18509   0.89338   0.00000  Uiso   1.00
O871   O     0.88328   0.31655   0.77626   0.00000  Uiso   1.00
O872   O     0.61429   0.16738   0.80507   0.00000  Uiso   1.00
O873   O     0.81427   0.20928   0.83333   0.00000  Uiso   1.00
O874   O     0.81427   0.29071   0.83333   0.00000  Uiso   1.00
O875   O     0.68573   0.20928   0.83334   0.00000  Uiso   1.00
O876   O     0.75000   0.29071   0.76280   0.00000  Uiso   1.00
O877   O     0.75000   0.20929   0.90387   0.00000  Uiso   1.00
O878   O     0.75000   0.29071   0.90387   0.00000  Uiso   1.00
O879   O     0.75000   0.20929   0.76280   0.00000  Uiso   1.00
O880   O     0.74784   0.12574   0.92199   0.00000  Uiso   1.00
C881   C     0.16481   0.75002   0.83351   0.00000  Uiso   1.00
C882   C     0.27681   0.94592   0.86602   0.00000  Uiso   1.00
C883   C     0.25003   0.75000   0.74026   0.00000  Uiso   1.00
C884   C     0.25010   0.75001   0.92641   0.00000  Uiso   1.00
C885   C     0.25018   0.52617   0.83311   0.00000  Uiso   1.00
C886   C     0.25020   0.97205   0.83308   0.00000  Uiso   1.00
C887   C     0.25010   0.75001   0.68854   0.00000  Uiso   1.00
C888   C     0.25013   0.75002   0.97812   0.00000  Uiso   1.00
C889   C     0.04644   0.79121   0.84796   0.00000  Uiso   1.00
C890   C     0.45249   0.71650   0.86240   0.00000  Uiso   1.00
C891   C     0.45232   0.78426   0.80652   0.00000  Uiso   1.00
C892   C     0.33490   0.75004   0.83342   0.00000  Uiso   1.00
C893   C     0.04634   0.70865   0.82089   0.00000  Uiso   1.00
C894   C     0.09265   0.79211   0.84716   0.00000  Uiso   1.00
C895   C     0.40647   0.71715   0.86347   0.00000  Uiso   1.00
C896   C     0.40614   0.78509   0.80660   0.00000  Uiso   1.00
C897   C     0.09245   0.70791   0.82141   0.00000  Uiso   1.00
C898   C     0.11607   0.75003   0.83402   0.00000  Uiso   1.00
C899   C     0.38312   0.75039   0.83408   0.00000  Uiso   1.00
C900   C     0.02350   0.74997   0.83431   0.00000  Uiso   1.00
C901   C     0.47534   0.75013   0.83429   0.00000  Uiso   1.00
C902   C     0.28592   0.61586   0.95066   0.00000  Uiso   1.00
C903   C     0.25068   0.60313   0.87694   0.00000  Uiso   1.00
C904   C     0.20483   0.88219   0.71909   0.00000  Uiso   1.00
C905   C     0.20688   0.62122   0.72238   0.00000  Uiso   1.00
C906   C     0.29547   0.88146   0.94704   0.00000  Uiso   1.00
C907   C     0.10551   0.87192   0.83351   0.00000  Uiso   1.00
C908   C     0.38027   0.70603   0.94045   0.00000  Uiso   1.00
C909   C     0.38840   0.86363   0.79436   0.00000  Uiso   1.00
C910   C     0.11215   0.63171   0.84180   0.00000  Uiso   1.00
C911   C     0.22440   0.89511   0.79992   0.00000  Uiso   1.00
C912   C     0.24868   0.60317   0.78970   0.00000  Uiso   1.00
C913   C     0.27591   0.89508   0.86642   0.00000  Uiso   1.00
C914   C     0.24991   0.55225   0.87682   0.00000  Uiso   1.00
C915   C     0.22359   0.94597   0.80017   0.00000  Uiso   1.00
C916   C     0.24995   0.55241   0.78951   0.00000  Uiso   1.00
Cu917  Cu    0.25000   0.79821   0.83333   0.00000  Uiso   1.00
Cu918  Cu    0.25000   0.70178   0.83333   0.00000  Uiso   1.00
H919   H     0.02823   0.82243   0.86014   0.00000  Uiso   1.00
H920   H     0.31683   0.61705   0.92861   0.00000  Uiso   1.00
H921   H     0.28285   0.58073   0.96952   0.00000  Uiso   1.00
H922   H     0.19173   0.85338   0.69494   0.00000  Uiso   1.00
H923   H     0.24071   0.88580   0.71100   0.00000  Uiso   1.00
H924   H     0.18686   0.91564   0.70944   0.00000  Uiso   1.00
H925   H     0.20600   0.64380   0.68876   0.00000  Uiso   1.00
H926   H     0.18035   0.63438   0.74718   0.00000  Uiso   1.00
H927   H     0.20015   0.58373   0.71075   0.00000  Uiso   1.00
H928   H     0.25949   0.88377   0.95511   0.00000  Uiso   1.00
H929   H     0.31234   0.91541   0.95708   0.00000  Uiso   1.00
H930   H     0.47039   0.69050   0.88450   0.00000  Uiso   1.00
H931   H     0.30945   0.85287   0.97090   0.00000  Uiso   1.00
H932   H     0.10766   0.86282   0.79361   0.00000  Uiso   1.00
H933   H     0.13023   0.90031   0.84107   0.00000  Uiso   1.00
H934   H     0.07253   0.88712   0.84214   0.00000  Uiso   1.00
H935   H     0.36471   0.67975   0.96549   0.00000  Uiso   1.00
H936   H     0.41302   0.71535   0.95672   0.00000  Uiso   1.00
H937   H     0.35858   0.73825   0.93905   0.00000  Uiso   1.00
H938   H     0.38045   0.86613   0.83431   0.00000  Uiso   1.00
H939   H     0.36494   0.88737   0.77438   0.00000  Uiso   1.00
H940   H     0.42227   0.87723   0.78746   0.00000  Uiso   1.00
H941   H     0.47028   0.80952   0.78394   0.00000  Uiso   1.00
H942   H     0.13344   0.60126   0.83058   0.00000  Uiso   1.00
H943   H     0.07795   0.61786   0.84578   0.00000  Uiso   1.00
H944   H     0.12489   0.64501   0.87789   0.00000  Uiso   1.00
H945   H     0.02829   0.67704   0.80934   0.00000  Uiso   1.00
H946   H     0.24811   0.53307   0.91141   0.00000  Uiso   1.00
H947   H     0.20162   0.96506   0.77542   0.00000  Uiso   1.00
H948   H     0.25103   0.53358   0.75463   0.00000  Uiso   1.00
H949   H     0.29887   0.96495   0.89067   0.00000  Uiso   1.00
H950   H     0.28875   0.64361   0.97976   0.00000  Uiso   1.00
N951   N     0.25000   0.62934   0.83333   0.00000  Uiso   1.00
N952   N     0.25000   0.87065   0.83333   0.00000  Uiso   1.00
O953   O     0.18573   0.79071   0.83334   0.00000  Uiso   1.00
O954   O     0.19710   0.86929   0.76859   0.00000  Uiso   1.00
O955   O     0.24905   0.62550   0.74449   0.00000  Uiso   1.00
O956   O     0.30360   0.86929   0.89741   0.00000  Uiso   1.00
O957   O     0.11520   0.83220   0.86396   0.00000  Uiso   1.00
O958   O     0.38452   0.68509   0.89338   0.00000  Uiso   1.00
O959   O     0.38328   0.81655   0.77626   0.00000  Uiso   1.00
O960   O     0.11429   0.66738   0.80507   0.00000  Uiso   1.00
O961   O     0.31427   0.70928   0.83333   0.00000  Uiso   1.00
O962   O     0.31427   0.79071   0.83333   0.00000  Uiso   1.00
O963   O     0.18573   0.70928   0.83334   0.00000  Uiso   1.00
O964   O     0.25000   0.79071   0.76280   0.00000  Uiso   1.00
O965   O     0.25000   0.70929   0.90387   0.00000  Uiso   1.00
O966   O     0.25000   0.79071   0.90387   0.00000  Uiso   1.00
O967   O     0.25000   0.70929   0.76280   0.00000  Uiso   1.00
O968   O     0.24784   0.62574   0.92199   0.00000  Uiso   1.00
C969   C     0.66481   0.75002   0.83351   0.00000  Uiso   1.00
C970   C     0.77681   0.94592   0.86602   0.00000  Uiso   1.00
C971   C     0.75003   0.75000   0.74026   0.00000  Uiso   1.00
C972   C     0.75010   0.75001   0.92641   0.00000  Uiso   1.00
C973   C     0.75018   0.52617   0.83311   0.00000  Uiso   1.00
C974   C     0.75020   0.97205   0.83308   0.00000  Uiso   1.00
C975   C     0.75010   0.75001   0.68854   0.00000  Uiso   1.00
C976   C     0.75013   0.75002   0.97812   0.00000  Uiso   1.00
C977   C     0.54644   0.79121   0.84796   0.00000  Uiso   1.00
C978   C     0.95249   0.71650   0.86240   0.00000  Uiso   1.00
C979   C     0.95232   0.78426   0.80652   0.00000  Uiso   1.00
C980   C     0.83490   0.75004   0.83342   0.00000  Uiso   1.00
C981   C     0.54634   0.70865   0.82089   0.00000  Uiso   1.00
C982   C     0.59265   0.79211   0.84716   0.00000  Uiso   1.00
C983   C     0.90647   0.71715   0.86347   0.00000  Uiso   1.00
C984   C     0.90614   0.78509   0.80660   0.00000  Uiso   1.00
C985   C     0.59245   0.70791   0.82141   0.00000  Uiso   1.00
C986   C     0.61607   0.75003   0.83402   0.00000  Uiso   1.00
C987   C     0.88312   0.75039   0.83408   0.00000  Uiso   1.00
C988   C     0.52350   0.74997   0.83431   0.00000  Uiso   1.00
C989   C     0.97534   0.75013   0.83429   0.00000  Uiso   1.00
C990   C     0.78592   0.61586   0.95066   0.00000  Uiso   1.00
C991   C     0.75068   0.60313   0.87694   0.00000  Uiso   1.00
C992   C     0.70483   0.88219   0.71909   0.00000  Uiso   1.00
C993   C     0.70688   0.62122   0.72238   0.00000  Uiso   1.00
C994   C     0.79547   0.88146   0.94704   0.00000  Uiso   1.00
C995   C     0.60551   0.87192   0.83351   0.00000  Uiso   1.00
C996   C     0.88027   0.70603   0.94045   0.00000  Uiso   1.00
C997   C     0.88840   0.86363   0.79436   0.00000  Uiso   1.00
C998   C     0.61215   0.63171   0.84180   0.00000  Uiso   1.00
C999   C     0.72440   0.89511   0.79992   0.00000  Uiso   1.00
C1000  C     0.74868   0.60317   0.78970   0.00000  Uiso   1.00
C1001  C     0.77591   0.89508   0.86642   0.00000  Uiso   1.00
C1002  C     0.74991   0.55225   0.87682   0.00000  Uiso   1.00
C1003  C     0.72359   0.94597   0.80017   0.00000  Uiso   1.00
C1004  C     0.74995   0.55241   0.78951   0.00000  Uiso   1.00
Cu1005 Cu    0.75000   0.79821   0.83333   0.00000  Uiso   1.00
Cu1006 Cu    0.75000   0.70178   0.83333   0.00000  Uiso   1.00
H1007  H     0.52823   0.82243   0.86014   0.00000  Uiso   1.00
H1008  H     0.81683   0.61705   0.92861   0.00000  Uiso   1.00
H1009  H     0.78285   0.58073   0.96952   0.00000  Uiso   1.00
H1010  H     0.69173   0.85338   0.69494   0.00000  Uiso   1.00
H1011  H     0.74071   0.88580   0.71100   0.00000  Uiso   1.00
H1012  H     0.68686   0.91564   0.70944   0.00000  Uiso   1.00
H1013  H     0.70600   0.64380   0.68876   0.00000  Uiso   1.00
H1014  H     0.68035   0.63438   0.74718   0.00000  Uiso   1.00
H1015  H     0.70015   0.58373   0.71075   0.00000  Uiso   1.00
H1016  H     0.75949   0.88377   0.95511   0.00000  Uiso   1.00
H1017  H     0.81234   0.91541   0.95708   0.00000  Uiso   1.00
H1018  H     0.97039   0.69050   0.88450   0.00000  Uiso   1.00
H1019  H     0.80945   0.85287   0.97090   0.00000  Uiso   1.00
H1020  H     0.60766   0.86282   0.79361   0.00000  Uiso   1.00
H1021  H     0.63023   0.90031   0.84107   0.00000  Uiso   1.00
H1022  H     0.57253   0.88712   0.84214   0.00000  Uiso   1.00
H1023  H     0.86471   0.67975   0.96549   0.00000  Uiso   1.00
H1024  H     0.91302   0.71535   0.95672   0.00000  Uiso   1.00
H1025  H     0.85858   0.73825   0.93905   0.00000  Uiso   1.00
H1026  H     0.88045   0.86613   0.83431   0.00000  Uiso   1.00
H1027  H     0.86494   0.88737   0.77438   0.00000  Uiso   1.00
H1028  H     0.92227   0.87723   0.78746   0.00000  Uiso   1.00
H1029  H     0.97028   0.80952   0.78394   0.00000  Uiso   1.00
H1030  H     0.63344   0.60126   0.83058   0.00000  Uiso   1.00
H1031  H     0.57795   0.61786   0.84578   0.00000  Uiso   1.00
H1032  H     0.62489   0.64501   0.87789   0.00000  Uiso   1.00
H1033  H     0.52829   0.67704   0.80934   0.00000  Uiso   1.00
H1034  H     0.74811   0.53307   0.91141   0.00000  Uiso   1.00
H1035  H     0.70162   0.96506   0.77542   0.00000  Uiso   1.00
H1036  H     0.75103   0.53358   0.75463   0.00000  Uiso   1.00
H1037  H     0.79887   0.96495   0.89067   0.00000  Uiso   1.00
H1038  H     0.78875   0.64361   0.97976   0.00000  Uiso   1.00
N1039  N     0.75000   0.62934   0.83333   0.00000  Uiso   1.00
N1040  N     0.75000   0.87065   0.83333   0.00000  Uiso   1.00
O1041  O     0.68573   0.79071   0.83334   0.00000  Uiso   1.00
O1042  O     0.69710   0.86929   0.76859   0.00000  Uiso   1.00
O1043  O     0.74905   0.62550   0.74449   0.00000  Uiso   1.00
O1044  O     0.80360   0.86929   0.89741   0.00000  Uiso   1.00
O1045  O     0.61520   0.83220   0.86396   0.00000  Uiso   1.00
O1046  O     0.88452   0.68509   0.89338   0.00000  Uiso   1.00
O1047  O     0.88328   0.81655   0.77626   0.00000  Uiso   1.00
O1048  O     0.61429   0.66738   0.80507   0.00000  Uiso   1.00
O1049  O     0.81427   0.70928   0.83333   0.00000  Uiso   1.00
O1050  O     0.81427   0.79071   0.83333   0.00000  Uiso   1.00
O1051  O     0.68573   0.70928   0.83334   0.00000  Uiso   1.00
O1052  O     0.75000   0.79071   0.76280   0.00000  Uiso   1.00
O1053  O     0.75000   0.70929   0.90387   0.00000  Uiso   1.00
O1054  O     0.75000   0.79071   0.90387   0.00000  Uiso   1.00
O1055  O     0.75000   0.70929   0.76280   0.00000  Uiso   1.00
O1056  O     0.74784   0.62574   0.92199   0.00000  Uiso   1.00
loop_
_geom_bond_atom_site_label_1
_geom_bond_atom_site_label_2
_geom_bond_distance
_geom_bond_site_symmetry_2
_ccdc_geom_bond_type
C1     C18     1.476   .     S
C1     O83     1.301   .     A
C1     O73     1.301   .     A
C2     H69     1.082   .     S
C2     C6      1.403   .     A
C2     C33     1.419   .     A
C3     C7      1.404   .     S
C3     O87     1.291   .     A
C3     O84     1.290   .     A
C4     C8      1.404   .     S
C4     O86     1.290   .     A
C4     O85     1.291   .     A
C5     C36     1.392   .     A
C5     C34     1.392   .     A
C5     C182    1.510   1_545 S
C6     C35     1.403   .     A
C6     C181    1.510   .     S
C7     C712    1.187   1_554 S
C8     C359    1.187   .     S
C9     H39     1.083   .     S
C9     C20     1.394   .     A
C9     C14     1.400   .     A
C10    C15     1.394   .     A
C10    C21     1.397   .     A
C10    H50     1.084   .     S
C11    H61     1.083   .     S
C11    C21     1.398   .     A
C11    C16     1.398   .     A
C12    O82     1.295   .     A
C12    C19     1.460   .     S
C12    O81     1.299   .     A
C13    H65     1.084   .     S
C13    C20     1.393   .     A
C13    C17     1.396   .     A
C14    C18     1.417   .     A
C14    O77     1.387   .     S
C15    C19     1.410   .     A
C15    O78     1.382   .     S
C16    O79     1.385   .     S
C16    C19     1.410   .     A
C17    O80     1.384   .     S
C17    C18     1.418   .     A
C20    C109    1.458   1_455 S
C21    C108    1.458   .     S
C22    H41     1.110   .     S
C22    O88     1.413   .     S
C22    H40     1.115   .     S
C22    H70     1.109   .     S
C23    N71     1.392   .     A
C23    C34     1.420   .     A
C23    O88     1.379   .     S
C24    H42     1.109   .     S
C24    H44     1.110   .     S
C24    O74     1.412   .     S
C24    H43     1.115   .     S
C25    H47     1.112   .     S
C25    O75     1.412   .     S
C25    H45     1.109   .     S
C25    H46     1.113   .     S
C26    O76     1.412   .     S
C26    H48     1.115   .     S
C26    H49     1.110   .     S
C26    H51     1.110   .     S
C27    H54     1.110   .     S
C27    H52     1.115   .     S
C27    O77     1.412   .     S
C27    H53     1.109   .     S
C28    H56     1.114   .     S
C28    H57     1.113   .     S
C28    O78     1.411   .     S
C28    H55     1.108   .     S
C29    H59     1.109   .     S
C29    O79     1.411   .     S
C29    H60     1.111   .     S
C29    H58     1.114   .     S
C30    H64     1.114   .     S
C30    O80     1.411   .     S
C30    H63     1.112   .     S
C30    H62     1.110   .     S
C31    O74     1.385   .     S
C31    N72     1.371   .     A
C31    C35     1.420   .     A
C32    O75     1.377   .     S
C32    C36     1.417   .     A
C32    N71     1.392   .     A
C33    N72     1.371   .     A
C33    O76     1.385   .     S
C34    H66     1.083   .     S
C35    H67     1.082   .     S
C36    H68     1.083   .     S
Cu37   O84     1.926   .     S
Cu37   O86     1.926   .     S
Cu37   Cu38    2.692   .     S
Cu37   O82     1.957   .     S
Cu37   O73     1.957   .     S
Cu37   N72     2.022   .     S
Cu38   O83     1.957   .     S
Cu38   O85     1.926   .     S
Cu38   O81     1.957   .     S
Cu38   N71     2.022   .     S
Cu38   O87     1.926   .     S
C89    C106    1.476   .     S
C89    O171    1.301   .     A
C89    O161    1.301   .     A
C90    H157    1.082   .     S
C90    C94     1.403   .     A
C90    C121    1.419   .     A
C91    C95     1.404   .     S
C91    O175    1.291   .     A
C91    O172    1.290   .     A
C92    C96     1.404   .     S
C92    O174    1.290   .     A
C92    O173    1.291   .     A
C93    C124    1.392   .     A
C93    C122    1.392   .     A
C93    C270    1.510   1_545 S
C94    C123    1.403   .     A
C94    C269    1.510   .     S
C95    C800    1.187   1_554 S
C96    C447    1.187   .     S
C97    H127    1.083   .     S
C97    C108    1.394   .     A
C97    C102    1.400   .     A
C98    C103    1.394   .     A
C98    C109    1.397   .     A
C98    H138    1.084   .     S
C99    H149    1.083   .     S
C99    C109    1.398   .     A
C99    C104    1.398   .     A
C100   O170    1.295   .     A
C100   C107    1.460   .     S
C100   O169    1.299   .     A
C101   H153    1.084   .     S
C101   C108    1.393   .     A
C101   C105    1.396   .     A
C102   C106    1.417   .     A
C102   O165    1.387   .     S
C103   C107    1.410   .     A
C103   O166    1.382   .     S
C104   O167    1.385   .     S
C104   C107    1.410   .     A
C105   O168    1.384   .     S
C105   C106    1.418   .     A
C109   C20     1.458   1_655 S
C110   H129    1.110   .     S
C110   O176    1.413   .     S
C110   H128    1.115   .     S
C110   H158    1.109   .     S
C111   N159    1.392   .     A
C111   C122    1.420   .     A
C111   O176    1.379   .     S
C112   H130    1.109   .     S
C112   H132    1.110   .     S
C112   O162    1.412   .     S
C112   H131    1.115   .     S
C113   H135    1.112   .     S
C113   O163    1.412   .     S
C113   H133    1.109   .     S
C113   H134    1.113   .     S
C114   O164    1.412   .     S
C114   H136    1.115   .     S
C114   H137    1.110   .     S
C114   H139    1.110   .     S
C115   H142    1.110   .     S
C115   H140    1.115   .     S
C115   O165    1.412   .     S
C115   H141    1.109   .     S
C116   H144    1.114   .     S
C116   H145    1.113   .     S
C116   O166    1.411   .     S
C116   H143    1.108   .     S
C117   H147    1.109   .     S
C117   O167    1.411   .     S
C117   H148    1.111   .     S
C117   H146    1.114   .     S
C118   H152    1.114   .     S
C118   O168    1.411   .     S
C118   H151    1.112   .     S
C118   H150    1.110   .     S
C119   O162    1.385   .     S
C119   N160    1.371   .     A
C119   C123    1.420   .     A
C120   O163    1.377   .     S
C120   C124    1.417   .     A
C120   N159    1.392   .     A
C121   N160    1.371   .     A
C121   O164    1.385   .     S
C122   H154    1.083   .     S
C123   H155    1.082   .     S
C124   H156    1.083   .     S
Cu125  O172    1.926   .     S
Cu125  O174    1.926   .     S
Cu125  Cu126   2.692   .     S
Cu125  O170    1.957   .     S
Cu125  O161    1.957   .     S
Cu125  N160    2.022   .     S
Cu126  O171    1.957   .     S
Cu126  O173    1.926   .     S
Cu126  O169    1.957   .     S
Cu126  N159    2.022   .     S
Cu126  O175    1.926   .     S
C177   C194    1.476   .     S
C177   O259    1.301   .     A
C177   O249    1.301   .     A
C178   H245    1.082   .     S
C178   C182    1.403   .     A
C178   C209    1.419   .     A
C179   C183    1.404   .     S
C179   O263    1.291   .     A
C179   O260    1.290   .     A
C180   C184    1.404   .     S
C180   O262    1.290   .     A
C180   O261    1.291   .     A
C181   C212    1.392   .     A
C181   C210    1.392   .     A
C182   C211    1.403   .     A
C182   C5      1.510   1_565 S
C183   C888    1.187   1_554 S
C184   C535    1.187   .     S
C185   H215    1.083   .     S
C185   C196    1.394   .     A
C185   C190    1.400   .     A
C186   C191    1.394   .     A
C186   C197    1.397   .     A
C186   H226    1.084   .     S
C187   H237    1.083   .     S
C187   C197    1.398   .     A
C187   C192    1.398   .     A
C188   O258    1.295   .     A
C188   C195    1.460   .     S
C188   O257    1.299   .     A
C189   H241    1.084   .     S
C189   C196    1.393   .     A
C189   C193    1.396   .     A
C190   C194    1.417   .     A
C190   O253    1.387   .     S
C191   C195    1.410   .     A
C191   O254    1.382   .     S
C192   O255    1.385   .     S
C192   C195    1.410   .     A
C193   O256    1.384   .     S
C193   C194    1.418   .     A
C196   C285    1.458   1_455 S
C197   C284    1.458   .     S
C198   H217    1.110   .     S
C198   O264    1.413   .     S
C198   H216    1.115   .     S
C198   H246    1.109   .     S
C199   N247    1.392   .     A
C199   C210    1.420   .     A
C199   O264    1.379   .     S
C200   H218    1.109   .     S
C200   H220    1.110   .     S
C200   O250    1.412   .     S
C200   H219    1.115   .     S
C201   H223    1.112   .     S
C201   O251    1.412   .     S
C201   H221    1.109   .     S
C201   H222    1.113   .     S
C202   O252    1.412   .     S
C202   H224    1.115   .     S
C202   H225    1.110   .     S
C202   H227    1.110   .     S
C203   H230    1.110   .     S
C203   H228    1.115   .     S
C203   O253    1.412   .     S
C203   H229    1.109   .     S
C204   H232    1.114   .     S
C204   H233    1.113   .     S
C204   O254    1.411   .     S
C204   H231    1.108   .     S
C205   H235    1.109   .     S
C205   O255    1.411   .     S
C205   H236    1.111   .     S
C205   H234    1.114   .     S
C206   H240    1.114   .     S
C206   O256    1.411   .     S
C206   H239    1.112   .     S
C206   H238    1.110   .     S
C207   O250    1.385   .     S
C207   N248    1.371   .     A
C207   C211    1.420   .     A
C208   O251    1.377   .     S
C208   C212    1.417   .     A
C208   N247    1.392   .     A
C209   N248    1.371   .     A
C209   O252    1.385   .     S
C210   H242    1.083   .     S
C211   H243    1.082   .     S
C212   H244    1.083   .     S
Cu213  O260    1.926   .     S
Cu213  O262    1.926   .     S
Cu213  Cu214   2.692   .     S
Cu213  O258    1.957   .     S
Cu213  O249    1.957   .     S
Cu213  N248    2.022   .     S
Cu214  O259    1.957   .     S
Cu214  O261    1.926   .     S
Cu214  O257    1.957   .     S
Cu214  N247    2.022   .     S
Cu214  O263    1.926   .     S
C265   C282    1.476   .     S
C265   O347    1.301   .     A
C265   O337    1.301   .     A
C266   H333    1.082   .     S
C266   C270    1.403   .     A
C266   C297    1.419   .     A
C267   C271    1.404   .     S
C267   O351    1.291   .     A
C267   O348    1.290   .     A
C268   C272    1.404   .     S
C268   O350    1.290   .     A
C268   O349    1.291   .     A
C269   C300    1.392   .     A
C269   C298    1.392   .     A
C270   C299    1.403   .     A
C270   C93     1.510   1_565 S
C271   C976    1.187   1_554 S
C272   C623    1.187   .     S
C273   H303    1.083   .     S
C273   C284    1.394   .     A
C273   C278    1.400   .     A
C274   C279    1.394   .     A
C274   C285    1.397   .     A
C274   H314    1.084   .     S
C275   H325    1.083   .     S
C275   C285    1.398   .     A
C275   C280    1.398   .     A
C276   O346    1.295   .     A
C276   C283    1.460   .     S
C276   O345    1.299   .     A
C277   H329    1.084   .     S
C277   C284    1.393   .     A
C277   C281    1.396   .     A
C278   C282    1.417   .     A
C278   O341    1.387   .     S
C279   C283    1.410   .     A
C279   O342    1.382   .     S
C280   O343    1.385   .     S
C280   C283    1.410   .     A
C281   O344    1.384   .     S
C281   C282    1.418   .     A
C285   C196    1.458   1_655 S
C286   H305    1.110   .     S
C286   O352    1.413   .     S
C286   H304    1.115   .     S
C286   H334    1.109   .     S
C287   N335    1.392   .     A
C287   C298    1.420   .     A
C287   O352    1.379   .     S
C288   H306    1.109   .     S
C288   H308    1.110   .     S
C288   O338    1.412   .     S
C288   H307    1.115   .     S
C289   H311    1.112   .     S
C289   O339    1.412   .     S
C289   H309    1.109   .     S
C289   H310    1.113   .     S
C290   O340    1.412   .     S
C290   H312    1.115   .     S
C290   H313    1.110   .     S
C290   H315    1.110   .     S
C291   H318    1.110   .     S
C291   H316    1.115   .     S
C291   O341    1.412   .     S
C291   H317    1.109   .     S
C292   H320    1.114   .     S
C292   H321    1.113   .     S
C292   O342    1.411   .     S
C292   H319    1.108   .     S
C293   H323    1.109   .     S
C293   O343    1.411   .     S
C293   H324    1.111   .     S
C293   H322    1.114   .     S
C294   H328    1.114   .     S
C294   O344    1.411   .     S
C294   H327    1.112   .     S
C294   H326    1.110   .     S
C295   O338    1.385   .     S
C295   N336    1.371   .     A
C295   C299    1.420   .     A
C296   O339    1.377   .     S
C296   C300    1.417   .     A
C296   N335    1.392   .     A
C297   N336    1.371   .     A
C297   O340    1.385   .     S
C298   H330    1.083   .     S
C299   H331    1.082   .     S
C300   H332    1.083   .     S
Cu301  O348    1.926   .     S
Cu301  O350    1.926   .     S
Cu301  Cu302   2.692   .     S
Cu301  O346    1.957   .     S
Cu301  O337    1.957   .     S
Cu301  N336    2.022   .     S
Cu302  O347    1.957   .     S
Cu302  O349    1.926   .     S
Cu302  O345    1.957   .     S
Cu302  N335    2.022   .     S
Cu302  O351    1.926   .     S
C353   C370    1.476   .     S
C353   O435    1.301   .     A
C353   O425    1.301   .     A
C354   H421    1.082   .     S
C354   C358    1.403   .     A
C354   C385    1.419   .     A
C355   C359    1.404   .     S
C355   O439    1.291   .     A
C355   O436    1.290   .     A
C356   C360    1.404   .     S
C356   O438    1.290   .     A
C356   O437    1.291   .     A
C357   C388    1.392   .     A
C357   C386    1.392   .     A
C357   C534    1.510   1_545 S
C358   C387    1.403   .     A
C358   C533    1.510   .     S
C360   C711    1.187   .     S
C361   H391    1.083   .     S
C361   C372    1.394   .     A
C361   C366    1.400   .     A
C362   C367    1.394   .     A
C362   C373    1.397   .     A
C362   H402    1.084   .     S
C363   H413    1.083   .     S
C363   C373    1.398   .     A
C363   C368    1.398   .     A
C364   O434    1.295   .     A
C364   C371    1.460   .     S
C364   O433    1.299   .     A
C365   H417    1.084   .     S
C365   C372    1.393   .     A
C365   C369    1.396   .     A
C366   C370    1.417   .     A
C366   O429    1.387   .     S
C367   C371    1.410   .     A
C367   O430    1.382   .     S
C368   O431    1.385   .     S
C368   C371    1.410   .     A
C369   O432    1.384   .     S
C369   C370    1.418   .     A
C372   C461    1.458   1_455 S
C373   C460    1.458   .     S
C374   H393    1.110   .     S
C374   O440    1.413   .     S
C374   H392    1.115   .     S
C374   H422    1.109   .     S
C375   N423    1.392   .     A
C375   C386    1.420   .     A
C375   O440    1.379   .     S
C376   H394    1.109   .     S
C376   H396    1.110   .     S
C376   O426    1.412   .     S
C376   H395    1.115   .     S
C377   H399    1.112   .     S
C377   O427    1.412   .     S
C377   H397    1.109   .     S
C377   H398    1.113   .     S
C378   O428    1.412   .     S
C378   H400    1.115   .     S
C378   H401    1.110   .     S
C378   H403    1.110   .     S
C379   H406    1.110   .     S
C379   H404    1.115   .     S
C379   O429    1.412   .     S
C379   H405    1.109   .     S
C380   H408    1.114   .     S
C380   H409    1.113   .     S
C380   O430    1.411   .     S
C380   H407    1.108   .     S
C381   H411    1.109   .     S
C381   O431    1.411   .     S
C381   H412    1.111   .     S
C381   H410    1.114   .     S
C382   H416    1.114   .     S
C382   O432    1.411   .     S
C382   H415    1.112   .     S
C382   H414    1.110   .     S
C383   O426    1.385   .     S
C383   N424    1.371   .     A
C383   C387    1.420   .     A
C384   O427    1.377   .     S
C384   C388    1.417   .     A
C384   N423    1.392   .     A
C385   N424    1.371   .     A
C385   O428    1.385   .     S
C386   H418    1.083   .     S
C387   H419    1.082   .     S
C388   H420    1.083   .     S
Cu389  O436    1.926   .     S
Cu389  O438    1.926   .     S
Cu389  Cu390   2.692   .     S
Cu389  O434    1.957   .     S
Cu389  O425    1.957   .     S
Cu389  N424    2.022   .     S
Cu390  O435    1.957   .     S
Cu390  O437    1.926   .     S
Cu390  O433    1.957   .     S
Cu390  N423    2.022   .     S
Cu390  O439    1.926   .     S
C441   C458    1.476   .     S
C441   O523    1.301   .     A
C441   O513    1.301   .     A
C442   H509    1.082   .     S
C442   C446    1.403   .     A
C442   C473    1.419   .     A
C443   C447    1.404   .     S
C443   O527    1.291   .     A
C443   O524    1.290   .     A
C444   C448    1.404   .     S
C444   O526    1.290   .     A
C444   O525    1.291   .     A
C445   C476    1.392   .     A
C445   C474    1.392   .     A
C445   C622    1.510   1_545 S
C446   C475    1.403   .     A
C446   C621    1.510   .     S
C448   C799    1.187   .     S
C449   H479    1.083   .     S
C449   C460    1.394   .     A
C449   C454    1.400   .     A
C450   C455    1.394   .     A
C450   C461    1.397   .     A
C450   H490    1.084   .     S
C451   H501    1.083   .     S
C451   C461    1.398   .     A
C451   C456    1.398   .     A
C452   O522    1.295   .     A
C452   C459    1.460   .     S
C452   O521    1.299   .     A
C453   H505    1.084   .     S
C453   C460    1.393   .     A
C453   C457    1.396   .     A
C454   C458    1.417   .     A
C454   O517    1.387   .     S
C455   C459    1.410   .     A
C455   O518    1.382   .     S
C456   O519    1.385   .     S
C456   C459    1.410   .     A
C457   O520    1.384   .     S
C457   C458    1.418   .     A
C461   C372    1.458   1_655 S
C462   H481    1.110   .     S
C462   O528    1.413   .     S
C462   H480    1.115   .     S
C462   H510    1.109   .     S
C463   N511    1.392   .     A
C463   C474    1.420   .     A
C463   O528    1.379   .     S
C464   H482    1.109   .     S
C464   H484    1.110   .     S
C464   O514    1.412   .     S
C464   H483    1.115   .     S
C465   H487    1.112   .     S
C465   O515    1.412   .     S
C465   H485    1.109   .     S
C465   H486    1.113   .     S
C466   O516    1.412   .     S
C466   H488    1.115   .     S
C466   H489    1.110   .     S
C466   H491    1.110   .     S
C467   H494    1.110   .     S
C467   H492    1.115   .     S
C467   O517    1.412   .     S
C467   H493    1.109   .     S
C468   H496    1.114   .     S
C468   H497    1.113   .     S
C468   O518    1.411   .     S
C468   H495    1.108   .     S
C469   H499    1.109   .     S
C469   O519    1.411   .     S
C469   H500    1.111   .     S
C469   H498    1.114   .     S
C470   H504    1.114   .     S
C470   O520    1.411   .     S
C470   H503    1.112   .     S
C470   H502    1.110   .     S
C471   O514    1.385   .     S
C471   N512    1.371   .     A
C471   C475    1.420   .     A
C472   O515    1.377   .     S
C472   C476    1.417   .     A
C472   N511    1.392   .     A
C473   N512    1.371   .     A
C473   O516    1.385   .     S
C474   H506    1.083   .     S
C475   H507    1.082   .     S
C476   H508    1.083   .     S
Cu477  O524    1.926   .     S
Cu477  O526    1.926   .     S
Cu477  Cu478   2.692   .     S
Cu477  O522    1.957   .     S
Cu477  O513    1.957   .     S
Cu477  N512    2.022   .     S
Cu478  O523    1.957   .     S
Cu478  O525    1.926   .     S
Cu478  O521    1.957   .     S
Cu478  N511    2.022   .     S
Cu478  O527    1.926   .     S
C529   C546    1.476   .     S
C529   O611    1.301   .     A
C529   O601    1.301   .     A
C530   H597    1.082   .     S
C530   C534    1.403   .     A
C530   C561    1.419   .     A
C531   C535    1.404   .     S
C531   O615    1.291   .     A
C531   O612    1.290   .     A
C532   C536    1.404   .     S
C532   O614    1.290   .     A
C532   O613    1.291   .     A
C533   C564    1.392   .     A
C533   C562    1.392   .     A
C534   C563    1.403   .     A
C534   C357    1.510   1_565 S
C536   C887    1.187   .     S
C537   H567    1.083   .     S
C537   C548    1.394   .     A
C537   C542    1.400   .     A
C538   C543    1.394   .     A
C538   C549    1.397   .     A
C538   H578    1.084   .     S
C539   H589    1.083   .     S
C539   C549    1.398   .     A
C539   C544    1.398   .     A
C540   O610    1.295   .     A
C540   C547    1.460   .     S
C540   O609    1.299   .     A
C541   H593    1.084   .     S
C541   C548    1.393   .     A
C541   C545    1.396   .     A
C542   C546    1.417   .     A
C542   O605    1.387   .     S
C543   C547    1.410   .     A
C543   O606    1.382   .     S
C544   O607    1.385   .     S
C544   C547    1.410   .     A
C545   O608    1.384   .     S
C545   C546    1.418   .     A
C548   C637    1.458   1_455 S
C549   C636    1.458   .     S
C550   H569    1.110   .     S
C550   O616    1.413   .     S
C550   H568    1.115   .     S
C550   H598    1.109   .     S
C551   N599    1.392   .     A
C551   C562    1.420   .     A
C551   O616    1.379   .     S
C552   H570    1.109   .     S
C552   H572    1.110   .     S
C552   O602    1.412   .     S
C552   H571    1.115   .     S
C553   H575    1.112   .     S
C553   O603    1.412   .     S
C553   H573    1.109   .     S
C553   H574    1.113   .     S
C554   O604    1.412   .     S
C554   H576    1.115   .     S
C554   H577    1.110   .     S
C554   H579    1.110   .     S
C555   H582    1.110   .     S
C555   H580    1.115   .     S
C555   O605    1.412   .     S
C555   H581    1.109   .     S
C556   H584    1.114   .     S
C556   H585    1.113   .     S
C556   O606    1.411   .     S
C556   H583    1.108   .     S
C557   H587    1.109   .     S
C557   O607    1.411   .     S
C557   H588    1.111   .     S
C557   H586    1.114   .     S
C558   H592    1.114   .     S
C558   O608    1.411   .     S
C558   H591    1.112   .     S
C558   H590    1.110   .     S
C559   O602    1.385   .     S
C559   N600    1.371   .     A
C559   C563    1.420   .     A
C560   O603    1.377   .     S
C560   C564    1.417   .     A
C560   N599    1.392   .     A
C561   N600    1.371   .     A
C561   O604    1.385   .     S
C562   H594    1.083   .     S
C563   H595    1.082   .     S
C564   H596    1.083   .     S
Cu565  O612    1.926   .     S
Cu565  O614    1.926   .     S
Cu565  Cu566   2.692   .     S
Cu565  O610    1.957   .     S
Cu565  O601    1.957   .     S
Cu565  N600    2.022   .     S
Cu566  O611    1.957   .     S
Cu566  O613    1.926   .     S
Cu566  O609    1.957   .     S
Cu566  N599    2.022   .     S
Cu566  O615    1.926   .     S
C617   C634    1.476   .     S
C617   O699    1.301   .     A
C617   O689    1.301   .     A
C618   H685    1.082   .     S
C618   C622    1.403   .     A
C618   C649    1.419   .     A
C619   C623    1.404   .     S
C619   O703    1.291   .     A
C619   O700    1.290   .     A
C620   C624    1.404   .     S
C620   O702    1.290   .     A
C620   O701    1.291   .     A
C621   C652    1.392   .     A
C621   C650    1.392   .     A
C622   C651    1.403   .     A
C622   C445    1.510   1_565 S
C624   C975    1.187   .     S
C625   H655    1.083   .     S
C625   C636    1.394   .     A
C625   C630    1.400   .     A
C626   C631    1.394   .     A
C626   C637    1.397   .     A
C626   H666    1.084   .     S
C627   H677    1.083   .     S
C627   C637    1.398   .     A
C627   C632    1.398   .     A
C628   O698    1.295   .     A
C628   C635    1.460   .     S
C628   O697    1.299   .     A
C629   H681    1.084   .     S
C629   C636    1.393   .     A
C629   C633    1.396   .     A
C630   C634    1.417   .     A
C630   O693    1.387   .     S
C631   C635    1.410   .     A
C631   O694    1.382   .     S
C632   O695    1.385   .     S
C632   C635    1.410   .     A
C633   O696    1.384   .     S
C633   C634    1.418   .     A
C637   C548    1.458   1_655 S
C638   H657    1.110   .     S
C638   O704    1.413   .     S
C638   H656    1.115   .     S
C638   H686    1.109   .     S
C639   N687    1.392   .     A
C639   C650    1.420   .     A
C639   O704    1.379   .     S
C640   H658    1.109   .     S
C640   H660    1.110   .     S
C640   O690    1.412   .     S
C640   H659    1.115   .     S
C641   H663    1.112   .     S
C641   O691    1.412   .     S
C641   H661    1.109   .     S
C641   H662    1.113   .     S
C642   O692    1.412   .     S
C642   H664    1.115   .     S
C642   H665    1.110   .     S
C642   H667    1.110   .     S
C643   H670    1.110   .     S
C643   H668    1.115   .     S
C643   O693    1.412   .     S
C643   H669    1.109   .     S
C644   H672    1.114   .     S
C644   H673    1.113   .     S
C644   O694    1.411   .     S
C644   H671    1.108   .     S
C645   H675    1.109   .     S
C645   O695    1.411   .     S
C645   H676    1.111   .     S
C645   H674    1.114   .     S
C646   H680    1.114   .     S
C646   O696    1.411   .     S
C646   H679    1.112   .     S
C646   H678    1.110   .     S
C647   O690    1.385   .     S
C647   N688    1.371   .     A
C647   C651    1.420   .     A
C648   O691    1.377   .     S
C648   C652    1.417   .     A
C648   N687    1.392   .     A
C649   N688    1.371   .     A
C649   O692    1.385   .     S
C650   H682    1.083   .     S
C651   H683    1.082   .     S
C652   H684    1.083   .     S
Cu653  O700    1.926   .     S
Cu653  O702    1.926   .     S
Cu653  Cu654   2.692   .     S
Cu653  O698    1.957   .     S
Cu653  O689    1.957   .     S
Cu653  N688    2.022   .     S
Cu654  O699    1.957   .     S
Cu654  O701    1.926   .     S
Cu654  O697    1.957   .     S
Cu654  N687    2.022   .     S
Cu654  O703    1.926   .     S
C705   C722    1.476   .     S
C705   O787    1.301   .     A
C705   O777    1.301   .     A
C706   H773    1.082   .     S
C706   C710    1.403   .     A
C706   C737    1.419   .     A
C707   C711    1.404   .     S
C707   O791    1.291   .     A
C707   O788    1.290   .     A
C708   C712    1.404   .     S
C708   O790    1.290   .     A
C708   O789    1.291   .     A
C709   C740    1.392   .     A
C709   C738    1.392   .     A
C709   C886    1.510   1_545 S
C710   C739    1.403   .     A
C710   C885    1.510   .     S
C712   C7      1.187   1_556 S
C713   H743    1.083   .     S
C713   C724    1.394   .     A
C713   C718    1.400   .     A
C714   C719    1.394   .     A
C714   C725    1.397   .     A
C714   H754    1.084   .     S
C715   H765    1.083   .     S
C715   C725    1.398   .     A
C715   C720    1.398   .     A
C716   O786    1.295   .     A
C716   C723    1.460   .     S
C716   O785    1.299   .     A
C717   H769    1.084   .     S
C717   C724    1.393   .     A
C717   C721    1.396   .     A
C718   C722    1.417   .     A
C718   O781    1.387   .     S
C719   C723    1.410   .     A
C719   O782    1.382   .     S
C720   O783    1.385   .     S
C720   C723    1.410   .     A
C721   O784    1.384   .     S
C721   C722    1.418   .     A
C724   C813    1.458   1_455 S
C725   C812    1.458   .     S
C726   H745    1.110   .     S
C726   O792    1.413   .     S
C726   H744    1.115   .     S
C726   H774    1.109   .     S
C727   N775    1.392   .     A
C727   C738    1.420   .     A
C727   O792    1.379   .     S
C728   H746    1.109   .     S
C728   H748    1.110   .     S
C728   O778    1.412   .     S
C728   H747    1.115   .     S
C729   H751    1.112   .     S
C729   O779    1.412   .     S
C729   H749    1.109   .     S
C729   H750    1.113   .     S
C730   O780    1.412   .     S
C730   H752    1.115   .     S
C730   H753    1.110   .     S
C730   H755    1.110   .     S
C731   H758    1.110   .     S
C731   H756    1.115   .     S
C731   O781    1.412   .     S
C731   H757    1.109   .     S
C732   H760    1.114   .     S
C732   H761    1.113   .     S
C732   O782    1.411   .     S
C732   H759    1.108   .     S
C733   H763    1.109   .     S
C733   O783    1.411   .     S
C733   H764    1.111   .     S
C733   H762    1.114   .     S
C734   H768    1.114   .     S
C734   O784    1.411   .     S
C734   H767    1.112   .     S
C734   H766    1.110   .     S
C735   O778    1.385   .     S
C735   N776    1.371   .     A
C735   C739    1.420   .     A
C736   O779    1.377   .     S
C736   C740    1.417   .     A
C736   N775    1.392   .     A
C737   N776    1.371   .     A
C737   O780    1.385   .     S
C738   H770    1.083   .     S
C739   H771    1.082   .     S
C740   H772    1.083   .     S
Cu741  O788    1.926   .     S
Cu741  O790    1.926   .     S
Cu741  Cu742   2.692   .     S
Cu741  O786    1.957   .     S
Cu741  O777    1.957   .     S
Cu741  N776    2.022   .     S
Cu742  O787    1.957   .     S
Cu742  O789    1.926   .     S
Cu742  O785    1.957   .     S
Cu742  N775    2.022   .     S
Cu742  O791    1.926   .     S
C793   C810    1.476   .     S
C793   O875    1.301   .     A
C793   O865    1.301   .     A
C794   H861    1.082   .     S
C794   C798    1.403   .     A
C794   C825    1.419   .     A
C795   C799    1.404   .     S
C795   O879    1.291   .     A
C795   O876    1.290   .     A
C796   C800    1.404   .     S
C796   O878    1.290   .     A
C796   O877    1.291   .     A
C797   C828    1.392   .     A
C797   C826    1.392   .     A
C797   C974    1.510   1_545 S
C798   C827    1.403   .     A
C798   C973    1.510   .     S
C800   C95     1.187   1_556 S
C801   H831    1.083   .     S
C801   C812    1.394   .     A
C801   C806    1.400   .     A
C802   C807    1.394   .     A
C802   C813    1.397   .     A
C802   H842    1.084   .     S
C803   H853    1.083   .     S
C803   C813    1.398   .     A
C803   C808    1.398   .     A
C804   O874    1.295   .     A
C804   C811    1.460   .     S
C804   O873    1.299   .     A
C805   H857    1.084   .     S
C805   C812    1.393   .     A
C805   C809    1.396   .     A
C806   C810    1.417   .     A
C806   O869    1.387   .     S
C807   C811    1.410   .     A
C807   O870    1.382   .     S
C808   O871    1.385   .     S
C808   C811    1.410   .     A
C809   O872    1.384   .     S
C809   C810    1.418   .     A
C813   C724    1.458   1_655 S
C814   H833    1.110   .     S
C814   O880    1.413   .     S
C814   H832    1.115   .     S
C814   H862    1.109   .     S
C815   N863    1.392   .     A
C815   C826    1.420   .     A
C815   O880    1.379   .     S
C816   H834    1.109   .     S
C816   H836    1.110   .     S
C816   O866    1.412   .     S
C816   H835    1.115   .     S
C817   H839    1.112   .     S
C817   O867    1.412   .     S
C817   H837    1.109   .     S
C817   H838    1.113   .     S
C818   O868    1.412   .     S
C818   H840    1.115   .     S
C818   H841    1.110   .     S
C818   H843    1.110   .     S
C819   H846    1.110   .     S
C819   H844    1.115   .     S
C819   O869    1.412   .     S
C819   H845    1.109   .     S
C820   H848    1.114   .     S
C820   H849    1.113   .     S
C820   O870    1.411   .     S
C820   H847    1.108   .     S
C821   H851    1.109   .     S
C821   O871    1.411   .     S
C821   H852    1.111   .     S
C821   H850    1.114   .     S
C822   H856    1.114   .     S
C822   O872    1.411   .     S
C822   H855    1.112   .     S
C822   H854    1.110   .     S
C823   O866    1.385   .     S
C823   N864    1.371   .     A
C823   C827    1.420   .     A
C824   O867    1.377   .     S
C824   C828    1.417   .     A
C824   N863    1.392   .     A
C825   N864    1.371   .     A
C825   O868    1.385   .     S
C826   H858    1.083   .     S
C827   H859    1.082   .     S
C828   H860    1.083   .     S
Cu829  O876    1.926   .     S
Cu829  O878    1.926   .     S
Cu829  Cu830   2.692   .     S
Cu829  O874    1.957   .     S
Cu829  O865    1.957   .     S
Cu829  N864    2.022   .     S
Cu830  O875    1.957   .     S
Cu830  O877    1.926   .     S
Cu830  O873    1.957   .     S
Cu830  N863    2.022   .     S
Cu830  O879    1.926   .     S
C881   C898    1.476   .     S
C881   O963    1.301   .     A
C881   O953    1.301   .     A
C882   H949    1.082   .     S
C882   C886    1.403   .     A
C882   C913    1.419   .     A
C883   C887    1.404   .     S
C883   O967    1.291   .     A
C883   O964    1.290   .     A
C884   C888    1.404   .     S
C884   O966    1.290   .     A
C884   O965    1.291   .     A
C885   C916    1.392   .     A
C885   C914    1.392   .     A
C886   C915    1.403   .     A
C886   C709    1.510   1_565 S
C888   C183    1.187   1_556 S
C889   H919    1.083   .     S
C889   C900    1.394   .     A
C889   C894    1.400   .     A
C890   C895    1.394   .     A
C890   C901    1.397   .     A
C890   H930    1.084   .     S
C891   H941    1.083   .     S
C891   C901    1.398   .     A
C891   C896    1.398   .     A
C892   O962    1.295   .     A
C892   C899    1.460   .     S
C892   O961    1.299   .     A
C893   H945    1.084   .     S
C893   C900    1.393   .     A
C893   C897    1.396   .     A
C894   C898    1.417   .     A
C894   O957    1.387   .     S
C895   C899    1.410   .     A
C895   O958    1.382   .     S
C896   O959    1.385   .     S
C896   C899    1.410   .     A
C897   O960    1.384   .     S
C897   C898    1.418   .     A
C900   C989    1.458   1_455 S
C901   C988    1.458   .     S
C902   H921    1.110   .     S
C902   O968    1.413   .     S
C902   H920    1.115   .     S
C902   H950    1.109   .     S
C903   N951    1.392   .     A
C903   C914    1.420   .     A
C903   O968    1.379   .     S
C904   H922    1.109   .     S
C904   H924    1.110   .     S
C904   O954    1.412   .     S
C904   H923    1.115   .     S
C905   H927    1.112   .     S
C905   O955    1.412   .     S
C905   H925    1.109   .     S
C905   H926    1.113   .     S
C906   O956    1.412   .     S
C906   H928    1.115   .     S
C906   H929    1.110   .     S
C906   H931    1.110   .     S
C907   H934    1.110   .     S
C907   H932    1.115   .     S
C907   O957    1.412   .     S
C907   H933    1.109   .     S
C908   H936    1.114   .     S
C908   H937    1.113   .     S
C908   O958    1.411   .     S
C908   H935    1.108   .     S
C909   H939    1.109   .     S
C909   O959    1.411   .     S
C909   H940    1.111   .     S
C909   H938    1.114   .     S
C910   H944    1.114   .     S
C910   O960    1.411   .     S
C910   H943    1.112   .     S
C910   H942    1.110   .     S
C911   O954    1.385   .     S
C911   N952    1.371   .     A
C911   C915    1.420   .     A
C912   O955    1.377   .     S
C912   C916    1.417   .     A
C912   N951    1.392   .     A
C913   N952    1.371   .     A
C913   O956    1.385   .     S
C914   H946    1.083   .     S
C915   H947    1.082   .     S
C916   H948    1.083   .     S
Cu917  O964    1.926   .     S
Cu917  O966    1.926   .     S
Cu917  Cu918   2.692   .     S
Cu917  O962    1.957   .     S
Cu917  O953    1.957   .     S
Cu917  N952    2.022   .     S
Cu918  O963    1.957   .     S
Cu918  O965    1.926   .     S
Cu918  O961    1.957   .     S
Cu918  N951    2.022   .     S
Cu918  O967    1.926   .     S
C969   C986    1.476   .     S
C969   O1051   1.301   .     A
C969   O1041   1.301   .     A
C970   H1037   1.082   .     S
C970   C974    1.403   .     A
C970   C1001   1.419   .     A
C971   C975    1.404   .     S
C971   O1055   1.291   .     A
C971   O1052   1.290   .     A
C972   C976    1.404   .     S
C972   O1054   1.290   .     A
C972   O1053   1.291   .     A
C973   C1004   1.392   .     A
C973   C1002   1.392   .     A
C974   C1003   1.403   .     A
C974   C797    1.510   1_565 S
C976   C271    1.187   1_556 S
C977   H1007   1.083   .     S
C977   C988    1.394   .     A
C977   C982    1.400   .     A
C978   C983    1.394   .     A
C978   C989    1.397   .     A
C978   H1018   1.084   .     S
C979   H1029   1.083   .     S
C979   C989    1.398   .     A
C979   C984    1.398   .     A
C980   O1050   1.295   .     A
C980   C987    1.460   .     S
C980   O1049   1.299   .     A
C981   H1033   1.084   .     S
C981   C988    1.393   .     A
C981   C985    1.396   .     A
C982   C986    1.417   .     A
C982   O1045   1.387   .     S
C983   C987    1.410   .     A
C983   O1046   1.382   .     S
C984   O1047   1.385   .     S
C984   C987    1.410   .     A
C985   O1048   1.384   .     S
C985   C986    1.418   .     A
C989   C900    1.458   1_655 S
C990   H1009   1.110   .     S
C990   O1056   1.413   .     S
C990   H1008   1.115   .     S
C990   H1038   1.109   .     S
C991   N1039   1.392   .     A
C991   C1002   1.420   .     A
C991   O1056   1.379   .     S
C992   H1010   1.109   .     S
C992   H1012   1.110   .     S
C992   O1042   1.412   .     S
C992   H1011   1.115   .     S
C993   H1015   1.112   .     S
C993   O1043   1.412   .     S
C993   H1013   1.109   .     S
C993   H1014   1.113   .     S
C994   O1044   1.412   .     S
C994   H1016   1.115   .     S
C994   H1017   1.110   .     S
C994   H1019   1.110   .     S
C995   H1022   1.110   .     S
C995   H1020   1.115   .     S
C995   O1045   1.412   .     S
C995   H1021   1.109   .     S
C996   H1024   1.114   .     S
C996   H1025   1.113   .     S
C996   O1046   1.411   .     S
C996   H1023   1.108   .     S
C997   H1027   1.109   .     S
C997   O1047   1.411   .     S
C997   H1028   1.111   .     S
C997   H1026   1.114   .     S
C998   H1032   1.114   .     S
C998   O1048   1.411   .     S
C998   H1031   1.112   .     S
C998   H1030   1.110   .     S
C999   O1042   1.385   .     S
C999   N1040   1.371   .     A
C999   C1003   1.420   .     A
C1000  O1043   1.377   .     S
C1000  C1004   1.417   .     A
C1000  N1039   1.392   .     A
C1001  N1040   1.371   .     A
C1001  O1044   1.385   .     S
C1002  H1034   1.083   .     S
C1003  H1035   1.082   .     S
C1004  H1036   1.083   .     S
Cu1005 O1052   1.926   .     S
Cu1005 O1054   1.926   .     S
Cu1005 Cu1006  2.692   .     S
Cu1005 O1050   1.957   .     S
Cu1005 O1041   1.957   .     S
Cu1005 N1040   2.022   .     S
Cu1006 O1051   1.957   .     S
Cu1006 O1053   1.926   .     S
Cu1006 O1049   1.957   .     S
Cu1006 N1039   2.022   .     S
Cu1006 O1055   1.926   .     S
