data_str_m2_o2_o10_pcu_sym.160
_audit_creation_date              2020-01-03
_audit_creation_method            'Materials Studio'
_symmetry_space_group_name_H-M    'P1'
_symmetry_Int_Tables_number       1
_symmetry_cell_setting            triclinic
loop_
_symmetry_equiv_pos_as_xyz
  x,y,z
_cell_length_a                    26.1496
_cell_length_b                    30.2496
_cell_length_c                    27.8939
_cell_angle_alpha                 91.0749
_cell_angle_beta                  98.6481
_cell_angle_gamma                 90.7409
loop_
_atom_site_label
_atom_site_type_symbol
_atom_site_fract_x
_atom_site_fract_y
_atom_site_fract_z
_atom_site_U_iso_or_equiv
_atom_site_adp_type
_atom_site_occupancy
C1     C     0.16866   0.16500   0.24985   0.00000  Uiso   1.00
C2     C     0.16582   0.33478   0.25027   0.00000  Uiso   1.00
C3     C     0.21016   0.26275   0.06015   0.00000  Uiso   1.00
C4     C     0.15088   0.21328   0.44334   0.00000  Uiso   1.00
C5     C     0.20899   0.26448   0.11051   0.00000  Uiso   1.00
C6     C     0.14886   0.21419   0.39259   0.00000  Uiso   1.00
C7     C     0.12437   0.23355   0.09787   0.00000  Uiso   1.00
C8     C     0.18669   0.28592   0.39924   0.00000  Uiso   1.00
C9     C     0.12121   0.23747   0.04668   0.00000  Uiso   1.00
C10    C     0.18260   0.28872   0.44955   0.00000  Uiso   1.00
C11    C     0.16579   0.25030   0.02709   0.00000  Uiso   1.00
C12    C     0.16663   0.25094   0.47278   0.00000  Uiso   1.00
C13    C     0.06788   0.24952   0.23742   0.00000  Uiso   1.00
C14    C     0.26545   0.24999   0.26256   0.00000  Uiso   1.00
C15    C     0.01238   0.24936   0.23065   0.00000  Uiso   1.00
C16    C     0.32093   0.24985   0.26934   0.00000  Uiso   1.00
C17    C     0.15300   0.04833   0.28837   0.00000  Uiso   1.00
C18    C     0.20925   0.45086   0.23703   0.00000  Uiso   1.00
C19    C     0.15314   0.09411   0.28739   0.00000  Uiso   1.00
C20    C     0.20706   0.40502   0.23629   0.00000  Uiso   1.00
C21    C     0.17163   0.11655   0.24971   0.00000  Uiso   1.00
C22    C     0.16499   0.38277   0.25093   0.00000  Uiso   1.00
C23    C     0.19144   0.09204   0.21285   0.00000  Uiso   1.00
C24    C     0.12401   0.40672   0.26640   0.00000  Uiso   1.00
C25    C     0.18899   0.04585   0.21330   0.00000  Uiso   1.00
C26    C     0.12662   0.45294   0.26641   0.00000  Uiso   1.00
C27    C     0.17027   0.02381   0.25107   0.00000  Uiso   1.00
C28    C     0.16886   0.47518   0.25168   0.00000  Uiso   1.00
Cu29   Cu    0.16667   0.25000   0.29822   0.00000  Uiso   1.00
Cu30   Cu    0.16667   0.25001   0.20179   0.00000  Uiso   1.00
H31    H     0.32522   0.24901   0.19375   0.00000  Uiso   1.00
H32    H     0.00808   0.25023   0.30627   0.00000  Uiso   1.00
H33    H     0.13937   0.03212   0.31845   0.00000  Uiso   1.00
H34    H     0.24280   0.46725   0.22653   0.00000  Uiso   1.00
H35    H     0.13823   0.11200   0.31620   0.00000  Uiso   1.00
H36    H     0.23872   0.38675   0.22493   0.00000  Uiso   1.00
H37    H     0.20261   0.02698   0.18445   0.00000  Uiso   1.00
H38    H     0.09474   0.47178   0.27642   0.00000  Uiso   1.00
H39    H     0.24538   0.27257   0.04690   0.00000  Uiso   1.00
H40    H     0.13854   0.18346   0.45950   0.00000  Uiso   1.00
H41    H     0.24285   0.27653   0.13443   0.00000  Uiso   1.00
H42    H     0.13401   0.18548   0.37106   0.00000  Uiso   1.00
N43    N     0.16667   0.25001   0.12935   0.00000  Uiso   1.00
N44    N     0.16667   0.24999   0.37066   0.00000  Uiso   1.00
O45    O     0.16667   0.18573   0.29072   0.00000  Uiso   1.00
O46    O     0.16666   0.31428   0.20929   0.00000  Uiso   1.00
O47    O     0.16667   0.18573   0.20928   0.00000  Uiso   1.00
O48    O     0.16666   0.31427   0.29072   0.00000  Uiso   1.00
O49    O     0.09161   0.25000   0.28132   0.00000  Uiso   1.00
O50    O     0.24172   0.25001   0.21868   0.00000  Uiso   1.00
O51    O     0.09161   0.25000   0.19989   0.00000  Uiso   1.00
O52    O     0.24172   0.25000   0.30012   0.00000  Uiso   1.00
C53    C     0.21735   0.11275   0.17491   0.00000  Uiso   1.00
O54    O     0.24799   0.14356   0.18537   0.00000  Uiso   1.00
O55    O     0.20849   0.09552   0.12747   0.00000  Uiso   1.00
H56    H     0.22865   0.11207   0.10494   0.00000  Uiso   1.00
C57    C     0.07726   0.38525   0.28089   0.00000  Uiso   1.00
O58    O     0.06383   0.34792   0.26641   0.00000  Uiso   1.00
O59    O     0.04746   0.40848   0.31028   0.00000  Uiso   1.00
H60    H     0.01633   0.39072   0.31721   0.00000  Uiso   1.00
C61    C     0.08353   0.20721   0.11587   0.00000  Uiso   1.00
O62    O     0.03961   0.22141   0.11307   0.00000  Uiso   1.00
O63    O     0.09458   0.16497   0.13352   0.00000  Uiso   1.00
H64    H     0.06353   0.14993   0.14440   0.00000  Uiso   1.00
C65    C     0.21715   0.32081   0.37958   0.00000  Uiso   1.00
O66    O     0.26026   0.31266   0.37024   0.00000  Uiso   1.00
O67    O     0.19771   0.36356   0.37387   0.00000  Uiso   1.00
H68    H     0.22245   0.38458   0.36067   0.00000  Uiso   1.00
C69    C     0.06987   0.22866   0.01429   0.00000  Uiso   1.00
H70    H     0.06927   0.23981   0.47666   0.00000  Uiso   1.00
H71    H     0.05998   0.19283   0.01358   0.00000  Uiso   1.00
H72    H     0.03894   0.24765   0.02813   0.00000  Uiso   1.00
C73    C     0.19446   0.33237   0.47697   0.00000  Uiso   1.00
H74    H     0.18210   0.33314   0.01319   0.00000  Uiso   1.00
H75    H     0.23655   0.34002   0.48104   0.00000  Uiso   1.00
H76    H     0.17265   0.35922   0.45696   0.00000  Uiso   1.00
C77    C     0.50199   0.16500   0.24985   0.00000  Uiso   1.00
C78    C     0.49915   0.33478   0.25027   0.00000  Uiso   1.00
C79    C     0.54349   0.26275   0.06015   0.00000  Uiso   1.00
C80    C     0.48422   0.21328   0.44334   0.00000  Uiso   1.00
C81    C     0.54232   0.26448   0.11051   0.00000  Uiso   1.00
C82    C     0.48219   0.21419   0.39259   0.00000  Uiso   1.00
C83    C     0.45770   0.23355   0.09787   0.00000  Uiso   1.00
C84    C     0.52003   0.28592   0.39924   0.00000  Uiso   1.00
C85    C     0.45454   0.23747   0.04668   0.00000  Uiso   1.00
C86    C     0.51593   0.28872   0.44955   0.00000  Uiso   1.00
C87    C     0.49912   0.25030   0.02709   0.00000  Uiso   1.00
C88    C     0.49996   0.25094   0.47278   0.00000  Uiso   1.00
C89    C     0.40121   0.24952   0.23742   0.00000  Uiso   1.00
C90    C     0.59878   0.24999   0.26256   0.00000  Uiso   1.00
C91    C     0.34572   0.24936   0.23065   0.00000  Uiso   1.00
C92    C     0.65426   0.24985   0.26934   0.00000  Uiso   1.00
C93    C     0.48634   0.04833   0.28837   0.00000  Uiso   1.00
C94    C     0.54259   0.45086   0.23703   0.00000  Uiso   1.00
C95    C     0.48647   0.09411   0.28739   0.00000  Uiso   1.00
C96    C     0.54039   0.40502   0.23629   0.00000  Uiso   1.00
C97    C     0.50496   0.11655   0.24971   0.00000  Uiso   1.00
C98    C     0.49832   0.38277   0.25093   0.00000  Uiso   1.00
C99    C     0.52477   0.09204   0.21285   0.00000  Uiso   1.00
C100   C     0.45734   0.40672   0.26640   0.00000  Uiso   1.00
C101   C     0.52232   0.04585   0.21330   0.00000  Uiso   1.00
C102   C     0.45995   0.45294   0.26641   0.00000  Uiso   1.00
C103   C     0.50360   0.02381   0.25107   0.00000  Uiso   1.00
C104   C     0.50219   0.47518   0.25168   0.00000  Uiso   1.00
Cu105  Cu    0.50000   0.25000   0.29822   0.00000  Uiso   1.00
Cu106  Cu    0.50000   0.25001   0.20179   0.00000  Uiso   1.00
H107   H     0.65855   0.24901   0.19375   0.00000  Uiso   1.00
H108   H     0.34141   0.25023   0.30627   0.00000  Uiso   1.00
H109   H     0.47270   0.03212   0.31845   0.00000  Uiso   1.00
H110   H     0.57613   0.46725   0.22653   0.00000  Uiso   1.00
H111   H     0.47157   0.11200   0.31620   0.00000  Uiso   1.00
H112   H     0.57205   0.38675   0.22493   0.00000  Uiso   1.00
H113   H     0.53594   0.02698   0.18445   0.00000  Uiso   1.00
H114   H     0.42808   0.47178   0.27642   0.00000  Uiso   1.00
H115   H     0.57872   0.27257   0.04690   0.00000  Uiso   1.00
H116   H     0.47187   0.18346   0.45950   0.00000  Uiso   1.00
H117   H     0.57618   0.27653   0.13443   0.00000  Uiso   1.00
H118   H     0.46735   0.18548   0.37106   0.00000  Uiso   1.00
N119   N     0.50000   0.25001   0.12935   0.00000  Uiso   1.00
N120   N     0.50000   0.24999   0.37066   0.00000  Uiso   1.00
O121   O     0.50000   0.18573   0.29072   0.00000  Uiso   1.00
O122   O     0.50000   0.31428   0.20929   0.00000  Uiso   1.00
O123   O     0.50000   0.18573   0.20928   0.00000  Uiso   1.00
O124   O     0.50000   0.31427   0.29072   0.00000  Uiso   1.00
O125   O     0.42495   0.25000   0.28132   0.00000  Uiso   1.00
O126   O     0.57505   0.25001   0.21868   0.00000  Uiso   1.00
O127   O     0.42495   0.25000   0.19989   0.00000  Uiso   1.00
O128   O     0.57505   0.25000   0.30012   0.00000  Uiso   1.00
C129   C     0.55069   0.11275   0.17491   0.00000  Uiso   1.00
O130   O     0.58132   0.14356   0.18537   0.00000  Uiso   1.00
O131   O     0.54182   0.09552   0.12747   0.00000  Uiso   1.00
H132   H     0.56198   0.11207   0.10494   0.00000  Uiso   1.00
C133   C     0.41059   0.38525   0.28089   0.00000  Uiso   1.00
O134   O     0.39716   0.34792   0.26641   0.00000  Uiso   1.00
O135   O     0.38080   0.40848   0.31028   0.00000  Uiso   1.00
H136   H     0.34966   0.39072   0.31721   0.00000  Uiso   1.00
C137   C     0.41687   0.20721   0.11587   0.00000  Uiso   1.00
O138   O     0.37295   0.22141   0.11307   0.00000  Uiso   1.00
O139   O     0.42791   0.16497   0.13352   0.00000  Uiso   1.00
H140   H     0.39686   0.14993   0.14440   0.00000  Uiso   1.00
C141   C     0.55048   0.32081   0.37958   0.00000  Uiso   1.00
O142   O     0.59359   0.31266   0.37024   0.00000  Uiso   1.00
O143   O     0.53105   0.36356   0.37387   0.00000  Uiso   1.00
H144   H     0.55578   0.38458   0.36067   0.00000  Uiso   1.00
C145   C     0.40321   0.22866   0.01429   0.00000  Uiso   1.00
H146   H     0.40261   0.23981   0.47666   0.00000  Uiso   1.00
H147   H     0.39332   0.19283   0.01358   0.00000  Uiso   1.00
H148   H     0.37227   0.24765   0.02813   0.00000  Uiso   1.00
C149   C     0.52779   0.33237   0.47697   0.00000  Uiso   1.00
H150   H     0.51543   0.33314   0.01319   0.00000  Uiso   1.00
H151   H     0.56988   0.34002   0.48104   0.00000  Uiso   1.00
H152   H     0.50599   0.35922   0.45696   0.00000  Uiso   1.00
C153   C     0.83532   0.16500   0.24985   0.00000  Uiso   1.00
C154   C     0.83248   0.33478   0.25027   0.00000  Uiso   1.00
C155   C     0.87682   0.26275   0.06015   0.00000  Uiso   1.00
C156   C     0.81755   0.21328   0.44334   0.00000  Uiso   1.00
C157   C     0.87565   0.26448   0.11051   0.00000  Uiso   1.00
C158   C     0.81553   0.21419   0.39259   0.00000  Uiso   1.00
C159   C     0.79104   0.23355   0.09787   0.00000  Uiso   1.00
C160   C     0.85336   0.28592   0.39924   0.00000  Uiso   1.00
C161   C     0.78788   0.23747   0.04668   0.00000  Uiso   1.00
C162   C     0.84927   0.28872   0.44955   0.00000  Uiso   1.00
C163   C     0.83246   0.25030   0.02709   0.00000  Uiso   1.00
C164   C     0.83329   0.25094   0.47278   0.00000  Uiso   1.00
C165   C     0.73454   0.24952   0.23742   0.00000  Uiso   1.00
C166   C     0.93212   0.24999   0.26256   0.00000  Uiso   1.00
C167   C     0.67905   0.24936   0.23065   0.00000  Uiso   1.00
C168   C     0.98759   0.24985   0.26934   0.00000  Uiso   1.00
C169   C     0.81967   0.04833   0.28837   0.00000  Uiso   1.00
C170   C     0.87592   0.45086   0.23703   0.00000  Uiso   1.00
C171   C     0.81980   0.09411   0.28739   0.00000  Uiso   1.00
C172   C     0.87372   0.40502   0.23629   0.00000  Uiso   1.00
C173   C     0.83830   0.11655   0.24971   0.00000  Uiso   1.00
C174   C     0.83166   0.38277   0.25093   0.00000  Uiso   1.00
C175   C     0.85811   0.09204   0.21285   0.00000  Uiso   1.00
C176   C     0.79067   0.40672   0.26640   0.00000  Uiso   1.00
C177   C     0.85565   0.04585   0.21330   0.00000  Uiso   1.00
C178   C     0.79328   0.45294   0.26641   0.00000  Uiso   1.00
C179   C     0.83693   0.02381   0.25107   0.00000  Uiso   1.00
C180   C     0.83553   0.47518   0.25168   0.00000  Uiso   1.00
Cu181  Cu    0.83333   0.25000   0.29822   0.00000  Uiso   1.00
Cu182  Cu    0.83333   0.25001   0.20179   0.00000  Uiso   1.00
H183   H     0.99189   0.24901   0.19375   0.00000  Uiso   1.00
H184   H     0.67474   0.25023   0.30627   0.00000  Uiso   1.00
H185   H     0.80604   0.03212   0.31845   0.00000  Uiso   1.00
H186   H     0.90946   0.46725   0.22653   0.00000  Uiso   1.00
H187   H     0.80490   0.11200   0.31620   0.00000  Uiso   1.00
H188   H     0.90538   0.38675   0.22493   0.00000  Uiso   1.00
H189   H     0.86928   0.02698   0.18445   0.00000  Uiso   1.00
H190   H     0.76141   0.47178   0.27642   0.00000  Uiso   1.00
H191   H     0.91205   0.27257   0.04690   0.00000  Uiso   1.00
H192   H     0.80521   0.18346   0.45950   0.00000  Uiso   1.00
H193   H     0.90951   0.27653   0.13443   0.00000  Uiso   1.00
H194   H     0.80068   0.18548   0.37106   0.00000  Uiso   1.00
N195   N     0.83333   0.25001   0.12935   0.00000  Uiso   1.00
N196   N     0.83333   0.24999   0.37066   0.00000  Uiso   1.00
O197   O     0.83334   0.18573   0.29072   0.00000  Uiso   1.00
O198   O     0.83333   0.31428   0.20929   0.00000  Uiso   1.00
O199   O     0.83334   0.18573   0.20928   0.00000  Uiso   1.00
O200   O     0.83333   0.31427   0.29072   0.00000  Uiso   1.00
O201   O     0.75828   0.25000   0.28132   0.00000  Uiso   1.00
O202   O     0.90839   0.25001   0.21868   0.00000  Uiso   1.00
O203   O     0.75828   0.25000   0.19989   0.00000  Uiso   1.00
O204   O     0.90839   0.25000   0.30012   0.00000  Uiso   1.00
C205   C     0.88402   0.11275   0.17491   0.00000  Uiso   1.00
O206   O     0.91466   0.14356   0.18537   0.00000  Uiso   1.00
O207   O     0.87516   0.09552   0.12747   0.00000  Uiso   1.00
H208   H     0.89532   0.11207   0.10494   0.00000  Uiso   1.00
C209   C     0.74392   0.38525   0.28089   0.00000  Uiso   1.00
O210   O     0.73049   0.34792   0.26641   0.00000  Uiso   1.00
O211   O     0.71413   0.40848   0.31028   0.00000  Uiso   1.00
H212   H     0.68300   0.39072   0.31721   0.00000  Uiso   1.00
C213   C     0.75020   0.20721   0.11587   0.00000  Uiso   1.00
O214   O     0.70628   0.22141   0.11307   0.00000  Uiso   1.00
O215   O     0.76125   0.16497   0.13352   0.00000  Uiso   1.00
H216   H     0.73020   0.14993   0.14440   0.00000  Uiso   1.00
C217   C     0.88382   0.32081   0.37958   0.00000  Uiso   1.00
O218   O     0.92692   0.31266   0.37024   0.00000  Uiso   1.00
O219   O     0.86438   0.36356   0.37387   0.00000  Uiso   1.00
H220   H     0.88912   0.38458   0.36067   0.00000  Uiso   1.00
C221   C     0.73654   0.22866   0.01429   0.00000  Uiso   1.00
H222   H     0.73594   0.23981   0.47666   0.00000  Uiso   1.00
H223   H     0.72665   0.19283   0.01358   0.00000  Uiso   1.00
H224   H     0.70561   0.24765   0.02813   0.00000  Uiso   1.00
C225   C     0.86113   0.33237   0.47697   0.00000  Uiso   1.00
H226   H     0.84876   0.33314   0.01319   0.00000  Uiso   1.00
H227   H     0.90322   0.34002   0.48104   0.00000  Uiso   1.00
H228   H     0.83932   0.35922   0.45696   0.00000  Uiso   1.00
C229   C     0.16866   0.66500   0.24985   0.00000  Uiso   1.00
C230   C     0.16582   0.83478   0.25027   0.00000  Uiso   1.00
C231   C     0.21016   0.76275   0.06015   0.00000  Uiso   1.00
C232   C     0.15088   0.71328   0.44334   0.00000  Uiso   1.00
C233   C     0.20899   0.76448   0.11051   0.00000  Uiso   1.00
C234   C     0.14886   0.71419   0.39259   0.00000  Uiso   1.00
C235   C     0.12437   0.73355   0.09787   0.00000  Uiso   1.00
C236   C     0.18669   0.78592   0.39924   0.00000  Uiso   1.00
C237   C     0.12121   0.73747   0.04668   0.00000  Uiso   1.00
C238   C     0.18260   0.78872   0.44955   0.00000  Uiso   1.00
C239   C     0.16579   0.75030   0.02709   0.00000  Uiso   1.00
C240   C     0.16663   0.75094   0.47278   0.00000  Uiso   1.00
C241   C     0.06788   0.74952   0.23742   0.00000  Uiso   1.00
C242   C     0.26545   0.74999   0.26256   0.00000  Uiso   1.00
C243   C     0.01238   0.74936   0.23065   0.00000  Uiso   1.00
C244   C     0.32093   0.74985   0.26934   0.00000  Uiso   1.00
C245   C     0.15300   0.54833   0.28837   0.00000  Uiso   1.00
C246   C     0.20925   0.95086   0.23703   0.00000  Uiso   1.00
C247   C     0.15314   0.59411   0.28739   0.00000  Uiso   1.00
C248   C     0.20706   0.90502   0.23629   0.00000  Uiso   1.00
C249   C     0.17163   0.61655   0.24971   0.00000  Uiso   1.00
C250   C     0.16499   0.88277   0.25093   0.00000  Uiso   1.00
C251   C     0.19144   0.59204   0.21285   0.00000  Uiso   1.00
C252   C     0.12401   0.90672   0.26640   0.00000  Uiso   1.00
C253   C     0.18899   0.54585   0.21330   0.00000  Uiso   1.00
C254   C     0.12662   0.95294   0.26641   0.00000  Uiso   1.00
C255   C     0.17027   0.52381   0.25107   0.00000  Uiso   1.00
C256   C     0.16886   0.97518   0.25168   0.00000  Uiso   1.00
Cu257  Cu    0.16667   0.75000   0.29822   0.00000  Uiso   1.00
Cu258  Cu    0.16667   0.75001   0.20179   0.00000  Uiso   1.00
H259   H     0.32522   0.74901   0.19375   0.00000  Uiso   1.00
H260   H     0.00808   0.75023   0.30627   0.00000  Uiso   1.00
H261   H     0.13937   0.53212   0.31845   0.00000  Uiso   1.00
H262   H     0.24280   0.96725   0.22653   0.00000  Uiso   1.00
H263   H     0.13823   0.61200   0.31620   0.00000  Uiso   1.00
H264   H     0.23872   0.88675   0.22493   0.00000  Uiso   1.00
H265   H     0.20261   0.52698   0.18445   0.00000  Uiso   1.00
H266   H     0.09474   0.97178   0.27642   0.00000  Uiso   1.00
H267   H     0.24538   0.77257   0.04690   0.00000  Uiso   1.00
H268   H     0.13854   0.68346   0.45950   0.00000  Uiso   1.00
H269   H     0.24285   0.77653   0.13443   0.00000  Uiso   1.00
H270   H     0.13401   0.68548   0.37106   0.00000  Uiso   1.00
N271   N     0.16667   0.75001   0.12935   0.00000  Uiso   1.00
N272   N     0.16667   0.74999   0.37066   0.00000  Uiso   1.00
O273   O     0.16667   0.68573   0.29072   0.00000  Uiso   1.00
O274   O     0.16666   0.81428   0.20929   0.00000  Uiso   1.00
O275   O     0.16667   0.68573   0.20928   0.00000  Uiso   1.00
O276   O     0.16666   0.81427   0.29072   0.00000  Uiso   1.00
O277   O     0.09161   0.75000   0.28132   0.00000  Uiso   1.00
O278   O     0.24172   0.75001   0.21868   0.00000  Uiso   1.00
O279   O     0.09161   0.75000   0.19989   0.00000  Uiso   1.00
O280   O     0.24172   0.75000   0.30012   0.00000  Uiso   1.00
C281   C     0.21735   0.61275   0.17491   0.00000  Uiso   1.00
O282   O     0.24799   0.64356   0.18537   0.00000  Uiso   1.00
O283   O     0.20849   0.59552   0.12747   0.00000  Uiso   1.00
H284   H     0.22865   0.61207   0.10494   0.00000  Uiso   1.00
C285   C     0.07726   0.88525   0.28089   0.00000  Uiso   1.00
O286   O     0.06383   0.84792   0.26641   0.00000  Uiso   1.00
O287   O     0.04746   0.90848   0.31028   0.00000  Uiso   1.00
H288   H     0.01633   0.89072   0.31721   0.00000  Uiso   1.00
C289   C     0.08353   0.70721   0.11587   0.00000  Uiso   1.00
O290   O     0.03961   0.72141   0.11307   0.00000  Uiso   1.00
O291   O     0.09458   0.66497   0.13352   0.00000  Uiso   1.00
H292   H     0.06353   0.64993   0.14440   0.00000  Uiso   1.00
C293   C     0.21715   0.82081   0.37958   0.00000  Uiso   1.00
O294   O     0.26026   0.81266   0.37024   0.00000  Uiso   1.00
O295   O     0.19771   0.86356   0.37387   0.00000  Uiso   1.00
H296   H     0.22245   0.88458   0.36067   0.00000  Uiso   1.00
C297   C     0.06987   0.72866   0.01429   0.00000  Uiso   1.00
H298   H     0.06927   0.73981   0.47666   0.00000  Uiso   1.00
H299   H     0.05998   0.69283   0.01358   0.00000  Uiso   1.00
H300   H     0.03894   0.74765   0.02813   0.00000  Uiso   1.00
C301   C     0.19446   0.83237   0.47697   0.00000  Uiso   1.00
H302   H     0.18210   0.83314   0.01319   0.00000  Uiso   1.00
H303   H     0.23655   0.84002   0.48104   0.00000  Uiso   1.00
H304   H     0.17265   0.85922   0.45696   0.00000  Uiso   1.00
C305   C     0.50199   0.66500   0.24985   0.00000  Uiso   1.00
C306   C     0.49915   0.83478   0.25027   0.00000  Uiso   1.00
C307   C     0.54349   0.76275   0.06015   0.00000  Uiso   1.00
C308   C     0.48422   0.71328   0.44334   0.00000  Uiso   1.00
C309   C     0.54232   0.76448   0.11051   0.00000  Uiso   1.00
C310   C     0.48219   0.71419   0.39259   0.00000  Uiso   1.00
C311   C     0.45770   0.73355   0.09787   0.00000  Uiso   1.00
C312   C     0.52003   0.78592   0.39924   0.00000  Uiso   1.00
C313   C     0.45454   0.73747   0.04668   0.00000  Uiso   1.00
C314   C     0.51593   0.78872   0.44955   0.00000  Uiso   1.00
C315   C     0.49912   0.75030   0.02709   0.00000  Uiso   1.00
C316   C     0.49996   0.75094   0.47278   0.00000  Uiso   1.00
C317   C     0.40121   0.74952   0.23742   0.00000  Uiso   1.00
C318   C     0.59878   0.74999   0.26256   0.00000  Uiso   1.00
C319   C     0.34572   0.74936   0.23065   0.00000  Uiso   1.00
C320   C     0.65426   0.74985   0.26934   0.00000  Uiso   1.00
C321   C     0.48634   0.54833   0.28837   0.00000  Uiso   1.00
C322   C     0.54259   0.95086   0.23703   0.00000  Uiso   1.00
C323   C     0.48647   0.59411   0.28739   0.00000  Uiso   1.00
C324   C     0.54039   0.90502   0.23629   0.00000  Uiso   1.00
C325   C     0.50496   0.61655   0.24971   0.00000  Uiso   1.00
C326   C     0.49832   0.88277   0.25093   0.00000  Uiso   1.00
C327   C     0.52477   0.59204   0.21285   0.00000  Uiso   1.00
C328   C     0.45734   0.90672   0.26640   0.00000  Uiso   1.00
C329   C     0.52232   0.54585   0.21330   0.00000  Uiso   1.00
C330   C     0.45995   0.95294   0.26641   0.00000  Uiso   1.00
C331   C     0.50360   0.52381   0.25107   0.00000  Uiso   1.00
C332   C     0.50219   0.97518   0.25168   0.00000  Uiso   1.00
Cu333  Cu    0.50000   0.75000   0.29822   0.00000  Uiso   1.00
Cu334  Cu    0.50000   0.75001   0.20179   0.00000  Uiso   1.00
H335   H     0.65855   0.74901   0.19375   0.00000  Uiso   1.00
H336   H     0.34141   0.75023   0.30627   0.00000  Uiso   1.00
H337   H     0.47270   0.53212   0.31845   0.00000  Uiso   1.00
H338   H     0.57613   0.96725   0.22653   0.00000  Uiso   1.00
H339   H     0.47157   0.61200   0.31620   0.00000  Uiso   1.00
H340   H     0.57205   0.88675   0.22493   0.00000  Uiso   1.00
H341   H     0.53594   0.52698   0.18445   0.00000  Uiso   1.00
H342   H     0.42808   0.97178   0.27642   0.00000  Uiso   1.00
H343   H     0.57872   0.77257   0.04690   0.00000  Uiso   1.00
H344   H     0.47187   0.68346   0.45950   0.00000  Uiso   1.00
H345   H     0.57618   0.77653   0.13443   0.00000  Uiso   1.00
H346   H     0.46735   0.68548   0.37106   0.00000  Uiso   1.00
N347   N     0.50000   0.75001   0.12935   0.00000  Uiso   1.00
N348   N     0.50000   0.74999   0.37066   0.00000  Uiso   1.00
O349   O     0.50000   0.68573   0.29072   0.00000  Uiso   1.00
O350   O     0.50000   0.81428   0.20929   0.00000  Uiso   1.00
O351   O     0.50000   0.68573   0.20928   0.00000  Uiso   1.00
O352   O     0.50000   0.81427   0.29072   0.00000  Uiso   1.00
O353   O     0.42495   0.75000   0.28132   0.00000  Uiso   1.00
O354   O     0.57505   0.75001   0.21868   0.00000  Uiso   1.00
O355   O     0.42495   0.75000   0.19989   0.00000  Uiso   1.00
O356   O     0.57505   0.75000   0.30012   0.00000  Uiso   1.00
C357   C     0.55069   0.61275   0.17491   0.00000  Uiso   1.00
O358   O     0.58132   0.64356   0.18537   0.00000  Uiso   1.00
O359   O     0.54182   0.59552   0.12747   0.00000  Uiso   1.00
H360   H     0.56198   0.61207   0.10494   0.00000  Uiso   1.00
C361   C     0.41059   0.88525   0.28089   0.00000  Uiso   1.00
O362   O     0.39716   0.84792   0.26641   0.00000  Uiso   1.00
O363   O     0.38080   0.90848   0.31028   0.00000  Uiso   1.00
H364   H     0.34966   0.89072   0.31721   0.00000  Uiso   1.00
C365   C     0.41687   0.70721   0.11587   0.00000  Uiso   1.00
O366   O     0.37295   0.72141   0.11307   0.00000  Uiso   1.00
O367   O     0.42791   0.66497   0.13352   0.00000  Uiso   1.00
H368   H     0.39686   0.64993   0.14440   0.00000  Uiso   1.00
C369   C     0.55048   0.82081   0.37958   0.00000  Uiso   1.00
O370   O     0.59359   0.81266   0.37024   0.00000  Uiso   1.00
O371   O     0.53105   0.86356   0.37387   0.00000  Uiso   1.00
H372   H     0.55578   0.88458   0.36067   0.00000  Uiso   1.00
C373   C     0.40321   0.72866   0.01429   0.00000  Uiso   1.00
H374   H     0.40261   0.73981   0.47666   0.00000  Uiso   1.00
H375   H     0.39332   0.69283   0.01358   0.00000  Uiso   1.00
H376   H     0.37227   0.74765   0.02813   0.00000  Uiso   1.00
C377   C     0.52779   0.83237   0.47697   0.00000  Uiso   1.00
H378   H     0.51543   0.83314   0.01319   0.00000  Uiso   1.00
H379   H     0.56988   0.84002   0.48104   0.00000  Uiso   1.00
H380   H     0.50599   0.85922   0.45696   0.00000  Uiso   1.00
C381   C     0.83532   0.66500   0.24985   0.00000  Uiso   1.00
C382   C     0.83248   0.83478   0.25027   0.00000  Uiso   1.00
C383   C     0.87682   0.76275   0.06015   0.00000  Uiso   1.00
C384   C     0.81755   0.71328   0.44334   0.00000  Uiso   1.00
C385   C     0.87565   0.76448   0.11051   0.00000  Uiso   1.00
C386   C     0.81553   0.71419   0.39259   0.00000  Uiso   1.00
C387   C     0.79104   0.73355   0.09787   0.00000  Uiso   1.00
C388   C     0.85336   0.78592   0.39924   0.00000  Uiso   1.00
C389   C     0.78788   0.73747   0.04668   0.00000  Uiso   1.00
C390   C     0.84927   0.78872   0.44955   0.00000  Uiso   1.00
C391   C     0.83246   0.75030   0.02709   0.00000  Uiso   1.00
C392   C     0.83329   0.75094   0.47278   0.00000  Uiso   1.00
C393   C     0.73454   0.74952   0.23742   0.00000  Uiso   1.00
C394   C     0.93212   0.74999   0.26256   0.00000  Uiso   1.00
C395   C     0.67905   0.74936   0.23065   0.00000  Uiso   1.00
C396   C     0.98759   0.74985   0.26934   0.00000  Uiso   1.00
C397   C     0.81967   0.54833   0.28837   0.00000  Uiso   1.00
C398   C     0.87592   0.95086   0.23703   0.00000  Uiso   1.00
C399   C     0.81980   0.59411   0.28739   0.00000  Uiso   1.00
C400   C     0.87372   0.90502   0.23629   0.00000  Uiso   1.00
C401   C     0.83830   0.61655   0.24971   0.00000  Uiso   1.00
C402   C     0.83166   0.88277   0.25093   0.00000  Uiso   1.00
C403   C     0.85811   0.59204   0.21285   0.00000  Uiso   1.00
C404   C     0.79067   0.90672   0.26640   0.00000  Uiso   1.00
C405   C     0.85565   0.54585   0.21330   0.00000  Uiso   1.00
C406   C     0.79328   0.95294   0.26641   0.00000  Uiso   1.00
C407   C     0.83693   0.52381   0.25107   0.00000  Uiso   1.00
C408   C     0.83553   0.97518   0.25168   0.00000  Uiso   1.00
Cu409  Cu    0.83333   0.75000   0.29822   0.00000  Uiso   1.00
Cu410  Cu    0.83333   0.75001   0.20179   0.00000  Uiso   1.00
H411   H     0.99189   0.74901   0.19375   0.00000  Uiso   1.00
H412   H     0.67474   0.75023   0.30627   0.00000  Uiso   1.00
H413   H     0.80604   0.53212   0.31845   0.00000  Uiso   1.00
H414   H     0.90946   0.96725   0.22653   0.00000  Uiso   1.00
H415   H     0.80490   0.61200   0.31620   0.00000  Uiso   1.00
H416   H     0.90538   0.88675   0.22493   0.00000  Uiso   1.00
H417   H     0.86928   0.52698   0.18445   0.00000  Uiso   1.00
H418   H     0.76141   0.97178   0.27642   0.00000  Uiso   1.00
H419   H     0.91205   0.77257   0.04690   0.00000  Uiso   1.00
H420   H     0.80521   0.68346   0.45950   0.00000  Uiso   1.00
H421   H     0.90951   0.77653   0.13443   0.00000  Uiso   1.00
H422   H     0.80068   0.68548   0.37106   0.00000  Uiso   1.00
N423   N     0.83333   0.75001   0.12935   0.00000  Uiso   1.00
N424   N     0.83333   0.74999   0.37066   0.00000  Uiso   1.00
O425   O     0.83334   0.68573   0.29072   0.00000  Uiso   1.00
O426   O     0.83333   0.81428   0.20929   0.00000  Uiso   1.00
O427   O     0.83334   0.68573   0.20928   0.00000  Uiso   1.00
O428   O     0.83333   0.81427   0.29072   0.00000  Uiso   1.00
O429   O     0.75828   0.75000   0.28132   0.00000  Uiso   1.00
O430   O     0.90839   0.75001   0.21868   0.00000  Uiso   1.00
O431   O     0.75828   0.75000   0.19989   0.00000  Uiso   1.00
O432   O     0.90839   0.75000   0.30012   0.00000  Uiso   1.00
C433   C     0.88402   0.61275   0.17491   0.00000  Uiso   1.00
O434   O     0.91466   0.64356   0.18537   0.00000  Uiso   1.00
O435   O     0.87516   0.59552   0.12747   0.00000  Uiso   1.00
H436   H     0.89532   0.61207   0.10494   0.00000  Uiso   1.00
C437   C     0.74392   0.88525   0.28089   0.00000  Uiso   1.00
O438   O     0.73049   0.84792   0.26641   0.00000  Uiso   1.00
O439   O     0.71413   0.90848   0.31028   0.00000  Uiso   1.00
H440   H     0.68300   0.89072   0.31721   0.00000  Uiso   1.00
C441   C     0.75020   0.70721   0.11587   0.00000  Uiso   1.00
O442   O     0.70628   0.72141   0.11307   0.00000  Uiso   1.00
O443   O     0.76125   0.66497   0.13352   0.00000  Uiso   1.00
H444   H     0.73020   0.64993   0.14440   0.00000  Uiso   1.00
C445   C     0.88382   0.82081   0.37958   0.00000  Uiso   1.00
O446   O     0.92692   0.81266   0.37024   0.00000  Uiso   1.00
O447   O     0.86438   0.86356   0.37387   0.00000  Uiso   1.00
H448   H     0.88912   0.88458   0.36067   0.00000  Uiso   1.00
C449   C     0.73654   0.72866   0.01429   0.00000  Uiso   1.00
H450   H     0.73594   0.73981   0.47666   0.00000  Uiso   1.00
H451   H     0.72665   0.69283   0.01358   0.00000  Uiso   1.00
H452   H     0.70561   0.74765   0.02813   0.00000  Uiso   1.00
C453   C     0.86113   0.83237   0.47697   0.00000  Uiso   1.00
H454   H     0.84876   0.83314   0.01319   0.00000  Uiso   1.00
H455   H     0.90322   0.84002   0.48104   0.00000  Uiso   1.00
H456   H     0.83932   0.85922   0.45696   0.00000  Uiso   1.00
C457   C     0.16866   0.16500   0.74985   0.00000  Uiso   1.00
C458   C     0.16582   0.33478   0.75027   0.00000  Uiso   1.00
C459   C     0.21016   0.26275   0.56015   0.00000  Uiso   1.00
C460   C     0.15088   0.21328   0.94334   0.00000  Uiso   1.00
C461   C     0.20899   0.26448   0.61051   0.00000  Uiso   1.00
C462   C     0.14886   0.21419   0.89259   0.00000  Uiso   1.00
C463   C     0.12437   0.23355   0.59787   0.00000  Uiso   1.00
C464   C     0.18669   0.28592   0.89924   0.00000  Uiso   1.00
C465   C     0.12121   0.23747   0.54668   0.00000  Uiso   1.00
C466   C     0.18260   0.28872   0.94955   0.00000  Uiso   1.00
C467   C     0.16579   0.25030   0.52709   0.00000  Uiso   1.00
C468   C     0.16663   0.25094   0.97278   0.00000  Uiso   1.00
C469   C     0.06788   0.24952   0.73742   0.00000  Uiso   1.00
C470   C     0.26545   0.24999   0.76256   0.00000  Uiso   1.00
C471   C     0.01238   0.24936   0.73065   0.00000  Uiso   1.00
C472   C     0.32093   0.24985   0.76934   0.00000  Uiso   1.00
C473   C     0.15300   0.04833   0.78837   0.00000  Uiso   1.00
C474   C     0.20925   0.45086   0.73703   0.00000  Uiso   1.00
C475   C     0.15314   0.09411   0.78739   0.00000  Uiso   1.00
C476   C     0.20706   0.40502   0.73629   0.00000  Uiso   1.00
C477   C     0.17163   0.11655   0.74971   0.00000  Uiso   1.00
C478   C     0.16499   0.38277   0.75093   0.00000  Uiso   1.00
C479   C     0.19144   0.09204   0.71285   0.00000  Uiso   1.00
C480   C     0.12401   0.40672   0.76640   0.00000  Uiso   1.00
C481   C     0.18899   0.04585   0.71330   0.00000  Uiso   1.00
C482   C     0.12662   0.45294   0.76641   0.00000  Uiso   1.00
C483   C     0.17027   0.02381   0.75107   0.00000  Uiso   1.00
C484   C     0.16886   0.47518   0.75168   0.00000  Uiso   1.00
Cu485  Cu    0.16667   0.25000   0.79822   0.00000  Uiso   1.00
Cu486  Cu    0.16667   0.25001   0.70179   0.00000  Uiso   1.00
H487   H     0.32522   0.24901   0.69375   0.00000  Uiso   1.00
H488   H     0.00808   0.25023   0.80627   0.00000  Uiso   1.00
H489   H     0.13937   0.03212   0.81845   0.00000  Uiso   1.00
H490   H     0.24280   0.46725   0.72653   0.00000  Uiso   1.00
H491   H     0.13823   0.11200   0.81620   0.00000  Uiso   1.00
H492   H     0.23872   0.38675   0.72493   0.00000  Uiso   1.00
H493   H     0.20261   0.02698   0.68445   0.00000  Uiso   1.00
H494   H     0.09474   0.47178   0.77642   0.00000  Uiso   1.00
H495   H     0.24538   0.27257   0.54690   0.00000  Uiso   1.00
H496   H     0.13854   0.18346   0.95950   0.00000  Uiso   1.00
H497   H     0.24285   0.27653   0.63443   0.00000  Uiso   1.00
H498   H     0.13401   0.18548   0.87106   0.00000  Uiso   1.00
N499   N     0.16667   0.25001   0.62935   0.00000  Uiso   1.00
N500   N     0.16667   0.24999   0.87066   0.00000  Uiso   1.00
O501   O     0.16667   0.18573   0.79072   0.00000  Uiso   1.00
O502   O     0.16666   0.31428   0.70929   0.00000  Uiso   1.00
O503   O     0.16667   0.18573   0.70928   0.00000  Uiso   1.00
O504   O     0.16666   0.31427   0.79072   0.00000  Uiso   1.00
O505   O     0.09161   0.25000   0.78132   0.00000  Uiso   1.00
O506   O     0.24172   0.25001   0.71868   0.00000  Uiso   1.00
O507   O     0.09161   0.25000   0.69989   0.00000  Uiso   1.00
O508   O     0.24172   0.25000   0.80012   0.00000  Uiso   1.00
C509   C     0.21735   0.11275   0.67491   0.00000  Uiso   1.00
O510   O     0.24799   0.14356   0.68537   0.00000  Uiso   1.00
O511   O     0.20849   0.09552   0.62747   0.00000  Uiso   1.00
H512   H     0.22865   0.11207   0.60494   0.00000  Uiso   1.00
C513   C     0.07726   0.38525   0.78089   0.00000  Uiso   1.00
O514   O     0.06383   0.34792   0.76641   0.00000  Uiso   1.00
O515   O     0.04746   0.40848   0.81028   0.00000  Uiso   1.00
H516   H     0.01633   0.39072   0.81721   0.00000  Uiso   1.00
C517   C     0.08353   0.20721   0.61587   0.00000  Uiso   1.00
O518   O     0.03961   0.22141   0.61307   0.00000  Uiso   1.00
O519   O     0.09458   0.16497   0.63352   0.00000  Uiso   1.00
H520   H     0.06353   0.14993   0.64440   0.00000  Uiso   1.00
C521   C     0.21715   0.32081   0.87958   0.00000  Uiso   1.00
O522   O     0.26026   0.31266   0.87024   0.00000  Uiso   1.00
O523   O     0.19771   0.36356   0.87387   0.00000  Uiso   1.00
H524   H     0.22245   0.38458   0.86067   0.00000  Uiso   1.00
C525   C     0.06987   0.22866   0.51429   0.00000  Uiso   1.00
H526   H     0.06927   0.23981   0.97666   0.00000  Uiso   1.00
H527   H     0.05998   0.19283   0.51358   0.00000  Uiso   1.00
H528   H     0.03894   0.24765   0.52813   0.00000  Uiso   1.00
C529   C     0.19446   0.33237   0.97697   0.00000  Uiso   1.00
H530   H     0.18210   0.33314   0.51319   0.00000  Uiso   1.00
H531   H     0.23655   0.34002   0.98104   0.00000  Uiso   1.00
H532   H     0.17265   0.35922   0.95696   0.00000  Uiso   1.00
C533   C     0.50199   0.16500   0.74985   0.00000  Uiso   1.00
C534   C     0.49915   0.33478   0.75027   0.00000  Uiso   1.00
C535   C     0.54349   0.26275   0.56015   0.00000  Uiso   1.00
C536   C     0.48422   0.21328   0.94334   0.00000  Uiso   1.00
C537   C     0.54232   0.26448   0.61051   0.00000  Uiso   1.00
C538   C     0.48219   0.21419   0.89259   0.00000  Uiso   1.00
C539   C     0.45770   0.23355   0.59787   0.00000  Uiso   1.00
C540   C     0.52003   0.28592   0.89924   0.00000  Uiso   1.00
C541   C     0.45454   0.23747   0.54668   0.00000  Uiso   1.00
C542   C     0.51593   0.28872   0.94955   0.00000  Uiso   1.00
C543   C     0.49912   0.25030   0.52709   0.00000  Uiso   1.00
C544   C     0.49996   0.25094   0.97278   0.00000  Uiso   1.00
C545   C     0.40121   0.24952   0.73742   0.00000  Uiso   1.00
C546   C     0.59878   0.24999   0.76256   0.00000  Uiso   1.00
C547   C     0.34572   0.24936   0.73065   0.00000  Uiso   1.00
C548   C     0.65426   0.24985   0.76934   0.00000  Uiso   1.00
C549   C     0.48634   0.04833   0.78837   0.00000  Uiso   1.00
C550   C     0.54259   0.45086   0.73703   0.00000  Uiso   1.00
C551   C     0.48647   0.09411   0.78739   0.00000  Uiso   1.00
C552   C     0.54039   0.40502   0.73629   0.00000  Uiso   1.00
C553   C     0.50496   0.11655   0.74971   0.00000  Uiso   1.00
C554   C     0.49832   0.38277   0.75093   0.00000  Uiso   1.00
C555   C     0.52477   0.09204   0.71285   0.00000  Uiso   1.00
C556   C     0.45734   0.40672   0.76640   0.00000  Uiso   1.00
C557   C     0.52232   0.04585   0.71330   0.00000  Uiso   1.00
C558   C     0.45995   0.45294   0.76641   0.00000  Uiso   1.00
C559   C     0.50360   0.02381   0.75107   0.00000  Uiso   1.00
C560   C     0.50219   0.47518   0.75168   0.00000  Uiso   1.00
Cu561  Cu    0.50000   0.25000   0.79822   0.00000  Uiso   1.00
Cu562  Cu    0.50000   0.25001   0.70179   0.00000  Uiso   1.00
H563   H     0.65855   0.24901   0.69375   0.00000  Uiso   1.00
H564   H     0.34141   0.25023   0.80627   0.00000  Uiso   1.00
H565   H     0.47270   0.03212   0.81845   0.00000  Uiso   1.00
H566   H     0.57613   0.46725   0.72653   0.00000  Uiso   1.00
H567   H     0.47157   0.11200   0.81620   0.00000  Uiso   1.00
H568   H     0.57205   0.38675   0.72493   0.00000  Uiso   1.00
H569   H     0.53594   0.02698   0.68445   0.00000  Uiso   1.00
H570   H     0.42808   0.47178   0.77642   0.00000  Uiso   1.00
H571   H     0.57872   0.27257   0.54690   0.00000  Uiso   1.00
H572   H     0.47187   0.18346   0.95950   0.00000  Uiso   1.00
H573   H     0.57618   0.27653   0.63443   0.00000  Uiso   1.00
H574   H     0.46735   0.18548   0.87106   0.00000  Uiso   1.00
N575   N     0.50000   0.25001   0.62935   0.00000  Uiso   1.00
N576   N     0.50000   0.24999   0.87066   0.00000  Uiso   1.00
O577   O     0.50000   0.18573   0.79072   0.00000  Uiso   1.00
O578   O     0.50000   0.31428   0.70929   0.00000  Uiso   1.00
O579   O     0.50000   0.18573   0.70928   0.00000  Uiso   1.00
O580   O     0.50000   0.31427   0.79072   0.00000  Uiso   1.00
O581   O     0.42495   0.25000   0.78132   0.00000  Uiso   1.00
O582   O     0.57505   0.25001   0.71868   0.00000  Uiso   1.00
O583   O     0.42495   0.25000   0.69989   0.00000  Uiso   1.00
O584   O     0.57505   0.25000   0.80012   0.00000  Uiso   1.00
C585   C     0.55069   0.11275   0.67491   0.00000  Uiso   1.00
O586   O     0.58132   0.14356   0.68537   0.00000  Uiso   1.00
O587   O     0.54182   0.09552   0.62747   0.00000  Uiso   1.00
H588   H     0.56198   0.11207   0.60494   0.00000  Uiso   1.00
C589   C     0.41059   0.38525   0.78089   0.00000  Uiso   1.00
O590   O     0.39716   0.34792   0.76641   0.00000  Uiso   1.00
O591   O     0.38080   0.40848   0.81028   0.00000  Uiso   1.00
H592   H     0.34966   0.39072   0.81721   0.00000  Uiso   1.00
C593   C     0.41687   0.20721   0.61587   0.00000  Uiso   1.00
O594   O     0.37295   0.22141   0.61307   0.00000  Uiso   1.00
O595   O     0.42791   0.16497   0.63352   0.00000  Uiso   1.00
H596   H     0.39686   0.14993   0.64440   0.00000  Uiso   1.00
C597   C     0.55048   0.32081   0.87958   0.00000  Uiso   1.00
O598   O     0.59359   0.31266   0.87024   0.00000  Uiso   1.00
O599   O     0.53105   0.36356   0.87387   0.00000  Uiso   1.00
H600   H     0.55578   0.38458   0.86067   0.00000  Uiso   1.00
C601   C     0.40321   0.22866   0.51429   0.00000  Uiso   1.00
H602   H     0.40261   0.23981   0.97666   0.00000  Uiso   1.00
H603   H     0.39332   0.19283   0.51358   0.00000  Uiso   1.00
H604   H     0.37227   0.24765   0.52813   0.00000  Uiso   1.00
C605   C     0.52779   0.33237   0.97697   0.00000  Uiso   1.00
H606   H     0.51543   0.33314   0.51319   0.00000  Uiso   1.00
H607   H     0.56988   0.34002   0.98104   0.00000  Uiso   1.00
H608   H     0.50599   0.35922   0.95696   0.00000  Uiso   1.00
C609   C     0.83532   0.16500   0.74985   0.00000  Uiso   1.00
C610   C     0.83248   0.33478   0.75027   0.00000  Uiso   1.00
C611   C     0.87682   0.26275   0.56015   0.00000  Uiso   1.00
C612   C     0.81755   0.21328   0.94334   0.00000  Uiso   1.00
C613   C     0.87565   0.26448   0.61051   0.00000  Uiso   1.00
C614   C     0.81553   0.21419   0.89259   0.00000  Uiso   1.00
C615   C     0.79104   0.23355   0.59787   0.00000  Uiso   1.00
C616   C     0.85336   0.28592   0.89924   0.00000  Uiso   1.00
C617   C     0.78788   0.23747   0.54668   0.00000  Uiso   1.00
C618   C     0.84927   0.28872   0.94955   0.00000  Uiso   1.00
C619   C     0.83246   0.25030   0.52709   0.00000  Uiso   1.00
C620   C     0.83329   0.25094   0.97278   0.00000  Uiso   1.00
C621   C     0.73454   0.24952   0.73742   0.00000  Uiso   1.00
C622   C     0.93212   0.24999   0.76256   0.00000  Uiso   1.00
C623   C     0.67905   0.24936   0.73065   0.00000  Uiso   1.00
C624   C     0.98759   0.24985   0.76934   0.00000  Uiso   1.00
C625   C     0.81967   0.04833   0.78837   0.00000  Uiso   1.00
C626   C     0.87592   0.45086   0.73703   0.00000  Uiso   1.00
C627   C     0.81980   0.09411   0.78739   0.00000  Uiso   1.00
C628   C     0.87372   0.40502   0.73629   0.00000  Uiso   1.00
C629   C     0.83830   0.11655   0.74971   0.00000  Uiso   1.00
C630   C     0.83166   0.38277   0.75093   0.00000  Uiso   1.00
C631   C     0.85811   0.09204   0.71285   0.00000  Uiso   1.00
C632   C     0.79067   0.40672   0.76640   0.00000  Uiso   1.00
C633   C     0.85565   0.04585   0.71330   0.00000  Uiso   1.00
C634   C     0.79328   0.45294   0.76641   0.00000  Uiso   1.00
C635   C     0.83693   0.02381   0.75107   0.00000  Uiso   1.00
C636   C     0.83553   0.47518   0.75168   0.00000  Uiso   1.00
Cu637  Cu    0.83333   0.25000   0.79822   0.00000  Uiso   1.00
Cu638  Cu    0.83333   0.25001   0.70179   0.00000  Uiso   1.00
H639   H     0.99189   0.24901   0.69375   0.00000  Uiso   1.00
H640   H     0.67474   0.25023   0.80627   0.00000  Uiso   1.00
H641   H     0.80604   0.03212   0.81845   0.00000  Uiso   1.00
H642   H     0.90946   0.46725   0.72653   0.00000  Uiso   1.00
H643   H     0.80490   0.11200   0.81620   0.00000  Uiso   1.00
H644   H     0.90538   0.38675   0.72493   0.00000  Uiso   1.00
H645   H     0.86928   0.02698   0.68445   0.00000  Uiso   1.00
H646   H     0.76141   0.47178   0.77642   0.00000  Uiso   1.00
H647   H     0.91205   0.27257   0.54690   0.00000  Uiso   1.00
H648   H     0.80521   0.18346   0.95950   0.00000  Uiso   1.00
H649   H     0.90951   0.27653   0.63443   0.00000  Uiso   1.00
H650   H     0.80068   0.18548   0.87106   0.00000  Uiso   1.00
N651   N     0.83333   0.25001   0.62935   0.00000  Uiso   1.00
N652   N     0.83333   0.24999   0.87066   0.00000  Uiso   1.00
O653   O     0.83334   0.18573   0.79072   0.00000  Uiso   1.00
O654   O     0.83333   0.31428   0.70929   0.00000  Uiso   1.00
O655   O     0.83334   0.18573   0.70928   0.00000  Uiso   1.00
O656   O     0.83333   0.31427   0.79072   0.00000  Uiso   1.00
O657   O     0.75828   0.25000   0.78132   0.00000  Uiso   1.00
O658   O     0.90839   0.25001   0.71868   0.00000  Uiso   1.00
O659   O     0.75828   0.25000   0.69989   0.00000  Uiso   1.00
O660   O     0.90839   0.25000   0.80012   0.00000  Uiso   1.00
C661   C     0.88402   0.11275   0.67491   0.00000  Uiso   1.00
O662   O     0.91466   0.14356   0.68537   0.00000  Uiso   1.00
O663   O     0.87516   0.09552   0.62747   0.00000  Uiso   1.00
H664   H     0.89532   0.11207   0.60494   0.00000  Uiso   1.00
C665   C     0.74392   0.38525   0.78089   0.00000  Uiso   1.00
O666   O     0.73049   0.34792   0.76641   0.00000  Uiso   1.00
O667   O     0.71413   0.40848   0.81028   0.00000  Uiso   1.00
H668   H     0.68300   0.39072   0.81721   0.00000  Uiso   1.00
C669   C     0.75020   0.20721   0.61587   0.00000  Uiso   1.00
O670   O     0.70628   0.22141   0.61307   0.00000  Uiso   1.00
O671   O     0.76125   0.16497   0.63352   0.00000  Uiso   1.00
H672   H     0.73020   0.14993   0.64440   0.00000  Uiso   1.00
C673   C     0.88382   0.32081   0.87958   0.00000  Uiso   1.00
O674   O     0.92692   0.31266   0.87024   0.00000  Uiso   1.00
O675   O     0.86438   0.36356   0.87387   0.00000  Uiso   1.00
H676   H     0.88912   0.38458   0.86067   0.00000  Uiso   1.00
C677   C     0.73654   0.22866   0.51429   0.00000  Uiso   1.00
H678   H     0.73594   0.23981   0.97666   0.00000  Uiso   1.00
H679   H     0.72665   0.19283   0.51358   0.00000  Uiso   1.00
H680   H     0.70561   0.24765   0.52813   0.00000  Uiso   1.00
C681   C     0.86113   0.33237   0.97697   0.00000  Uiso   1.00
H682   H     0.84876   0.33314   0.51319   0.00000  Uiso   1.00
H683   H     0.90322   0.34002   0.98104   0.00000  Uiso   1.00
H684   H     0.83932   0.35922   0.95696   0.00000  Uiso   1.00
C685   C     0.16866   0.66500   0.74985   0.00000  Uiso   1.00
C686   C     0.16582   0.83478   0.75027   0.00000  Uiso   1.00
C687   C     0.21016   0.76275   0.56015   0.00000  Uiso   1.00
C688   C     0.15088   0.71328   0.94334   0.00000  Uiso   1.00
C689   C     0.20899   0.76448   0.61051   0.00000  Uiso   1.00
C690   C     0.14886   0.71419   0.89259   0.00000  Uiso   1.00
C691   C     0.12437   0.73355   0.59787   0.00000  Uiso   1.00
C692   C     0.18669   0.78592   0.89924   0.00000  Uiso   1.00
C693   C     0.12121   0.73747   0.54668   0.00000  Uiso   1.00
C694   C     0.18260   0.78872   0.94955   0.00000  Uiso   1.00
C695   C     0.16579   0.75030   0.52709   0.00000  Uiso   1.00
C696   C     0.16663   0.75094   0.97278   0.00000  Uiso   1.00
C697   C     0.06788   0.74952   0.73742   0.00000  Uiso   1.00
C698   C     0.26545   0.74999   0.76256   0.00000  Uiso   1.00
C699   C     0.01238   0.74936   0.73065   0.00000  Uiso   1.00
C700   C     0.32093   0.74985   0.76934   0.00000  Uiso   1.00
C701   C     0.15300   0.54833   0.78837   0.00000  Uiso   1.00
C702   C     0.20925   0.95086   0.73703   0.00000  Uiso   1.00
C703   C     0.15314   0.59411   0.78739   0.00000  Uiso   1.00
C704   C     0.20706   0.90502   0.73629   0.00000  Uiso   1.00
C705   C     0.17163   0.61655   0.74971   0.00000  Uiso   1.00
C706   C     0.16499   0.88277   0.75093   0.00000  Uiso   1.00
C707   C     0.19144   0.59204   0.71285   0.00000  Uiso   1.00
C708   C     0.12401   0.90672   0.76640   0.00000  Uiso   1.00
C709   C     0.18899   0.54585   0.71330   0.00000  Uiso   1.00
C710   C     0.12662   0.95294   0.76641   0.00000  Uiso   1.00
C711   C     0.17027   0.52381   0.75107   0.00000  Uiso   1.00
C712   C     0.16886   0.97518   0.75168   0.00000  Uiso   1.00
Cu713  Cu    0.16667   0.75000   0.79822   0.00000  Uiso   1.00
Cu714  Cu    0.16667   0.75001   0.70179   0.00000  Uiso   1.00
H715   H     0.32522   0.74901   0.69375   0.00000  Uiso   1.00
H716   H     0.00808   0.75023   0.80627   0.00000  Uiso   1.00
H717   H     0.13937   0.53212   0.81845   0.00000  Uiso   1.00
H718   H     0.24280   0.96725   0.72653   0.00000  Uiso   1.00
H719   H     0.13823   0.61200   0.81620   0.00000  Uiso   1.00
H720   H     0.23872   0.88675   0.72493   0.00000  Uiso   1.00
H721   H     0.20261   0.52698   0.68445   0.00000  Uiso   1.00
H722   H     0.09474   0.97178   0.77642   0.00000  Uiso   1.00
H723   H     0.24538   0.77257   0.54690   0.00000  Uiso   1.00
H724   H     0.13854   0.68346   0.95950   0.00000  Uiso   1.00
H725   H     0.24285   0.77653   0.63443   0.00000  Uiso   1.00
H726   H     0.13401   0.68548   0.87106   0.00000  Uiso   1.00
N727   N     0.16667   0.75001   0.62935   0.00000  Uiso   1.00
N728   N     0.16667   0.74999   0.87066   0.00000  Uiso   1.00
O729   O     0.16667   0.68573   0.79072   0.00000  Uiso   1.00
O730   O     0.16666   0.81428   0.70929   0.00000  Uiso   1.00
O731   O     0.16667   0.68573   0.70928   0.00000  Uiso   1.00
O732   O     0.16666   0.81427   0.79072   0.00000  Uiso   1.00
O733   O     0.09161   0.75000   0.78132   0.00000  Uiso   1.00
O734   O     0.24172   0.75001   0.71868   0.00000  Uiso   1.00
O735   O     0.09161   0.75000   0.69989   0.00000  Uiso   1.00
O736   O     0.24172   0.75000   0.80012   0.00000  Uiso   1.00
C737   C     0.21735   0.61275   0.67491   0.00000  Uiso   1.00
O738   O     0.24799   0.64356   0.68537   0.00000  Uiso   1.00
O739   O     0.20849   0.59552   0.62747   0.00000  Uiso   1.00
H740   H     0.22865   0.61207   0.60494   0.00000  Uiso   1.00
C741   C     0.07726   0.88525   0.78089   0.00000  Uiso   1.00
O742   O     0.06383   0.84792   0.76641   0.00000  Uiso   1.00
O743   O     0.04746   0.90848   0.81028   0.00000  Uiso   1.00
H744   H     0.01633   0.89072   0.81721   0.00000  Uiso   1.00
C745   C     0.08353   0.70721   0.61587   0.00000  Uiso   1.00
O746   O     0.03961   0.72141   0.61307   0.00000  Uiso   1.00
O747   O     0.09458   0.66497   0.63352   0.00000  Uiso   1.00
H748   H     0.06353   0.64993   0.64440   0.00000  Uiso   1.00
C749   C     0.21715   0.82081   0.87958   0.00000  Uiso   1.00
O750   O     0.26026   0.81266   0.87024   0.00000  Uiso   1.00
O751   O     0.19771   0.86356   0.87387   0.00000  Uiso   1.00
H752   H     0.22245   0.88458   0.86067   0.00000  Uiso   1.00
C753   C     0.06987   0.72866   0.51429   0.00000  Uiso   1.00
H754   H     0.06927   0.73981   0.97666   0.00000  Uiso   1.00
H755   H     0.05998   0.69283   0.51358   0.00000  Uiso   1.00
H756   H     0.03894   0.74765   0.52813   0.00000  Uiso   1.00
C757   C     0.19446   0.83237   0.97697   0.00000  Uiso   1.00
H758   H     0.18210   0.83314   0.51319   0.00000  Uiso   1.00
H759   H     0.23655   0.84002   0.98104   0.00000  Uiso   1.00
H760   H     0.17265   0.85922   0.95696   0.00000  Uiso   1.00
C761   C     0.50199   0.66500   0.74985   0.00000  Uiso   1.00
C762   C     0.49915   0.83478   0.75027   0.00000  Uiso   1.00
C763   C     0.54349   0.76275   0.56015   0.00000  Uiso   1.00
C764   C     0.48422   0.71328   0.94334   0.00000  Uiso   1.00
C765   C     0.54232   0.76448   0.61051   0.00000  Uiso   1.00
C766   C     0.48219   0.71419   0.89259   0.00000  Uiso   1.00
C767   C     0.45770   0.73355   0.59787   0.00000  Uiso   1.00
C768   C     0.52003   0.78592   0.89924   0.00000  Uiso   1.00
C769   C     0.45454   0.73747   0.54668   0.00000  Uiso   1.00
C770   C     0.51593   0.78872   0.94955   0.00000  Uiso   1.00
C771   C     0.49912   0.75030   0.52709   0.00000  Uiso   1.00
C772   C     0.49996   0.75094   0.97278   0.00000  Uiso   1.00
C773   C     0.40121   0.74952   0.73742   0.00000  Uiso   1.00
C774   C     0.59878   0.74999   0.76256   0.00000  Uiso   1.00
C775   C     0.34572   0.74936   0.73065   0.00000  Uiso   1.00
C776   C     0.65426   0.74985   0.76934   0.00000  Uiso   1.00
C777   C     0.48634   0.54833   0.78837   0.00000  Uiso   1.00
C778   C     0.54259   0.95086   0.73703   0.00000  Uiso   1.00
C779   C     0.48647   0.59411   0.78739   0.00000  Uiso   1.00
C780   C     0.54039   0.90502   0.73629   0.00000  Uiso   1.00
C781   C     0.50496   0.61655   0.74971   0.00000  Uiso   1.00
C782   C     0.49832   0.88277   0.75093   0.00000  Uiso   1.00
C783   C     0.52477   0.59204   0.71285   0.00000  Uiso   1.00
C784   C     0.45734   0.90672   0.76640   0.00000  Uiso   1.00
C785   C     0.52232   0.54585   0.71330   0.00000  Uiso   1.00
C786   C     0.45995   0.95294   0.76641   0.00000  Uiso   1.00
C787   C     0.50360   0.52381   0.75107   0.00000  Uiso   1.00
C788   C     0.50219   0.97518   0.75168   0.00000  Uiso   1.00
Cu789  Cu    0.50000   0.75000   0.79822   0.00000  Uiso   1.00
Cu790  Cu    0.50000   0.75001   0.70179   0.00000  Uiso   1.00
H791   H     0.65855   0.74901   0.69375   0.00000  Uiso   1.00
H792   H     0.34141   0.75023   0.80627   0.00000  Uiso   1.00
H793   H     0.47270   0.53212   0.81845   0.00000  Uiso   1.00
H794   H     0.57613   0.96725   0.72653   0.00000  Uiso   1.00
H795   H     0.47157   0.61200   0.81620   0.00000  Uiso   1.00
H796   H     0.57205   0.88675   0.72493   0.00000  Uiso   1.00
H797   H     0.53594   0.52698   0.68445   0.00000  Uiso   1.00
H798   H     0.42808   0.97178   0.77642   0.00000  Uiso   1.00
H799   H     0.57872   0.77257   0.54690   0.00000  Uiso   1.00
H800   H     0.47187   0.68346   0.95950   0.00000  Uiso   1.00
H801   H     0.57618   0.77653   0.63443   0.00000  Uiso   1.00
H802   H     0.46735   0.68548   0.87106   0.00000  Uiso   1.00
N803   N     0.50000   0.75001   0.62935   0.00000  Uiso   1.00
N804   N     0.50000   0.74999   0.87066   0.00000  Uiso   1.00
O805   O     0.50000   0.68573   0.79072   0.00000  Uiso   1.00
O806   O     0.50000   0.81428   0.70929   0.00000  Uiso   1.00
O807   O     0.50000   0.68573   0.70928   0.00000  Uiso   1.00
O808   O     0.50000   0.81427   0.79072   0.00000  Uiso   1.00
O809   O     0.42495   0.75000   0.78132   0.00000  Uiso   1.00
O810   O     0.57505   0.75001   0.71868   0.00000  Uiso   1.00
O811   O     0.42495   0.75000   0.69989   0.00000  Uiso   1.00
O812   O     0.57505   0.75000   0.80012   0.00000  Uiso   1.00
C813   C     0.55069   0.61275   0.67491   0.00000  Uiso   1.00
O814   O     0.58132   0.64356   0.68537   0.00000  Uiso   1.00
O815   O     0.54182   0.59552   0.62747   0.00000  Uiso   1.00
H816   H     0.56198   0.61207   0.60494   0.00000  Uiso   1.00
C817   C     0.41059   0.88525   0.78089   0.00000  Uiso   1.00
O818   O     0.39716   0.84792   0.76641   0.00000  Uiso   1.00
O819   O     0.38080   0.90848   0.81028   0.00000  Uiso   1.00
H820   H     0.34966   0.89072   0.81721   0.00000  Uiso   1.00
C821   C     0.41687   0.70721   0.61587   0.00000  Uiso   1.00
O822   O     0.37295   0.72141   0.61307   0.00000  Uiso   1.00
O823   O     0.42791   0.66497   0.63352   0.00000  Uiso   1.00
H824   H     0.39686   0.64993   0.64440   0.00000  Uiso   1.00
C825   C     0.55048   0.82081   0.87958   0.00000  Uiso   1.00
O826   O     0.59359   0.81266   0.87024   0.00000  Uiso   1.00
O827   O     0.53105   0.86356   0.87387   0.00000  Uiso   1.00
H828   H     0.55578   0.88458   0.86067   0.00000  Uiso   1.00
C829   C     0.40321   0.72866   0.51429   0.00000  Uiso   1.00
H830   H     0.40261   0.73981   0.97666   0.00000  Uiso   1.00
H831   H     0.39332   0.69283   0.51358   0.00000  Uiso   1.00
H832   H     0.37227   0.74765   0.52813   0.00000  Uiso   1.00
C833   C     0.52779   0.83237   0.97697   0.00000  Uiso   1.00
H834   H     0.51543   0.83314   0.51319   0.00000  Uiso   1.00
H835   H     0.56988   0.84002   0.98104   0.00000  Uiso   1.00
H836   H     0.50599   0.85922   0.95696   0.00000  Uiso   1.00
C837   C     0.83532   0.66500   0.74985   0.00000  Uiso   1.00
C838   C     0.83248   0.83478   0.75027   0.00000  Uiso   1.00
C839   C     0.87682   0.76275   0.56015   0.00000  Uiso   1.00
C840   C     0.81755   0.71328   0.94334   0.00000  Uiso   1.00
C841   C     0.87565   0.76448   0.61051   0.00000  Uiso   1.00
C842   C     0.81553   0.71419   0.89259   0.00000  Uiso   1.00
C843   C     0.79104   0.73355   0.59787   0.00000  Uiso   1.00
C844   C     0.85336   0.78592   0.89924   0.00000  Uiso   1.00
C845   C     0.78788   0.73747   0.54668   0.00000  Uiso   1.00
C846   C     0.84927   0.78872   0.94955   0.00000  Uiso   1.00
C847   C     0.83246   0.75030   0.52709   0.00000  Uiso   1.00
C848   C     0.83329   0.75094   0.97278   0.00000  Uiso   1.00
C849   C     0.73454   0.74952   0.73742   0.00000  Uiso   1.00
C850   C     0.93212   0.74999   0.76256   0.00000  Uiso   1.00
C851   C     0.67905   0.74936   0.73065   0.00000  Uiso   1.00
C852   C     0.98759   0.74985   0.76934   0.00000  Uiso   1.00
C853   C     0.81967   0.54833   0.78837   0.00000  Uiso   1.00
C854   C     0.87592   0.95086   0.73703   0.00000  Uiso   1.00
C855   C     0.81980   0.59411   0.78739   0.00000  Uiso   1.00
C856   C     0.87372   0.90502   0.73629   0.00000  Uiso   1.00
C857   C     0.83830   0.61655   0.74971   0.00000  Uiso   1.00
C858   C     0.83166   0.88277   0.75093   0.00000  Uiso   1.00
C859   C     0.85811   0.59204   0.71285   0.00000  Uiso   1.00
C860   C     0.79067   0.90672   0.76640   0.00000  Uiso   1.00
C861   C     0.85565   0.54585   0.71330   0.00000  Uiso   1.00
C862   C     0.79328   0.95294   0.76641   0.00000  Uiso   1.00
C863   C     0.83693   0.52381   0.75107   0.00000  Uiso   1.00
C864   C     0.83553   0.97518   0.75168   0.00000  Uiso   1.00
Cu865  Cu    0.83333   0.75000   0.79822   0.00000  Uiso   1.00
Cu866  Cu    0.83333   0.75001   0.70179   0.00000  Uiso   1.00
H867   H     0.99189   0.74901   0.69375   0.00000  Uiso   1.00
H868   H     0.67474   0.75023   0.80627   0.00000  Uiso   1.00
H869   H     0.80604   0.53212   0.81845   0.00000  Uiso   1.00
H870   H     0.90946   0.96725   0.72653   0.00000  Uiso   1.00
H871   H     0.80490   0.61200   0.81620   0.00000  Uiso   1.00
H872   H     0.90538   0.88675   0.72493   0.00000  Uiso   1.00
H873   H     0.86928   0.52698   0.68445   0.00000  Uiso   1.00
H874   H     0.76141   0.97178   0.77642   0.00000  Uiso   1.00
H875   H     0.91205   0.77257   0.54690   0.00000  Uiso   1.00
H876   H     0.80521   0.68346   0.95950   0.00000  Uiso   1.00
H877   H     0.90951   0.77653   0.63443   0.00000  Uiso   1.00
H878   H     0.80068   0.68548   0.87106   0.00000  Uiso   1.00
N879   N     0.83333   0.75001   0.62935   0.00000  Uiso   1.00
N880   N     0.83333   0.74999   0.87066   0.00000  Uiso   1.00
O881   O     0.83334   0.68573   0.79072   0.00000  Uiso   1.00
O882   O     0.83333   0.81428   0.70929   0.00000  Uiso   1.00
O883   O     0.83334   0.68573   0.70928   0.00000  Uiso   1.00
O884   O     0.83333   0.81427   0.79072   0.00000  Uiso   1.00
O885   O     0.75828   0.75000   0.78132   0.00000  Uiso   1.00
O886   O     0.90839   0.75001   0.71868   0.00000  Uiso   1.00
O887   O     0.75828   0.75000   0.69989   0.00000  Uiso   1.00
O888   O     0.90839   0.75000   0.80012   0.00000  Uiso   1.00
C889   C     0.88402   0.61275   0.67491   0.00000  Uiso   1.00
O890   O     0.91466   0.64356   0.68537   0.00000  Uiso   1.00
O891   O     0.87516   0.59552   0.62747   0.00000  Uiso   1.00
H892   H     0.89532   0.61207   0.60494   0.00000  Uiso   1.00
C893   C     0.74392   0.88525   0.78089   0.00000  Uiso   1.00
O894   O     0.73049   0.84792   0.76641   0.00000  Uiso   1.00
O895   O     0.71413   0.90848   0.81028   0.00000  Uiso   1.00
H896   H     0.68300   0.89072   0.81721   0.00000  Uiso   1.00
C897   C     0.75020   0.70721   0.61587   0.00000  Uiso   1.00
O898   O     0.70628   0.72141   0.61307   0.00000  Uiso   1.00
O899   O     0.76125   0.66497   0.63352   0.00000  Uiso   1.00
H900   H     0.73020   0.64993   0.64440   0.00000  Uiso   1.00
C901   C     0.88382   0.82081   0.87958   0.00000  Uiso   1.00
O902   O     0.92692   0.81266   0.87024   0.00000  Uiso   1.00
O903   O     0.86438   0.86356   0.87387   0.00000  Uiso   1.00
H904   H     0.88912   0.88458   0.86067   0.00000  Uiso   1.00
C905   C     0.73654   0.72866   0.51429   0.00000  Uiso   1.00
H906   H     0.73594   0.73981   0.97666   0.00000  Uiso   1.00
H907   H     0.72665   0.69283   0.51358   0.00000  Uiso   1.00
H908   H     0.70561   0.74765   0.52813   0.00000  Uiso   1.00
C909   C     0.86113   0.83237   0.97697   0.00000  Uiso   1.00
H910   H     0.84876   0.83314   0.51319   0.00000  Uiso   1.00
H911   H     0.90322   0.84002   0.98104   0.00000  Uiso   1.00
H912   H     0.83932   0.85922   0.95696   0.00000  Uiso   1.00
loop_
_geom_bond_atom_site_label_1
_geom_bond_atom_site_label_2
_geom_bond_distance
_geom_bond_site_symmetry_2
_ccdc_geom_bond_type
C1     C21     1.468   .     S
C1     O47     1.299   .     A
C1     O45     1.299   .     A
C2     O46     1.294   .     A
C2     C22     1.452   .     S
C2     O48     1.295   .     A
C3     H39     1.083   .     S
C3     C5      1.410   .     A
C3     C11     1.411   .     A
C4     H40     1.083   .     S
C4     C12     1.412   .     A
C4     C6      1.409   .     A
C5     H41     1.080   .     S
C5     N43     1.365   .     A
C6     N44     1.365   .     A
C6     H42     1.080   .     S
C7     C61     1.477   .     S
C7     N43     1.385   .     A
C7     C9      1.425   .     A
C8     N44     1.385   .     A
C8     C65     1.476   .     S
C8     C10     1.425   .     A
C9     C11     1.413   .     A
C9     C69     1.519   .     S
C10    C73     1.518   .     S
C10    C12     1.413   .     A
C11    C468    1.519   1_554 S
C12    C467    1.519   .     S
C13    O51     1.295   .     A
C13    O49     1.287   .     A
C13    C15     1.435   .     S
C14    O52     1.295   .     A
C14    O50     1.286   .     A
C14    C16     1.435   .     S
C15    C168    1.340   1_455 S
C15    H183    1.087   1_455 S
C16    C91     1.340   .     S
C16    H108    1.087   .     S
C17    H33     1.083   .     S
C17    C27     1.399   .     A
C17    C19     1.386   .     A
C18    C20     1.387   .     A
C18    C28     1.401   .     A
C18    H34     1.083   .     S
C19    C21     1.404   .     A
C19    H35     1.083   .     S
C20    C22     1.399   .     A
C20    H36     1.084   .     S
C21    C23     1.420   .     A
C22    C24     1.417   .     A
C23    C53     1.484   .     S
C23    C25     1.398   .     A
C24    C26     1.399   .     A
C24    C57     1.489   .     S
C25    H37     1.084   .     S
C25    C27     1.403   .     A
C26    H38     1.083   .     S
C26    C28     1.403   .     A
C27    C256    1.471   1_545 S
C28    C255    1.471   .     S
Cu29   O49     1.948   .     S
Cu29   O48     1.959   .     S
Cu29   O45     1.951   .     S
Cu29   Cu30    2.690   .     S
Cu29   N44     2.021   .     S
Cu29   O52     1.955   .     S
Cu30   O51     1.955   .     S
Cu30   O50     1.948   .     S
Cu30   O47     1.959   .     S
Cu30   N43     2.021   .     S
Cu30   O46     1.951   .     S
H31    C91     1.087   .     S
H32    C168    1.087   1_455 S
C53    O54     1.223   .     D
C53    O55     1.398   .     S
O55    H56     1.014   .     S
C57    O59     1.399   .     S
C57    O58     1.221   .     D
O59    H60     1.014   .     S
C61    O63     1.396   .     S
C61    O62     1.223   .     D
O63    H64     1.014   .     S
C65    O67     1.399   .     S
C65    O66     1.222   .     D
O67    H68     1.014   .     S
C69    H71     1.110   .     S
C69    H72     1.109   .     S
C69    H526    1.106   1_554 S
H70    C525    1.106   .     S
C73    H75     1.110   .     S
C73    H76     1.109   .     S
C73    H530    1.106   .     S
H74    C529    1.106   1_554 S
C77    C97     1.468   .     S
C77    O123    1.299   .     A
C77    O121    1.299   .     A
C78    O122    1.294   .     A
C78    C98     1.452   .     S
C78    O124    1.295   .     A
C79    H115    1.083   .     S
C79    C81     1.410   .     A
C79    C87     1.411   .     A
C80    H116    1.083   .     S
C80    C88     1.412   .     A
C80    C82     1.409   .     A
C81    H117    1.080   .     S
C81    N119    1.365   .     A
C82    N120    1.365   .     A
C82    H118    1.080   .     S
C83    C137    1.477   .     S
C83    N119    1.385   .     A
C83    C85     1.425   .     A
C84    N120    1.385   .     A
C84    C141    1.476   .     S
C84    C86     1.425   .     A
C85    C87     1.413   .     A
C85    C145    1.519   .     S
C86    C149    1.518   .     S
C86    C88     1.413   .     A
C87    C544    1.519   1_554 S
C88    C543    1.519   .     S
C89    O127    1.295   .     A
C89    O125    1.287   .     A
C89    C91     1.435   .     S
C90    O128    1.295   .     A
C90    O126    1.286   .     A
C90    C92     1.435   .     S
C92    C167    1.340   .     S
C92    H184    1.087   .     S
C93    H109    1.083   .     S
C93    C103    1.399   .     A
C93    C95     1.386   .     A
C94    C96     1.387   .     A
C94    C104    1.401   .     A
C94    H110    1.083   .     S
C95    C97     1.404   .     A
C95    H111    1.083   .     S
C96    C98     1.399   .     A
C96    H112    1.084   .     S
C97    C99     1.420   .     A
C98    C100    1.417   .     A
C99    C129    1.484   .     S
C99    C101    1.398   .     A
C100   C102    1.399   .     A
C100   C133    1.489   .     S
C101   H113    1.084   .     S
C101   C103    1.403   .     A
C102   H114    1.083   .     S
C102   C104    1.403   .     A
C103   C332    1.471   1_545 S
C104   C331    1.471   .     S
Cu105  O125    1.948   .     S
Cu105  O124    1.959   .     S
Cu105  O121    1.951   .     S
Cu105  Cu106   2.690   .     S
Cu105  N120    2.021   .     S
Cu105  O128    1.955   .     S
Cu106  O127    1.955   .     S
Cu106  O126    1.948   .     S
Cu106  O123    1.959   .     S
Cu106  N119    2.021   .     S
Cu106  O122    1.951   .     S
H107   C167    1.087   .     S
C129   O130    1.223   .     D
C129   O131    1.398   .     S
O131   H132    1.014   .     S
C133   O135    1.399   .     S
C133   O134    1.221   .     D
O135   H136    1.014   .     S
C137   O139    1.396   .     S
C137   O138    1.223   .     D
O139   H140    1.014   .     S
C141   O143    1.399   .     S
C141   O142    1.222   .     D
O143   H144    1.014   .     S
C145   H147    1.110   .     S
C145   H148    1.109   .     S
C145   H602    1.106   1_554 S
H146   C601    1.106   .     S
C149   H151    1.110   .     S
C149   H152    1.109   .     S
C149   H606    1.106   .     S
H150   C605    1.106   1_554 S
C153   C173    1.468   .     S
C153   O199    1.299   .     A
C153   O197    1.299   .     A
C154   O198    1.294   .     A
C154   C174    1.452   .     S
C154   O200    1.295   .     A
C155   H191    1.083   .     S
C155   C157    1.410   .     A
C155   C163    1.411   .     A
C156   H192    1.083   .     S
C156   C164    1.412   .     A
C156   C158    1.409   .     A
C157   H193    1.080   .     S
C157   N195    1.365   .     A
C158   N196    1.365   .     A
C158   H194    1.080   .     S
C159   C213    1.477   .     S
C159   N195    1.385   .     A
C159   C161    1.425   .     A
C160   N196    1.385   .     A
C160   C217    1.476   .     S
C160   C162    1.425   .     A
C161   C163    1.413   .     A
C161   C221    1.519   .     S
C162   C225    1.518   .     S
C162   C164    1.413   .     A
C163   C620    1.519   1_554 S
C164   C619    1.519   .     S
C165   O203    1.295   .     A
C165   O201    1.287   .     A
C165   C167    1.435   .     S
C166   O204    1.295   .     A
C166   O202    1.286   .     A
C166   C168    1.435   .     S
C168   C15     1.340   1_655 S
C168   H32     1.087   1_655 S
C169   H185    1.083   .     S
C169   C179    1.399   .     A
C169   C171    1.386   .     A
C170   C172    1.387   .     A
C170   C180    1.401   .     A
C170   H186    1.083   .     S
C171   C173    1.404   .     A
C171   H187    1.083   .     S
C172   C174    1.399   .     A
C172   H188    1.084   .     S
C173   C175    1.420   .     A
C174   C176    1.417   .     A
C175   C205    1.484   .     S
C175   C177    1.398   .     A
C176   C178    1.399   .     A
C176   C209    1.489   .     S
C177   H189    1.084   .     S
C177   C179    1.403   .     A
C178   H190    1.083   .     S
C178   C180    1.403   .     A
C179   C408    1.471   1_545 S
C180   C407    1.471   .     S
Cu181  O201    1.948   .     S
Cu181  O200    1.959   .     S
Cu181  O197    1.951   .     S
Cu181  Cu182   2.690   .     S
Cu181  N196    2.021   .     S
Cu181  O204    1.955   .     S
Cu182  O203    1.955   .     S
Cu182  O202    1.948   .     S
Cu182  O199    1.959   .     S
Cu182  N195    2.021   .     S
Cu182  O198    1.951   .     S
H183   C15     1.087   1_655 S
C205   O206    1.223   .     D
C205   O207    1.398   .     S
O207   H208    1.014   .     S
C209   O211    1.399   .     S
C209   O210    1.221   .     D
O211   H212    1.014   .     S
C213   O215    1.396   .     S
C213   O214    1.223   .     D
O215   H216    1.014   .     S
C217   O219    1.399   .     S
C217   O218    1.222   .     D
O219   H220    1.014   .     S
C221   H223    1.110   .     S
C221   H224    1.109   .     S
C221   H678    1.106   1_554 S
H222   C677    1.106   .     S
C225   H227    1.110   .     S
C225   H228    1.109   .     S
C225   H682    1.106   .     S
H226   C681    1.106   1_554 S
C229   C249    1.468   .     S
C229   O275    1.299   .     A
C229   O273    1.299   .     A
C230   O274    1.294   .     A
C230   C250    1.452   .     S
C230   O276    1.295   .     A
C231   H267    1.083   .     S
C231   C233    1.410   .     A
C231   C239    1.411   .     A
C232   H268    1.083   .     S
C232   C240    1.412   .     A
C232   C234    1.409   .     A
C233   H269    1.080   .     S
C233   N271    1.365   .     A
C234   N272    1.365   .     A
C234   H270    1.080   .     S
C235   C289    1.477   .     S
C235   N271    1.385   .     A
C235   C237    1.425   .     A
C236   N272    1.385   .     A
C236   C293    1.476   .     S
C236   C238    1.425   .     A
C237   C239    1.413   .     A
C237   C297    1.519   .     S
C238   C301    1.518   .     S
C238   C240    1.413   .     A
C239   C696    1.519   1_554 S
C240   C695    1.519   .     S
C241   O279    1.295   .     A
C241   O277    1.287   .     A
C241   C243    1.435   .     S
C242   O280    1.295   .     A
C242   O278    1.286   .     A
C242   C244    1.435   .     S
C243   C396    1.340   1_455 S
C243   H411    1.087   1_455 S
C244   C319    1.340   .     S
C244   H336    1.087   .     S
C245   H261    1.083   .     S
C245   C255    1.399   .     A
C245   C247    1.386   .     A
C246   C248    1.387   .     A
C246   C256    1.401   .     A
C246   H262    1.083   .     S
C247   C249    1.404   .     A
C247   H263    1.083   .     S
C248   C250    1.399   .     A
C248   H264    1.084   .     S
C249   C251    1.420   .     A
C250   C252    1.417   .     A
C251   C281    1.484   .     S
C251   C253    1.398   .     A
C252   C254    1.399   .     A
C252   C285    1.489   .     S
C253   H265    1.084   .     S
C253   C255    1.403   .     A
C254   H266    1.083   .     S
C254   C256    1.403   .     A
C256   C27     1.471   1_565 S
Cu257  O277    1.948   .     S
Cu257  O276    1.959   .     S
Cu257  O273    1.951   .     S
Cu257  Cu258   2.690   .     S
Cu257  N272    2.021   .     S
Cu257  O280    1.955   .     S
Cu258  O279    1.955   .     S
Cu258  O278    1.948   .     S
Cu258  O275    1.959   .     S
Cu258  N271    2.021   .     S
Cu258  O274    1.951   .     S
H259   C319    1.087   .     S
H260   C396    1.087   1_455 S
C281   O282    1.223   .     D
C281   O283    1.398   .     S
O283   H284    1.014   .     S
C285   O287    1.399   .     S
C285   O286    1.221   .     D
O287   H288    1.014   .     S
C289   O291    1.396   .     S
C289   O290    1.223   .     D
O291   H292    1.014   .     S
C293   O295    1.399   .     S
C293   O294    1.222   .     D
O295   H296    1.014   .     S
C297   H299    1.110   .     S
C297   H300    1.109   .     S
C297   H754    1.106   1_554 S
H298   C753    1.106   .     S
C301   H303    1.110   .     S
C301   H304    1.109   .     S
C301   H758    1.106   .     S
H302   C757    1.106   1_554 S
C305   C325    1.468   .     S
C305   O351    1.299   .     A
C305   O349    1.299   .     A
C306   O350    1.294   .     A
C306   C326    1.452   .     S
C306   O352    1.295   .     A
C307   H343    1.083   .     S
C307   C309    1.410   .     A
C307   C315    1.411   .     A
C308   H344    1.083   .     S
C308   C316    1.412   .     A
C308   C310    1.409   .     A
C309   H345    1.080   .     S
C309   N347    1.365   .     A
C310   N348    1.365   .     A
C310   H346    1.080   .     S
C311   C365    1.477   .     S
C311   N347    1.385   .     A
C311   C313    1.425   .     A
C312   N348    1.385   .     A
C312   C369    1.476   .     S
C312   C314    1.425   .     A
C313   C315    1.413   .     A
C313   C373    1.519   .     S
C314   C377    1.518   .     S
C314   C316    1.413   .     A
C315   C772    1.519   1_554 S
C316   C771    1.519   .     S
C317   O355    1.295   .     A
C317   O353    1.287   .     A
C317   C319    1.435   .     S
C318   O356    1.295   .     A
C318   O354    1.286   .     A
C318   C320    1.435   .     S
C320   C395    1.340   .     S
C320   H412    1.087   .     S
C321   H337    1.083   .     S
C321   C331    1.399   .     A
C321   C323    1.386   .     A
C322   C324    1.387   .     A
C322   C332    1.401   .     A
C322   H338    1.083   .     S
C323   C325    1.404   .     A
C323   H339    1.083   .     S
C324   C326    1.399   .     A
C324   H340    1.084   .     S
C325   C327    1.420   .     A
C326   C328    1.417   .     A
C327   C357    1.484   .     S
C327   C329    1.398   .     A
C328   C330    1.399   .     A
C328   C361    1.489   .     S
C329   H341    1.084   .     S
C329   C331    1.403   .     A
C330   H342    1.083   .     S
C330   C332    1.403   .     A
C332   C103    1.471   1_565 S
Cu333  O353    1.948   .     S
Cu333  O352    1.959   .     S
Cu333  O349    1.951   .     S
Cu333  Cu334   2.690   .     S
Cu333  N348    2.021   .     S
Cu333  O356    1.955   .     S
Cu334  O355    1.955   .     S
Cu334  O354    1.948   .     S
Cu334  O351    1.959   .     S
Cu334  N347    2.021   .     S
Cu334  O350    1.951   .     S
H335   C395    1.087   .     S
C357   O358    1.223   .     D
C357   O359    1.398   .     S
O359   H360    1.014   .     S
C361   O363    1.399   .     S
C361   O362    1.221   .     D
O363   H364    1.014   .     S
C365   O367    1.396   .     S
C365   O366    1.223   .     D
O367   H368    1.014   .     S
C369   O371    1.399   .     S
C369   O370    1.222   .     D
O371   H372    1.014   .     S
C373   H375    1.110   .     S
C373   H376    1.109   .     S
C373   H830    1.106   1_554 S
H374   C829    1.106   .     S
C377   H379    1.110   .     S
C377   H380    1.109   .     S
C377   H834    1.106   .     S
H378   C833    1.106   1_554 S
C381   C401    1.468   .     S
C381   O427    1.299   .     A
C381   O425    1.299   .     A
C382   O426    1.294   .     A
C382   C402    1.452   .     S
C382   O428    1.295   .     A
C383   H419    1.083   .     S
C383   C385    1.410   .     A
C383   C391    1.411   .     A
C384   H420    1.083   .     S
C384   C392    1.412   .     A
C384   C386    1.409   .     A
C385   H421    1.080   .     S
C385   N423    1.365   .     A
C386   N424    1.365   .     A
C386   H422    1.080   .     S
C387   C441    1.477   .     S
C387   N423    1.385   .     A
C387   C389    1.425   .     A
C388   N424    1.385   .     A
C388   C445    1.476   .     S
C388   C390    1.425   .     A
C389   C391    1.413   .     A
C389   C449    1.519   .     S
C390   C453    1.518   .     S
C390   C392    1.413   .     A
C391   C848    1.519   1_554 S
C392   C847    1.519   .     S
C393   O431    1.295   .     A
C393   O429    1.287   .     A
C393   C395    1.435   .     S
C394   O432    1.295   .     A
C394   O430    1.286   .     A
C394   C396    1.435   .     S
C396   C243    1.340   1_655 S
C396   H260    1.087   1_655 S
C397   H413    1.083   .     S
C397   C407    1.399   .     A
C397   C399    1.386   .     A
C398   C400    1.387   .     A
C398   C408    1.401   .     A
C398   H414    1.083   .     S
C399   C401    1.404   .     A
C399   H415    1.083   .     S
C400   C402    1.399   .     A
C400   H416    1.084   .     S
C401   C403    1.420   .     A
C402   C404    1.417   .     A
C403   C433    1.484   .     S
C403   C405    1.398   .     A
C404   C406    1.399   .     A
C404   C437    1.489   .     S
C405   H417    1.084   .     S
C405   C407    1.403   .     A
C406   H418    1.083   .     S
C406   C408    1.403   .     A
C408   C179    1.471   1_565 S
Cu409  O429    1.948   .     S
Cu409  O428    1.959   .     S
Cu409  O425    1.951   .     S
Cu409  Cu410   2.690   .     S
Cu409  N424    2.021   .     S
Cu409  O432    1.955   .     S
Cu410  O431    1.955   .     S
Cu410  O430    1.948   .     S
Cu410  O427    1.959   .     S
Cu410  N423    2.021   .     S
Cu410  O426    1.951   .     S
H411   C243    1.087   1_655 S
C433   O434    1.223   .     D
C433   O435    1.398   .     S
O435   H436    1.014   .     S
C437   O439    1.399   .     S
C437   O438    1.221   .     D
O439   H440    1.014   .     S
C441   O443    1.396   .     S
C441   O442    1.223   .     D
O443   H444    1.014   .     S
C445   O447    1.399   .     S
C445   O446    1.222   .     D
O447   H448    1.014   .     S
C449   H451    1.110   .     S
C449   H452    1.109   .     S
C449   H906    1.106   1_554 S
H450   C905    1.106   .     S
C453   H455    1.110   .     S
C453   H456    1.109   .     S
C453   H910    1.106   .     S
H454   C909    1.106   1_554 S
C457   C477    1.468   .     S
C457   O503    1.299   .     A
C457   O501    1.299   .     A
C458   O502    1.294   .     A
C458   C478    1.452   .     S
C458   O504    1.295   .     A
C459   H495    1.083   .     S
C459   C461    1.410   .     A
C459   C467    1.411   .     A
C460   H496    1.083   .     S
C460   C468    1.412   .     A
C460   C462    1.409   .     A
C461   H497    1.080   .     S
C461   N499    1.365   .     A
C462   N500    1.365   .     A
C462   H498    1.080   .     S
C463   C517    1.477   .     S
C463   N499    1.385   .     A
C463   C465    1.425   .     A
C464   N500    1.385   .     A
C464   C521    1.476   .     S
C464   C466    1.425   .     A
C465   C467    1.413   .     A
C465   C525    1.519   .     S
C466   C529    1.518   .     S
C466   C468    1.413   .     A
C468   C11     1.519   1_556 S
C469   O507    1.295   .     A
C469   O505    1.287   .     A
C469   C471    1.435   .     S
C470   O508    1.295   .     A
C470   O506    1.286   .     A
C470   C472    1.435   .     S
C471   C624    1.340   1_455 S
C471   H639    1.087   1_455 S
C472   C547    1.340   .     S
C472   H564    1.087   .     S
C473   H489    1.083   .     S
C473   C483    1.399   .     A
C473   C475    1.386   .     A
C474   C476    1.387   .     A
C474   C484    1.401   .     A
C474   H490    1.083   .     S
C475   C477    1.404   .     A
C475   H491    1.083   .     S
C476   C478    1.399   .     A
C476   H492    1.084   .     S
C477   C479    1.420   .     A
C478   C480    1.417   .     A
C479   C509    1.484   .     S
C479   C481    1.398   .     A
C480   C482    1.399   .     A
C480   C513    1.489   .     S
C481   H493    1.084   .     S
C481   C483    1.403   .     A
C482   H494    1.083   .     S
C482   C484    1.403   .     A
C483   C712    1.471   1_545 S
C484   C711    1.471   .     S
Cu485  O505    1.948   .     S
Cu485  O504    1.959   .     S
Cu485  O501    1.951   .     S
Cu485  Cu486   2.690   .     S
Cu485  N500    2.021   .     S
Cu485  O508    1.955   .     S
Cu486  O507    1.955   .     S
Cu486  O506    1.948   .     S
Cu486  O503    1.959   .     S
Cu486  N499    2.021   .     S
Cu486  O502    1.951   .     S
H487   C547    1.087   .     S
H488   C624    1.087   1_455 S
C509   O510    1.223   .     D
C509   O511    1.398   .     S
O511   H512    1.014   .     S
C513   O515    1.399   .     S
C513   O514    1.221   .     D
O515   H516    1.014   .     S
C517   O519    1.396   .     S
C517   O518    1.223   .     D
O519   H520    1.014   .     S
C521   O523    1.399   .     S
C521   O522    1.222   .     D
O523   H524    1.014   .     S
C525   H527    1.110   .     S
C525   H528    1.109   .     S
H526   C69     1.106   1_556 S
C529   H531    1.110   .     S
C529   H532    1.109   .     S
C529   H74     1.106   1_556 S
C533   C553    1.468   .     S
C533   O579    1.299   .     A
C533   O577    1.299   .     A
C534   O578    1.294   .     A
C534   C554    1.452   .     S
C534   O580    1.295   .     A
C535   H571    1.083   .     S
C535   C537    1.410   .     A
C535   C543    1.411   .     A
C536   H572    1.083   .     S
C536   C544    1.412   .     A
C536   C538    1.409   .     A
C537   H573    1.080   .     S
C537   N575    1.365   .     A
C538   N576    1.365   .     A
C538   H574    1.080   .     S
C539   C593    1.477   .     S
C539   N575    1.385   .     A
C539   C541    1.425   .     A
C540   N576    1.385   .     A
C540   C597    1.476   .     S
C540   C542    1.425   .     A
C541   C543    1.413   .     A
C541   C601    1.519   .     S
C542   C605    1.518   .     S
C542   C544    1.413   .     A
C544   C87     1.519   1_556 S
C545   O583    1.295   .     A
C545   O581    1.287   .     A
C545   C547    1.435   .     S
C546   O584    1.295   .     A
C546   O582    1.286   .     A
C546   C548    1.435   .     S
C548   C623    1.340   .     S
C548   H640    1.087   .     S
C549   H565    1.083   .     S
C549   C559    1.399   .     A
C549   C551    1.386   .     A
C550   C552    1.387   .     A
C550   C560    1.401   .     A
C550   H566    1.083   .     S
C551   C553    1.404   .     A
C551   H567    1.083   .     S
C552   C554    1.399   .     A
C552   H568    1.084   .     S
C553   C555    1.420   .     A
C554   C556    1.417   .     A
C555   C585    1.484   .     S
C555   C557    1.398   .     A
C556   C558    1.399   .     A
C556   C589    1.489   .     S
C557   H569    1.084   .     S
C557   C559    1.403   .     A
C558   H570    1.083   .     S
C558   C560    1.403   .     A
C559   C788    1.471   1_545 S
C560   C787    1.471   .     S
Cu561  O581    1.948   .     S
Cu561  O580    1.959   .     S
Cu561  O577    1.951   .     S
Cu561  Cu562   2.690   .     S
Cu561  N576    2.021   .     S
Cu561  O584    1.955   .     S
Cu562  O583    1.955   .     S
Cu562  O582    1.948   .     S
Cu562  O579    1.959   .     S
Cu562  N575    2.021   .     S
Cu562  O578    1.951   .     S
H563   C623    1.087   .     S
C585   O586    1.223   .     D
C585   O587    1.398   .     S
O587   H588    1.014   .     S
C589   O591    1.399   .     S
C589   O590    1.221   .     D
O591   H592    1.014   .     S
C593   O595    1.396   .     S
C593   O594    1.223   .     D
O595   H596    1.014   .     S
C597   O599    1.399   .     S
C597   O598    1.222   .     D
O599   H600    1.014   .     S
C601   H603    1.110   .     S
C601   H604    1.109   .     S
H602   C145    1.106   1_556 S
C605   H607    1.110   .     S
C605   H608    1.109   .     S
C605   H150    1.106   1_556 S
C609   C629    1.468   .     S
C609   O655    1.299   .     A
C609   O653    1.299   .     A
C610   O654    1.294   .     A
C610   C630    1.452   .     S
C610   O656    1.295   .     A
C611   H647    1.083   .     S
C611   C613    1.410   .     A
C611   C619    1.411   .     A
C612   H648    1.083   .     S
C612   C620    1.412   .     A
C612   C614    1.409   .     A
C613   H649    1.080   .     S
C613   N651    1.365   .     A
C614   N652    1.365   .     A
C614   H650    1.080   .     S
C615   C669    1.477   .     S
C615   N651    1.385   .     A
C615   C617    1.425   .     A
C616   N652    1.385   .     A
C616   C673    1.476   .     S
C616   C618    1.425   .     A
C617   C619    1.413   .     A
C617   C677    1.519   .     S
C618   C681    1.518   .     S
C618   C620    1.413   .     A
C620   C163    1.519   1_556 S
C621   O659    1.295   .     A
C621   O657    1.287   .     A
C621   C623    1.435   .     S
C622   O660    1.295   .     A
C622   O658    1.286   .     A
C622   C624    1.435   .     S
C624   C471    1.340   1_655 S
C624   H488    1.087   1_655 S
C625   H641    1.083   .     S
C625   C635    1.399   .     A
C625   C627    1.386   .     A
C626   C628    1.387   .     A
C626   C636    1.401   .     A
C626   H642    1.083   .     S
C627   C629    1.404   .     A
C627   H643    1.083   .     S
C628   C630    1.399   .     A
C628   H644    1.084   .     S
C629   C631    1.420   .     A
C630   C632    1.417   .     A
C631   C661    1.484   .     S
C631   C633    1.398   .     A
C632   C634    1.399   .     A
C632   C665    1.489   .     S
C633   H645    1.084   .     S
C633   C635    1.403   .     A
C634   H646    1.083   .     S
C634   C636    1.403   .     A
C635   C864    1.471   1_545 S
C636   C863    1.471   .     S
Cu637  O657    1.948   .     S
Cu637  O656    1.959   .     S
Cu637  O653    1.951   .     S
Cu637  Cu638   2.690   .     S
Cu637  N652    2.021   .     S
Cu637  O660    1.955   .     S
Cu638  O659    1.955   .     S
Cu638  O658    1.948   .     S
Cu638  O655    1.959   .     S
Cu638  N651    2.021   .     S
Cu638  O654    1.951   .     S
H639   C471    1.087   1_655 S
C661   O662    1.223   .     D
C661   O663    1.398   .     S
O663   H664    1.014   .     S
C665   O667    1.399   .     S
C665   O666    1.221   .     D
O667   H668    1.014   .     S
C669   O671    1.396   .     S
C669   O670    1.223   .     D
O671   H672    1.014   .     S
C673   O675    1.399   .     S
C673   O674    1.222   .     D
O675   H676    1.014   .     S
C677   H679    1.110   .     S
C677   H680    1.109   .     S
H678   C221    1.106   1_556 S
C681   H683    1.110   .     S
C681   H684    1.109   .     S
C681   H226    1.106   1_556 S
C685   C705    1.468   .     S
C685   O731    1.299   .     A
C685   O729    1.299   .     A
C686   O730    1.294   .     A
C686   C706    1.452   .     S
C686   O732    1.295   .     A
C687   H723    1.083   .     S
C687   C689    1.410   .     A
C687   C695    1.411   .     A
C688   H724    1.083   .     S
C688   C696    1.412   .     A
C688   C690    1.409   .     A
C689   H725    1.080   .     S
C689   N727    1.365   .     A
C690   N728    1.365   .     A
C690   H726    1.080   .     S
C691   C745    1.477   .     S
C691   N727    1.385   .     A
C691   C693    1.425   .     A
C692   N728    1.385   .     A
C692   C749    1.476   .     S
C692   C694    1.425   .     A
C693   C695    1.413   .     A
C693   C753    1.519   .     S
C694   C757    1.518   .     S
C694   C696    1.413   .     A
C696   C239    1.519   1_556 S
C697   O735    1.295   .     A
C697   O733    1.287   .     A
C697   C699    1.435   .     S
C698   O736    1.295   .     A
C698   O734    1.286   .     A
C698   C700    1.435   .     S
C699   C852    1.340   1_455 S
C699   H867    1.087   1_455 S
C700   C775    1.340   .     S
C700   H792    1.087   .     S
C701   H717    1.083   .     S
C701   C711    1.399   .     A
C701   C703    1.386   .     A
C702   C704    1.387   .     A
C702   C712    1.401   .     A
C702   H718    1.083   .     S
C703   C705    1.404   .     A
C703   H719    1.083   .     S
C704   C706    1.399   .     A
C704   H720    1.084   .     S
C705   C707    1.420   .     A
C706   C708    1.417   .     A
C707   C737    1.484   .     S
C707   C709    1.398   .     A
C708   C710    1.399   .     A
C708   C741    1.489   .     S
C709   H721    1.084   .     S
C709   C711    1.403   .     A
C710   H722    1.083   .     S
C710   C712    1.403   .     A
C712   C483    1.471   1_565 S
Cu713  O733    1.948   .     S
Cu713  O732    1.959   .     S
Cu713  O729    1.951   .     S
Cu713  Cu714   2.690   .     S
Cu713  N728    2.021   .     S
Cu713  O736    1.955   .     S
Cu714  O735    1.955   .     S
Cu714  O734    1.948   .     S
Cu714  O731    1.959   .     S
Cu714  N727    2.021   .     S
Cu714  O730    1.951   .     S
H715   C775    1.087   .     S
H716   C852    1.087   1_455 S
C737   O738    1.223   .     D
C737   O739    1.398   .     S
O739   H740    1.014   .     S
C741   O743    1.399   .     S
C741   O742    1.221   .     D
O743   H744    1.014   .     S
C745   O747    1.396   .     S
C745   O746    1.223   .     D
O747   H748    1.014   .     S
C749   O751    1.399   .     S
C749   O750    1.222   .     D
O751   H752    1.014   .     S
C753   H755    1.110   .     S
C753   H756    1.109   .     S
H754   C297    1.106   1_556 S
C757   H759    1.110   .     S
C757   H760    1.109   .     S
C757   H302    1.106   1_556 S
C761   C781    1.468   .     S
C761   O807    1.299   .     A
C761   O805    1.299   .     A
C762   O806    1.294   .     A
C762   C782    1.452   .     S
C762   O808    1.295   .     A
C763   H799    1.083   .     S
C763   C765    1.410   .     A
C763   C771    1.411   .     A
C764   H800    1.083   .     S
C764   C772    1.412   .     A
C764   C766    1.409   .     A
C765   H801    1.080   .     S
C765   N803    1.365   .     A
C766   N804    1.365   .     A
C766   H802    1.080   .     S
C767   C821    1.477   .     S
C767   N803    1.385   .     A
C767   C769    1.425   .     A
C768   N804    1.385   .     A
C768   C825    1.476   .     S
C768   C770    1.425   .     A
C769   C771    1.413   .     A
C769   C829    1.519   .     S
C770   C833    1.518   .     S
C770   C772    1.413   .     A
C772   C315    1.519   1_556 S
C773   O811    1.295   .     A
C773   O809    1.287   .     A
C773   C775    1.435   .     S
C774   O812    1.295   .     A
C774   O810    1.286   .     A
C774   C776    1.435   .     S
C776   C851    1.340   .     S
C776   H868    1.087   .     S
C777   H793    1.083   .     S
C777   C787    1.399   .     A
C777   C779    1.386   .     A
C778   C780    1.387   .     A
C778   C788    1.401   .     A
C778   H794    1.083   .     S
C779   C781    1.404   .     A
C779   H795    1.083   .     S
C780   C782    1.399   .     A
C780   H796    1.084   .     S
C781   C783    1.420   .     A
C782   C784    1.417   .     A
C783   C813    1.484   .     S
C783   C785    1.398   .     A
C784   C786    1.399   .     A
C784   C817    1.489   .     S
C785   H797    1.084   .     S
C785   C787    1.403   .     A
C786   H798    1.083   .     S
C786   C788    1.403   .     A
C788   C559    1.471   1_565 S
Cu789  O809    1.948   .     S
Cu789  O808    1.959   .     S
Cu789  O805    1.951   .     S
Cu789  Cu790   2.690   .     S
Cu789  N804    2.021   .     S
Cu789  O812    1.955   .     S
Cu790  O811    1.955   .     S
Cu790  O810    1.948   .     S
Cu790  O807    1.959   .     S
Cu790  N803    2.021   .     S
Cu790  O806    1.951   .     S
H791   C851    1.087   .     S
C813   O814    1.223   .     D
C813   O815    1.398   .     S
O815   H816    1.014   .     S
C817   O819    1.399   .     S
C817   O818    1.221   .     D
O819   H820    1.014   .     S
C821   O823    1.396   .     S
C821   O822    1.223   .     D
O823   H824    1.014   .     S
C825   O827    1.399   .     S
C825   O826    1.222   .     D
O827   H828    1.014   .     S
C829   H831    1.110   .     S
C829   H832    1.109   .     S
H830   C373    1.106   1_556 S
C833   H835    1.110   .     S
C833   H836    1.109   .     S
C833   H378    1.106   1_556 S
C837   C857    1.468   .     S
C837   O883    1.299   .     A
C837   O881    1.299   .     A
C838   O882    1.294   .     A
C838   C858    1.452   .     S
C838   O884    1.295   .     A
C839   H875    1.083   .     S
C839   C841    1.410   .     A
C839   C847    1.411   .     A
C840   H876    1.083   .     S
C840   C848    1.412   .     A
C840   C842    1.409   .     A
C841   H877    1.080   .     S
C841   N879    1.365   .     A
C842   N880    1.365   .     A
C842   H878    1.080   .     S
C843   C897    1.477   .     S
C843   N879    1.385   .     A
C843   C845    1.425   .     A
C844   N880    1.385   .     A
C844   C901    1.476   .     S
C844   C846    1.425   .     A
C845   C847    1.413   .     A
C845   C905    1.519   .     S
C846   C909    1.518   .     S
C846   C848    1.413   .     A
C848   C391    1.519   1_556 S
C849   O887    1.295   .     A
C849   O885    1.287   .     A
C849   C851    1.435   .     S
C850   O888    1.295   .     A
C850   O886    1.286   .     A
C850   C852    1.435   .     S
C852   C699    1.340   1_655 S
C852   H716    1.087   1_655 S
C853   H869    1.083   .     S
C853   C863    1.399   .     A
C853   C855    1.386   .     A
C854   C856    1.387   .     A
C854   C864    1.401   .     A
C854   H870    1.083   .     S
C855   C857    1.404   .     A
C855   H871    1.083   .     S
C856   C858    1.399   .     A
C856   H872    1.084   .     S
C857   C859    1.420   .     A
C858   C860    1.417   .     A
C859   C889    1.484   .     S
C859   C861    1.398   .     A
C860   C862    1.399   .     A
C860   C893    1.489   .     S
C861   H873    1.084   .     S
C861   C863    1.403   .     A
C862   H874    1.083   .     S
C862   C864    1.403   .     A
C864   C635    1.471   1_565 S
Cu865  O885    1.948   .     S
Cu865  O884    1.959   .     S
Cu865  O881    1.951   .     S
Cu865  Cu866   2.690   .     S
Cu865  N880    2.021   .     S
Cu865  O888    1.955   .     S
Cu866  O887    1.955   .     S
Cu866  O886    1.948   .     S
Cu866  O883    1.959   .     S
Cu866  N879    2.021   .     S
Cu866  O882    1.951   .     S
H867   C699    1.087   1_655 S
C889   O890    1.223   .     D
C889   O891    1.398   .     S
O891   H892    1.014   .     S
C893   O895    1.399   .     S
C893   O894    1.221   .     D
O895   H896    1.014   .     S
C897   O899    1.396   .     S
C897   O898    1.223   .     D
O899   H900    1.014   .     S
C901   O903    1.399   .     S
C901   O902    1.222   .     D
O903   H904    1.014   .     S
C905   H907    1.110   .     S
C905   H908    1.109   .     S
H906   C449    1.106   1_556 S
C909   H911    1.110   .     S
C909   H912    1.109   .     S
C909   H454    1.106   1_556 S
