data_str_m3_o10_o17_pcu_sym.36
_audit_creation_date              2020-01-03
_audit_creation_method            'Materials Studio'
_symmetry_space_group_name_H-M    'P1'
_symmetry_Int_Tables_number       1
_symmetry_cell_setting            triclinic
loop_
_symmetry_equiv_pos_as_xyz
  x,y,z
_cell_length_a                    23.3042
_cell_length_b                    25.6493
_cell_length_c                    29.7581
_cell_angle_alpha                 90.9054
_cell_angle_beta                  86.0464
_cell_angle_gamma                 93.7208
loop_
_atom_site_label
_atom_site_type_symbol
_atom_site_fract_x
_atom_site_fract_y
_atom_site_fract_z
_atom_site_U_iso_or_equiv
_atom_site_adp_type
_atom_site_occupancy
C1     C     0.18194   0.26491   0.24880   0.00000  Uiso   1.00
C2     C     0.18580   0.21350   0.40602   0.00000  Uiso   1.00
C3     C     0.16378   0.16586   0.11623   0.00000  Uiso   1.00
C4     C     0.16945   0.16720   0.38377   0.00000  Uiso   1.00
C5     C     0.17997   0.21200   0.09376   0.00000  Uiso   1.00
C6     C     0.15268   0.12127   0.40633   0.00000  Uiso   1.00
C7     C     0.18107   0.21307   0.04719   0.00000  Uiso   1.00
C8     C     0.15155   0.12033   0.45287   0.00000  Uiso   1.00
C9     C     0.16554   0.16658   0.02347   0.00000  Uiso   1.00
C10    C     0.16727   0.16688   0.47651   0.00000  Uiso   1.00
C11    C     0.14871   0.11967   0.04678   0.00000  Uiso   1.00
C12    C     0.15139   0.06843   0.25114   0.00000  Uiso   1.00
C13    C     0.18443   0.21375   0.45314   0.00000  Uiso   1.00
C14    C     0.19841   0.25946   0.02416   0.00000  Uiso   1.00
C15    C     0.13403   0.07398   0.47598   0.00000  Uiso   1.00
C16    C     0.26849   0.32287   0.03915   0.00000  Uiso   1.00
C17    C     0.28418   0.03280   0.07253   0.00000  Uiso   1.00
C18    C     0.06350   0.01071   0.46171   0.00000  Uiso   1.00
C19    C     0.04753   0.29978   0.42937   0.00000  Uiso   1.00
C20    C     0.19902   0.25962   0.47726   0.00000  Uiso   1.00
C21    C     0.13392   0.07383   0.02285   0.00000  Uiso   1.00
C22    C     0.18998   0.31943   0.24806   0.00000  Uiso   1.00
C23    C     0.14335   0.01390   0.25177   0.00000  Uiso   1.00
C24    C     0.16751   0.16672   0.33630   0.00000  Uiso   1.00
C25    C     0.16579   0.16646   0.16370   0.00000  Uiso   1.00
C26    C     0.14777   0.11947   0.09368   0.00000  Uiso   1.00
H27    H     0.19229   0.24679   0.11295   0.00000  Uiso   1.00
H28    H     0.09604   0.07882   0.14037   0.00000  Uiso   1.00
H29    H     0.24478   0.27232   0.38709   0.00000  Uiso   1.00
H30    H     0.17485   0.28862   0.38921   0.00000  Uiso   1.00
H31    H     0.27555   0.00588   0.00470   0.00000  Uiso   1.00
H32    H     0.29779   0.29071   0.04284   0.00000  Uiso   1.00
H33    H     0.27693   0.01815   0.10752   0.00000  Uiso   1.00
H34    H     0.33029   0.04622   0.06631   0.00000  Uiso   1.00
H35    H     0.25733   0.06642   0.06857   0.00000  Uiso   1.00
H36    H     0.03419   0.04271   0.45745   0.00000  Uiso   1.00
H37    H     0.05667   0.32867   0.49651   0.00000  Uiso   1.00
H38    H     0.14011   0.08651   0.38719   0.00000  Uiso   1.00
H39    H     0.07451   0.26638   0.43390   0.00000  Uiso   1.00
H40    H     0.00152   0.28638   0.43622   0.00000  Uiso   1.00
H41    H     0.05428   0.31340   0.39405   0.00000  Uiso   1.00
H42    H     0.21041   0.29603   0.46010   0.00000  Uiso   1.00
H43    H     0.12271   0.03754   0.04033   0.00000  Uiso   1.00
H44    H     0.23400   0.00317   0.24449   0.00000  Uiso   1.00
H45    H     0.09933   0.33016   0.25533   0.00000  Uiso   1.00
H46    H     0.00456   0.12759   0.21604   0.00000  Uiso   1.00
H47    H     0.32878   0.20575   0.28395   0.00000  Uiso   1.00
H48    H     0.16586   0.06311   0.13679   0.00000  Uiso   1.00
N49    N     0.31678   0.15265   0.23783   0.00000  Uiso   1.00
N50    N     0.01656   0.18068   0.26217   0.00000  Uiso   1.00
N51    N     0.13156   0.07222   0.11807   0.00000  Uiso   1.00
N52    N     0.20283   0.25943   0.38006   0.00000  Uiso   1.00
O53    O     0.12975   0.24619   0.25298   0.00000  Uiso   1.00
O54    O     0.12177   0.02811   0.45219   0.00000  Uiso   1.00
O55    O     0.20358   0.08714   0.24701   0.00000  Uiso   1.00
O56    O     0.22613   0.23721   0.24518   0.00000  Uiso   1.00
O57    O     0.10720   0.09613   0.25481   0.00000  Uiso   1.00
O58    O     0.11847   0.17117   0.31997   0.00000  Uiso   1.00
O59    O     0.21486   0.16216   0.18002   0.00000  Uiso   1.00
O60    O     0.21485   0.16219   0.31217   0.00000  Uiso   1.00
O61    O     0.11848   0.17115   0.18782   0.00000  Uiso   1.00
O62    O     0.21016   0.30536   0.04806   0.00000  Uiso   1.00
Zn63   Zn    0.10231   0.17266   0.25521   0.00000  Uiso   1.00
Zn64   Zn    0.23102   0.16067   0.24479   0.00000  Uiso   1.00
C65    C     0.51527   0.26491   0.24880   0.00000  Uiso   1.00
C66    C     0.51913   0.21350   0.40602   0.00000  Uiso   1.00
C67    C     0.49712   0.16586   0.11623   0.00000  Uiso   1.00
C68    C     0.50279   0.16720   0.38377   0.00000  Uiso   1.00
C69    C     0.51331   0.21200   0.09376   0.00000  Uiso   1.00
C70    C     0.48601   0.12127   0.40633   0.00000  Uiso   1.00
C71    C     0.51440   0.21307   0.04719   0.00000  Uiso   1.00
C72    C     0.48488   0.12033   0.45287   0.00000  Uiso   1.00
C73    C     0.49888   0.16658   0.02347   0.00000  Uiso   1.00
C74    C     0.50060   0.16688   0.47651   0.00000  Uiso   1.00
C75    C     0.48204   0.11967   0.04678   0.00000  Uiso   1.00
C76    C     0.48472   0.06843   0.25114   0.00000  Uiso   1.00
C77    C     0.51776   0.21375   0.45314   0.00000  Uiso   1.00
C78    C     0.53174   0.25946   0.02416   0.00000  Uiso   1.00
C79    C     0.46736   0.07398   0.47598   0.00000  Uiso   1.00
C80    C     0.60183   0.32287   0.03915   0.00000  Uiso   1.00
C81    C     0.61751   0.03280   0.07253   0.00000  Uiso   1.00
C82    C     0.39683   0.01071   0.46171   0.00000  Uiso   1.00
C83    C     0.38086   0.29978   0.42937   0.00000  Uiso   1.00
C84    C     0.53236   0.25962   0.47726   0.00000  Uiso   1.00
C85    C     0.46725   0.07383   0.02285   0.00000  Uiso   1.00
C86    C     0.52331   0.31943   0.24806   0.00000  Uiso   1.00
C87    C     0.47668   0.01390   0.25177   0.00000  Uiso   1.00
C88    C     0.50085   0.16672   0.33630   0.00000  Uiso   1.00
C89    C     0.49912   0.16646   0.16370   0.00000  Uiso   1.00
C90    C     0.48111   0.11947   0.09368   0.00000  Uiso   1.00
H91    H     0.52562   0.24679   0.11295   0.00000  Uiso   1.00
H92    H     0.42937   0.07882   0.14037   0.00000  Uiso   1.00
H93    H     0.57811   0.27232   0.38709   0.00000  Uiso   1.00
H94    H     0.50818   0.28862   0.38921   0.00000  Uiso   1.00
H95    H     0.60888   0.00588   0.00470   0.00000  Uiso   1.00
H96    H     0.63112   0.29071   0.04284   0.00000  Uiso   1.00
H97    H     0.61026   0.01815   0.10752   0.00000  Uiso   1.00
H98    H     0.66362   0.04622   0.06631   0.00000  Uiso   1.00
H99    H     0.59066   0.06642   0.06857   0.00000  Uiso   1.00
H100   H     0.36753   0.04271   0.45745   0.00000  Uiso   1.00
H101   H     0.39000   0.32867   0.49651   0.00000  Uiso   1.00
H102   H     0.47345   0.08651   0.38719   0.00000  Uiso   1.00
H103   H     0.40784   0.26638   0.43390   0.00000  Uiso   1.00
H104   H     0.33485   0.28638   0.43622   0.00000  Uiso   1.00
H105   H     0.38761   0.31340   0.39405   0.00000  Uiso   1.00
H106   H     0.54374   0.29603   0.46010   0.00000  Uiso   1.00
H107   H     0.45604   0.03754   0.04033   0.00000  Uiso   1.00
H108   H     0.56733   0.00317   0.24449   0.00000  Uiso   1.00
H109   H     0.43266   0.33016   0.25533   0.00000  Uiso   1.00
H110   H     0.33789   0.12759   0.21604   0.00000  Uiso   1.00
H111   H     0.66211   0.20575   0.28395   0.00000  Uiso   1.00
H112   H     0.49920   0.06311   0.13679   0.00000  Uiso   1.00
N113   N     0.65011   0.15265   0.23783   0.00000  Uiso   1.00
N114   N     0.34989   0.18068   0.26217   0.00000  Uiso   1.00
N115   N     0.46490   0.07222   0.11807   0.00000  Uiso   1.00
N116   N     0.53616   0.25943   0.38006   0.00000  Uiso   1.00
O117   O     0.46308   0.24619   0.25298   0.00000  Uiso   1.00
O118   O     0.45510   0.02811   0.45219   0.00000  Uiso   1.00
O119   O     0.53692   0.08714   0.24701   0.00000  Uiso   1.00
O120   O     0.55946   0.23721   0.24518   0.00000  Uiso   1.00
O121   O     0.44054   0.09613   0.25481   0.00000  Uiso   1.00
O122   O     0.45181   0.17117   0.31997   0.00000  Uiso   1.00
O123   O     0.54819   0.16216   0.18002   0.00000  Uiso   1.00
O124   O     0.54819   0.16219   0.31217   0.00000  Uiso   1.00
O125   O     0.45181   0.17115   0.18782   0.00000  Uiso   1.00
O126   O     0.54349   0.30536   0.04806   0.00000  Uiso   1.00
Zn127  Zn    0.43565   0.17266   0.25521   0.00000  Uiso   1.00
Zn128  Zn    0.56435   0.16067   0.24479   0.00000  Uiso   1.00
C129   C     0.84861   0.26491   0.24880   0.00000  Uiso   1.00
C130   C     0.85247   0.21350   0.40602   0.00000  Uiso   1.00
C131   C     0.83045   0.16586   0.11623   0.00000  Uiso   1.00
C132   C     0.83612   0.16720   0.38377   0.00000  Uiso   1.00
C133   C     0.84664   0.21200   0.09376   0.00000  Uiso   1.00
C134   C     0.81935   0.12127   0.40633   0.00000  Uiso   1.00
C135   C     0.84773   0.21307   0.04719   0.00000  Uiso   1.00
C136   C     0.81821   0.12033   0.45287   0.00000  Uiso   1.00
C137   C     0.83221   0.16658   0.02347   0.00000  Uiso   1.00
C138   C     0.83394   0.16688   0.47651   0.00000  Uiso   1.00
C139   C     0.81537   0.11967   0.04678   0.00000  Uiso   1.00
C140   C     0.81806   0.06843   0.25114   0.00000  Uiso   1.00
C141   C     0.85110   0.21375   0.45314   0.00000  Uiso   1.00
C142   C     0.86508   0.25946   0.02416   0.00000  Uiso   1.00
C143   C     0.80069   0.07398   0.47598   0.00000  Uiso   1.00
C144   C     0.93516   0.32287   0.03915   0.00000  Uiso   1.00
C145   C     0.95084   0.03280   0.07253   0.00000  Uiso   1.00
C146   C     0.73017   0.01071   0.46171   0.00000  Uiso   1.00
C147   C     0.71420   0.29978   0.42937   0.00000  Uiso   1.00
C148   C     0.86569   0.25962   0.47726   0.00000  Uiso   1.00
C149   C     0.80058   0.07383   0.02285   0.00000  Uiso   1.00
C150   C     0.85664   0.31943   0.24806   0.00000  Uiso   1.00
C151   C     0.81001   0.01390   0.25177   0.00000  Uiso   1.00
C152   C     0.83418   0.16672   0.33630   0.00000  Uiso   1.00
C153   C     0.83245   0.16646   0.16370   0.00000  Uiso   1.00
C154   C     0.81444   0.11947   0.09368   0.00000  Uiso   1.00
H155   H     0.85896   0.24679   0.11295   0.00000  Uiso   1.00
H156   H     0.76270   0.07882   0.14037   0.00000  Uiso   1.00
H157   H     0.91145   0.27232   0.38709   0.00000  Uiso   1.00
H158   H     0.84152   0.28862   0.38921   0.00000  Uiso   1.00
H159   H     0.94221   0.00588   0.00470   0.00000  Uiso   1.00
H160   H     0.96446   0.29071   0.04284   0.00000  Uiso   1.00
H161   H     0.94359   0.01815   0.10752   0.00000  Uiso   1.00
H162   H     0.99695   0.04622   0.06631   0.00000  Uiso   1.00
H163   H     0.92400   0.06642   0.06857   0.00000  Uiso   1.00
H164   H     0.70086   0.04271   0.45745   0.00000  Uiso   1.00
H165   H     0.72333   0.32867   0.49651   0.00000  Uiso   1.00
H166   H     0.80678   0.08651   0.38719   0.00000  Uiso   1.00
H167   H     0.74118   0.26638   0.43390   0.00000  Uiso   1.00
H168   H     0.66819   0.28638   0.43622   0.00000  Uiso   1.00
H169   H     0.72095   0.31340   0.39405   0.00000  Uiso   1.00
H170   H     0.87707   0.29603   0.46010   0.00000  Uiso   1.00
H171   H     0.78938   0.03754   0.04033   0.00000  Uiso   1.00
H172   H     0.90066   0.00317   0.24449   0.00000  Uiso   1.00
H173   H     0.76599   0.33016   0.25533   0.00000  Uiso   1.00
H174   H     0.67122   0.12759   0.21604   0.00000  Uiso   1.00
H175   H     0.99545   0.20575   0.28395   0.00000  Uiso   1.00
H176   H     0.83253   0.06311   0.13679   0.00000  Uiso   1.00
N177   N     0.98344   0.15265   0.23783   0.00000  Uiso   1.00
N178   N     0.68322   0.18068   0.26217   0.00000  Uiso   1.00
N179   N     0.79823   0.07222   0.11807   0.00000  Uiso   1.00
N180   N     0.86950   0.25943   0.38006   0.00000  Uiso   1.00
O181   O     0.79642   0.24619   0.25298   0.00000  Uiso   1.00
O182   O     0.78843   0.02811   0.45219   0.00000  Uiso   1.00
O183   O     0.87025   0.08714   0.24701   0.00000  Uiso   1.00
O184   O     0.89280   0.23721   0.24518   0.00000  Uiso   1.00
O185   O     0.77387   0.09613   0.25481   0.00000  Uiso   1.00
O186   O     0.78514   0.17117   0.31997   0.00000  Uiso   1.00
O187   O     0.88153   0.16216   0.18002   0.00000  Uiso   1.00
O188   O     0.88152   0.16219   0.31217   0.00000  Uiso   1.00
O189   O     0.78515   0.17115   0.18782   0.00000  Uiso   1.00
O190   O     0.87682   0.30536   0.04806   0.00000  Uiso   1.00
Zn191  Zn    0.76898   0.17266   0.25521   0.00000  Uiso   1.00
Zn192  Zn    0.89769   0.16067   0.24479   0.00000  Uiso   1.00
C193   C     0.18194   0.59824   0.24880   0.00000  Uiso   1.00
C194   C     0.18580   0.54683   0.40602   0.00000  Uiso   1.00
C195   C     0.16378   0.49919   0.11623   0.00000  Uiso   1.00
C196   C     0.16945   0.50054   0.38377   0.00000  Uiso   1.00
C197   C     0.17997   0.54533   0.09376   0.00000  Uiso   1.00
C198   C     0.15268   0.45461   0.40633   0.00000  Uiso   1.00
C199   C     0.18107   0.54640   0.04719   0.00000  Uiso   1.00
C200   C     0.15155   0.45367   0.45287   0.00000  Uiso   1.00
C201   C     0.16554   0.49991   0.02347   0.00000  Uiso   1.00
C202   C     0.16727   0.50022   0.47651   0.00000  Uiso   1.00
C203   C     0.14871   0.45300   0.04678   0.00000  Uiso   1.00
C204   C     0.15139   0.40176   0.25114   0.00000  Uiso   1.00
C205   C     0.18443   0.54709   0.45314   0.00000  Uiso   1.00
C206   C     0.19841   0.59279   0.02416   0.00000  Uiso   1.00
C207   C     0.13403   0.40732   0.47598   0.00000  Uiso   1.00
C208   C     0.26849   0.65620   0.03915   0.00000  Uiso   1.00
C209   C     0.28418   0.36613   0.07253   0.00000  Uiso   1.00
C210   C     0.06350   0.34404   0.46171   0.00000  Uiso   1.00
C211   C     0.04753   0.63311   0.42937   0.00000  Uiso   1.00
C212   C     0.19902   0.59295   0.47726   0.00000  Uiso   1.00
C213   C     0.13392   0.40716   0.02285   0.00000  Uiso   1.00
C214   C     0.18998   0.65277   0.24806   0.00000  Uiso   1.00
C215   C     0.14335   0.34723   0.25177   0.00000  Uiso   1.00
C216   C     0.16751   0.50005   0.33630   0.00000  Uiso   1.00
C217   C     0.16579   0.49979   0.16370   0.00000  Uiso   1.00
C218   C     0.14777   0.45280   0.09368   0.00000  Uiso   1.00
H219   H     0.19229   0.58012   0.11295   0.00000  Uiso   1.00
H220   H     0.09604   0.41215   0.14037   0.00000  Uiso   1.00
H221   H     0.24478   0.60565   0.38709   0.00000  Uiso   1.00
H222   H     0.17485   0.62195   0.38921   0.00000  Uiso   1.00
H223   H     0.27555   0.33922   0.00470   0.00000  Uiso   1.00
H224   H     0.29779   0.62405   0.04284   0.00000  Uiso   1.00
H225   H     0.27693   0.35148   0.10752   0.00000  Uiso   1.00
H226   H     0.33029   0.37956   0.06631   0.00000  Uiso   1.00
H227   H     0.25733   0.39975   0.06857   0.00000  Uiso   1.00
H228   H     0.03419   0.37604   0.45745   0.00000  Uiso   1.00
H229   H     0.05667   0.66200   0.49651   0.00000  Uiso   1.00
H230   H     0.14011   0.41984   0.38719   0.00000  Uiso   1.00
H231   H     0.07451   0.59972   0.43390   0.00000  Uiso   1.00
H232   H     0.00152   0.61972   0.43622   0.00000  Uiso   1.00
H233   H     0.05428   0.64673   0.39405   0.00000  Uiso   1.00
H234   H     0.21041   0.62936   0.46010   0.00000  Uiso   1.00
H235   H     0.12271   0.37087   0.04033   0.00000  Uiso   1.00
H236   H     0.23400   0.33651   0.24449   0.00000  Uiso   1.00
H237   H     0.09933   0.66349   0.25533   0.00000  Uiso   1.00
H238   H     0.00456   0.46092   0.21604   0.00000  Uiso   1.00
H239   H     0.32878   0.53908   0.28395   0.00000  Uiso   1.00
H240   H     0.16586   0.39645   0.13679   0.00000  Uiso   1.00
N241   N     0.31678   0.48598   0.23783   0.00000  Uiso   1.00
N242   N     0.01656   0.51402   0.26217   0.00000  Uiso   1.00
N243   N     0.13156   0.40556   0.11807   0.00000  Uiso   1.00
N244   N     0.20283   0.59277   0.38006   0.00000  Uiso   1.00
O245   O     0.12975   0.57952   0.25298   0.00000  Uiso   1.00
O246   O     0.12177   0.36144   0.45219   0.00000  Uiso   1.00
O247   O     0.20358   0.42048   0.24701   0.00000  Uiso   1.00
O248   O     0.22613   0.57054   0.24518   0.00000  Uiso   1.00
O249   O     0.10720   0.42946   0.25481   0.00000  Uiso   1.00
O250   O     0.11847   0.50450   0.31997   0.00000  Uiso   1.00
O251   O     0.21486   0.49550   0.18002   0.00000  Uiso   1.00
O252   O     0.21485   0.49552   0.31217   0.00000  Uiso   1.00
O253   O     0.11848   0.50448   0.18782   0.00000  Uiso   1.00
O254   O     0.21016   0.63869   0.04806   0.00000  Uiso   1.00
Zn255  Zn    0.10231   0.50600   0.25521   0.00000  Uiso   1.00
Zn256  Zn    0.23102   0.49400   0.24479   0.00000  Uiso   1.00
C257   C     0.51527   0.59824   0.24880   0.00000  Uiso   1.00
C258   C     0.51913   0.54683   0.40602   0.00000  Uiso   1.00
C259   C     0.49712   0.49919   0.11623   0.00000  Uiso   1.00
C260   C     0.50279   0.50054   0.38377   0.00000  Uiso   1.00
C261   C     0.51331   0.54533   0.09376   0.00000  Uiso   1.00
C262   C     0.48601   0.45461   0.40633   0.00000  Uiso   1.00
C263   C     0.51440   0.54640   0.04719   0.00000  Uiso   1.00
C264   C     0.48488   0.45367   0.45287   0.00000  Uiso   1.00
C265   C     0.49888   0.49991   0.02347   0.00000  Uiso   1.00
C266   C     0.50060   0.50022   0.47651   0.00000  Uiso   1.00
C267   C     0.48204   0.45300   0.04678   0.00000  Uiso   1.00
C268   C     0.48472   0.40176   0.25114   0.00000  Uiso   1.00
C269   C     0.51776   0.54709   0.45314   0.00000  Uiso   1.00
C270   C     0.53174   0.59279   0.02416   0.00000  Uiso   1.00
C271   C     0.46736   0.40732   0.47598   0.00000  Uiso   1.00
C272   C     0.60183   0.65620   0.03915   0.00000  Uiso   1.00
C273   C     0.61751   0.36613   0.07253   0.00000  Uiso   1.00
C274   C     0.39683   0.34404   0.46171   0.00000  Uiso   1.00
C275   C     0.38086   0.63311   0.42937   0.00000  Uiso   1.00
C276   C     0.53236   0.59295   0.47726   0.00000  Uiso   1.00
C277   C     0.46725   0.40716   0.02285   0.00000  Uiso   1.00
C278   C     0.52331   0.65277   0.24806   0.00000  Uiso   1.00
C279   C     0.47668   0.34723   0.25177   0.00000  Uiso   1.00
C280   C     0.50085   0.50005   0.33630   0.00000  Uiso   1.00
C281   C     0.49912   0.49979   0.16370   0.00000  Uiso   1.00
C282   C     0.48111   0.45280   0.09368   0.00000  Uiso   1.00
H283   H     0.52562   0.58012   0.11295   0.00000  Uiso   1.00
H284   H     0.42937   0.41215   0.14037   0.00000  Uiso   1.00
H285   H     0.57811   0.60565   0.38709   0.00000  Uiso   1.00
H286   H     0.50818   0.62195   0.38921   0.00000  Uiso   1.00
H287   H     0.60888   0.33922   0.00470   0.00000  Uiso   1.00
H288   H     0.63112   0.62405   0.04284   0.00000  Uiso   1.00
H289   H     0.61026   0.35148   0.10752   0.00000  Uiso   1.00
H290   H     0.66362   0.37956   0.06631   0.00000  Uiso   1.00
H291   H     0.59066   0.39975   0.06857   0.00000  Uiso   1.00
H292   H     0.36753   0.37604   0.45745   0.00000  Uiso   1.00
H293   H     0.39000   0.66200   0.49651   0.00000  Uiso   1.00
H294   H     0.47345   0.41984   0.38719   0.00000  Uiso   1.00
H295   H     0.40784   0.59972   0.43390   0.00000  Uiso   1.00
H296   H     0.33485   0.61972   0.43622   0.00000  Uiso   1.00
H297   H     0.38761   0.64673   0.39405   0.00000  Uiso   1.00
H298   H     0.54374   0.62936   0.46010   0.00000  Uiso   1.00
H299   H     0.45604   0.37087   0.04033   0.00000  Uiso   1.00
H300   H     0.56733   0.33651   0.24449   0.00000  Uiso   1.00
H301   H     0.43266   0.66349   0.25533   0.00000  Uiso   1.00
H302   H     0.33789   0.46092   0.21604   0.00000  Uiso   1.00
H303   H     0.66211   0.53908   0.28395   0.00000  Uiso   1.00
H304   H     0.49920   0.39645   0.13679   0.00000  Uiso   1.00
N305   N     0.65011   0.48598   0.23783   0.00000  Uiso   1.00
N306   N     0.34989   0.51402   0.26217   0.00000  Uiso   1.00
N307   N     0.46490   0.40556   0.11807   0.00000  Uiso   1.00
N308   N     0.53616   0.59277   0.38006   0.00000  Uiso   1.00
O309   O     0.46308   0.57952   0.25298   0.00000  Uiso   1.00
O310   O     0.45510   0.36144   0.45219   0.00000  Uiso   1.00
O311   O     0.53692   0.42048   0.24701   0.00000  Uiso   1.00
O312   O     0.55946   0.57054   0.24518   0.00000  Uiso   1.00
O313   O     0.44054   0.42946   0.25481   0.00000  Uiso   1.00
O314   O     0.45181   0.50450   0.31997   0.00000  Uiso   1.00
O315   O     0.54819   0.49550   0.18002   0.00000  Uiso   1.00
O316   O     0.54819   0.49552   0.31217   0.00000  Uiso   1.00
O317   O     0.45181   0.50448   0.18782   0.00000  Uiso   1.00
O318   O     0.54349   0.63869   0.04806   0.00000  Uiso   1.00
Zn319  Zn    0.43565   0.50600   0.25521   0.00000  Uiso   1.00
Zn320  Zn    0.56435   0.49400   0.24479   0.00000  Uiso   1.00
C321   C     0.84861   0.59824   0.24880   0.00000  Uiso   1.00
C322   C     0.85247   0.54683   0.40602   0.00000  Uiso   1.00
C323   C     0.83045   0.49919   0.11623   0.00000  Uiso   1.00
C324   C     0.83612   0.50054   0.38377   0.00000  Uiso   1.00
C325   C     0.84664   0.54533   0.09376   0.00000  Uiso   1.00
C326   C     0.81935   0.45461   0.40633   0.00000  Uiso   1.00
C327   C     0.84773   0.54640   0.04719   0.00000  Uiso   1.00
C328   C     0.81821   0.45367   0.45287   0.00000  Uiso   1.00
C329   C     0.83221   0.49991   0.02347   0.00000  Uiso   1.00
C330   C     0.83394   0.50022   0.47651   0.00000  Uiso   1.00
C331   C     0.81537   0.45300   0.04678   0.00000  Uiso   1.00
C332   C     0.81806   0.40176   0.25114   0.00000  Uiso   1.00
C333   C     0.85110   0.54709   0.45314   0.00000  Uiso   1.00
C334   C     0.86508   0.59279   0.02416   0.00000  Uiso   1.00
C335   C     0.80069   0.40732   0.47598   0.00000  Uiso   1.00
C336   C     0.93516   0.65620   0.03915   0.00000  Uiso   1.00
C337   C     0.95084   0.36613   0.07253   0.00000  Uiso   1.00
C338   C     0.73017   0.34404   0.46171   0.00000  Uiso   1.00
C339   C     0.71420   0.63311   0.42937   0.00000  Uiso   1.00
C340   C     0.86569   0.59295   0.47726   0.00000  Uiso   1.00
C341   C     0.80058   0.40716   0.02285   0.00000  Uiso   1.00
C342   C     0.85664   0.65277   0.24806   0.00000  Uiso   1.00
C343   C     0.81001   0.34723   0.25177   0.00000  Uiso   1.00
C344   C     0.83418   0.50005   0.33630   0.00000  Uiso   1.00
C345   C     0.83245   0.49979   0.16370   0.00000  Uiso   1.00
C346   C     0.81444   0.45280   0.09368   0.00000  Uiso   1.00
H347   H     0.85896   0.58012   0.11295   0.00000  Uiso   1.00
H348   H     0.76270   0.41215   0.14037   0.00000  Uiso   1.00
H349   H     0.91145   0.60565   0.38709   0.00000  Uiso   1.00
H350   H     0.84152   0.62195   0.38921   0.00000  Uiso   1.00
H351   H     0.94221   0.33922   0.00470   0.00000  Uiso   1.00
H352   H     0.96446   0.62405   0.04284   0.00000  Uiso   1.00
H353   H     0.94359   0.35148   0.10752   0.00000  Uiso   1.00
H354   H     0.99695   0.37956   0.06631   0.00000  Uiso   1.00
H355   H     0.92400   0.39975   0.06857   0.00000  Uiso   1.00
H356   H     0.70086   0.37604   0.45745   0.00000  Uiso   1.00
H357   H     0.72333   0.66200   0.49651   0.00000  Uiso   1.00
H358   H     0.80678   0.41984   0.38719   0.00000  Uiso   1.00
H359   H     0.74118   0.59972   0.43390   0.00000  Uiso   1.00
H360   H     0.66819   0.61972   0.43622   0.00000  Uiso   1.00
H361   H     0.72095   0.64673   0.39405   0.00000  Uiso   1.00
H362   H     0.87707   0.62936   0.46010   0.00000  Uiso   1.00
H363   H     0.78938   0.37087   0.04033   0.00000  Uiso   1.00
H364   H     0.90066   0.33651   0.24449   0.00000  Uiso   1.00
H365   H     0.76599   0.66349   0.25533   0.00000  Uiso   1.00
H366   H     0.67122   0.46092   0.21604   0.00000  Uiso   1.00
H367   H     0.99545   0.53908   0.28395   0.00000  Uiso   1.00
H368   H     0.83253   0.39645   0.13679   0.00000  Uiso   1.00
N369   N     0.98344   0.48598   0.23783   0.00000  Uiso   1.00
N370   N     0.68322   0.51402   0.26217   0.00000  Uiso   1.00
N371   N     0.79823   0.40556   0.11807   0.00000  Uiso   1.00
N372   N     0.86950   0.59277   0.38006   0.00000  Uiso   1.00
O373   O     0.79642   0.57952   0.25298   0.00000  Uiso   1.00
O374   O     0.78843   0.36144   0.45219   0.00000  Uiso   1.00
O375   O     0.87025   0.42048   0.24701   0.00000  Uiso   1.00
O376   O     0.89280   0.57054   0.24518   0.00000  Uiso   1.00
O377   O     0.77387   0.42946   0.25481   0.00000  Uiso   1.00
O378   O     0.78514   0.50450   0.31997   0.00000  Uiso   1.00
O379   O     0.88153   0.49550   0.18002   0.00000  Uiso   1.00
O380   O     0.88152   0.49552   0.31217   0.00000  Uiso   1.00
O381   O     0.78515   0.50448   0.18782   0.00000  Uiso   1.00
O382   O     0.87682   0.63869   0.04806   0.00000  Uiso   1.00
Zn383  Zn    0.76898   0.50600   0.25521   0.00000  Uiso   1.00
Zn384  Zn    0.89769   0.49400   0.24479   0.00000  Uiso   1.00
C385   C     0.18194   0.93157   0.24880   0.00000  Uiso   1.00
C386   C     0.18580   0.88016   0.40602   0.00000  Uiso   1.00
C387   C     0.16378   0.83253   0.11623   0.00000  Uiso   1.00
C388   C     0.16945   0.83387   0.38377   0.00000  Uiso   1.00
C389   C     0.17997   0.87866   0.09376   0.00000  Uiso   1.00
C390   C     0.15268   0.78794   0.40633   0.00000  Uiso   1.00
C391   C     0.18107   0.87973   0.04719   0.00000  Uiso   1.00
C392   C     0.15155   0.78700   0.45287   0.00000  Uiso   1.00
C393   C     0.16554   0.83325   0.02347   0.00000  Uiso   1.00
C394   C     0.16727   0.83355   0.47651   0.00000  Uiso   1.00
C395   C     0.14871   0.78634   0.04678   0.00000  Uiso   1.00
C396   C     0.15139   0.73509   0.25114   0.00000  Uiso   1.00
C397   C     0.18443   0.88042   0.45314   0.00000  Uiso   1.00
C398   C     0.19841   0.92613   0.02416   0.00000  Uiso   1.00
C399   C     0.13403   0.74065   0.47598   0.00000  Uiso   1.00
C400   C     0.26849   0.98954   0.03915   0.00000  Uiso   1.00
C401   C     0.28418   0.69946   0.07253   0.00000  Uiso   1.00
C402   C     0.06350   0.67737   0.46171   0.00000  Uiso   1.00
C403   C     0.04753   0.96645   0.42937   0.00000  Uiso   1.00
C404   C     0.19902   0.92628   0.47726   0.00000  Uiso   1.00
C405   C     0.13392   0.74050   0.02285   0.00000  Uiso   1.00
C406   C     0.18998   0.98610   0.24806   0.00000  Uiso   1.00
C407   C     0.14335   0.68057   0.25177   0.00000  Uiso   1.00
C408   C     0.16751   0.83338   0.33630   0.00000  Uiso   1.00
C409   C     0.16579   0.83312   0.16370   0.00000  Uiso   1.00
C410   C     0.14777   0.78614   0.09368   0.00000  Uiso   1.00
H411   H     0.19229   0.91346   0.11295   0.00000  Uiso   1.00
H412   H     0.09604   0.74549   0.14037   0.00000  Uiso   1.00
H413   H     0.24478   0.93898   0.38709   0.00000  Uiso   1.00
H414   H     0.17485   0.95529   0.38921   0.00000  Uiso   1.00
H415   H     0.27555   0.67255   0.00470   0.00000  Uiso   1.00
H416   H     0.29779   0.95738   0.04284   0.00000  Uiso   1.00
H417   H     0.27693   0.68482   0.10752   0.00000  Uiso   1.00
H418   H     0.33029   0.71289   0.06631   0.00000  Uiso   1.00
H419   H     0.25733   0.73308   0.06857   0.00000  Uiso   1.00
H420   H     0.03419   0.70938   0.45745   0.00000  Uiso   1.00
H421   H     0.05667   0.99533   0.49651   0.00000  Uiso   1.00
H422   H     0.14011   0.75317   0.38719   0.00000  Uiso   1.00
H423   H     0.07451   0.93305   0.43390   0.00000  Uiso   1.00
H424   H     0.00152   0.95305   0.43622   0.00000  Uiso   1.00
H425   H     0.05428   0.98006   0.39405   0.00000  Uiso   1.00
H426   H     0.21041   0.96270   0.46010   0.00000  Uiso   1.00
H427   H     0.12271   0.70420   0.04033   0.00000  Uiso   1.00
H428   H     0.23400   0.66984   0.24449   0.00000  Uiso   1.00
H429   H     0.09933   0.99683   0.25533   0.00000  Uiso   1.00
H430   H     0.00456   0.79425   0.21604   0.00000  Uiso   1.00
H431   H     0.32878   0.87242   0.28395   0.00000  Uiso   1.00
H432   H     0.16586   0.72978   0.13679   0.00000  Uiso   1.00
N433   N     0.31678   0.81932   0.23783   0.00000  Uiso   1.00
N434   N     0.01656   0.84735   0.26217   0.00000  Uiso   1.00
N435   N     0.13156   0.73889   0.11807   0.00000  Uiso   1.00
N436   N     0.20283   0.92610   0.38006   0.00000  Uiso   1.00
O437   O     0.12975   0.91286   0.25298   0.00000  Uiso   1.00
O438   O     0.12177   0.69478   0.45219   0.00000  Uiso   1.00
O439   O     0.20358   0.75381   0.24701   0.00000  Uiso   1.00
O440   O     0.22613   0.90387   0.24518   0.00000  Uiso   1.00
O441   O     0.10720   0.76279   0.25481   0.00000  Uiso   1.00
O442   O     0.11847   0.83784   0.31997   0.00000  Uiso   1.00
O443   O     0.21486   0.82883   0.18002   0.00000  Uiso   1.00
O444   O     0.21485   0.82885   0.31217   0.00000  Uiso   1.00
O445   O     0.11848   0.83781   0.18782   0.00000  Uiso   1.00
O446   O     0.21016   0.97203   0.04806   0.00000  Uiso   1.00
Zn447  Zn    0.10231   0.83933   0.25521   0.00000  Uiso   1.00
Zn448  Zn    0.23102   0.82734   0.24479   0.00000  Uiso   1.00
C449   C     0.51527   0.93157   0.24880   0.00000  Uiso   1.00
C450   C     0.51913   0.88016   0.40602   0.00000  Uiso   1.00
C451   C     0.49712   0.83253   0.11623   0.00000  Uiso   1.00
C452   C     0.50279   0.83387   0.38377   0.00000  Uiso   1.00
C453   C     0.51331   0.87866   0.09376   0.00000  Uiso   1.00
C454   C     0.48601   0.78794   0.40633   0.00000  Uiso   1.00
C455   C     0.51440   0.87973   0.04719   0.00000  Uiso   1.00
C456   C     0.48488   0.78700   0.45287   0.00000  Uiso   1.00
C457   C     0.49888   0.83325   0.02347   0.00000  Uiso   1.00
C458   C     0.50060   0.83355   0.47651   0.00000  Uiso   1.00
C459   C     0.48204   0.78634   0.04678   0.00000  Uiso   1.00
C460   C     0.48472   0.73509   0.25114   0.00000  Uiso   1.00
C461   C     0.51776   0.88042   0.45314   0.00000  Uiso   1.00
C462   C     0.53174   0.92613   0.02416   0.00000  Uiso   1.00
C463   C     0.46736   0.74065   0.47598   0.00000  Uiso   1.00
C464   C     0.60183   0.98954   0.03915   0.00000  Uiso   1.00
C465   C     0.61751   0.69946   0.07253   0.00000  Uiso   1.00
C466   C     0.39683   0.67737   0.46171   0.00000  Uiso   1.00
C467   C     0.38086   0.96645   0.42937   0.00000  Uiso   1.00
C468   C     0.53236   0.92628   0.47726   0.00000  Uiso   1.00
C469   C     0.46725   0.74050   0.02285   0.00000  Uiso   1.00
C470   C     0.52331   0.98610   0.24806   0.00000  Uiso   1.00
C471   C     0.47668   0.68057   0.25177   0.00000  Uiso   1.00
C472   C     0.50085   0.83338   0.33630   0.00000  Uiso   1.00
C473   C     0.49912   0.83312   0.16370   0.00000  Uiso   1.00
C474   C     0.48111   0.78614   0.09368   0.00000  Uiso   1.00
H475   H     0.52562   0.91346   0.11295   0.00000  Uiso   1.00
H476   H     0.42937   0.74549   0.14037   0.00000  Uiso   1.00
H477   H     0.57811   0.93898   0.38709   0.00000  Uiso   1.00
H478   H     0.50818   0.95529   0.38921   0.00000  Uiso   1.00
H479   H     0.60888   0.67255   0.00470   0.00000  Uiso   1.00
H480   H     0.63112   0.95738   0.04284   0.00000  Uiso   1.00
H481   H     0.61026   0.68482   0.10752   0.00000  Uiso   1.00
H482   H     0.66362   0.71289   0.06631   0.00000  Uiso   1.00
H483   H     0.59066   0.73308   0.06857   0.00000  Uiso   1.00
H484   H     0.36753   0.70938   0.45745   0.00000  Uiso   1.00
H485   H     0.39000   0.99533   0.49651   0.00000  Uiso   1.00
H486   H     0.47345   0.75317   0.38719   0.00000  Uiso   1.00
H487   H     0.40784   0.93305   0.43390   0.00000  Uiso   1.00
H488   H     0.33485   0.95305   0.43622   0.00000  Uiso   1.00
H489   H     0.38761   0.98006   0.39405   0.00000  Uiso   1.00
H490   H     0.54374   0.96270   0.46010   0.00000  Uiso   1.00
H491   H     0.45604   0.70420   0.04033   0.00000  Uiso   1.00
H492   H     0.56733   0.66984   0.24449   0.00000  Uiso   1.00
H493   H     0.43266   0.99683   0.25533   0.00000  Uiso   1.00
H494   H     0.33789   0.79425   0.21604   0.00000  Uiso   1.00
H495   H     0.66211   0.87242   0.28395   0.00000  Uiso   1.00
H496   H     0.49920   0.72978   0.13679   0.00000  Uiso   1.00
N497   N     0.65011   0.81932   0.23783   0.00000  Uiso   1.00
N498   N     0.34989   0.84735   0.26217   0.00000  Uiso   1.00
N499   N     0.46490   0.73889   0.11807   0.00000  Uiso   1.00
N500   N     0.53616   0.92610   0.38006   0.00000  Uiso   1.00
O501   O     0.46308   0.91286   0.25298   0.00000  Uiso   1.00
O502   O     0.45510   0.69478   0.45219   0.00000  Uiso   1.00
O503   O     0.53692   0.75381   0.24701   0.00000  Uiso   1.00
O504   O     0.55946   0.90387   0.24518   0.00000  Uiso   1.00
O505   O     0.44054   0.76279   0.25481   0.00000  Uiso   1.00
O506   O     0.45181   0.83784   0.31997   0.00000  Uiso   1.00
O507   O     0.54819   0.82883   0.18002   0.00000  Uiso   1.00
O508   O     0.54819   0.82885   0.31217   0.00000  Uiso   1.00
O509   O     0.45181   0.83781   0.18782   0.00000  Uiso   1.00
O510   O     0.54349   0.97203   0.04806   0.00000  Uiso   1.00
Zn511  Zn    0.43565   0.83933   0.25521   0.00000  Uiso   1.00
Zn512  Zn    0.56435   0.82734   0.24479   0.00000  Uiso   1.00
C513   C     0.84861   0.93157   0.24880   0.00000  Uiso   1.00
C514   C     0.85247   0.88016   0.40602   0.00000  Uiso   1.00
C515   C     0.83045   0.83253   0.11623   0.00000  Uiso   1.00
C516   C     0.83612   0.83387   0.38377   0.00000  Uiso   1.00
C517   C     0.84664   0.87866   0.09376   0.00000  Uiso   1.00
C518   C     0.81935   0.78794   0.40633   0.00000  Uiso   1.00
C519   C     0.84773   0.87973   0.04719   0.00000  Uiso   1.00
C520   C     0.81821   0.78700   0.45287   0.00000  Uiso   1.00
C521   C     0.83221   0.83325   0.02347   0.00000  Uiso   1.00
C522   C     0.83394   0.83355   0.47651   0.00000  Uiso   1.00
C523   C     0.81537   0.78634   0.04678   0.00000  Uiso   1.00
C524   C     0.81806   0.73509   0.25114   0.00000  Uiso   1.00
C525   C     0.85110   0.88042   0.45314   0.00000  Uiso   1.00
C526   C     0.86508   0.92613   0.02416   0.00000  Uiso   1.00
C527   C     0.80069   0.74065   0.47598   0.00000  Uiso   1.00
C528   C     0.93516   0.98954   0.03915   0.00000  Uiso   1.00
C529   C     0.95084   0.69946   0.07253   0.00000  Uiso   1.00
C530   C     0.73017   0.67737   0.46171   0.00000  Uiso   1.00
C531   C     0.71420   0.96645   0.42937   0.00000  Uiso   1.00
C532   C     0.86569   0.92628   0.47726   0.00000  Uiso   1.00
C533   C     0.80058   0.74050   0.02285   0.00000  Uiso   1.00
C534   C     0.85664   0.98610   0.24806   0.00000  Uiso   1.00
C535   C     0.81001   0.68057   0.25177   0.00000  Uiso   1.00
C536   C     0.83418   0.83338   0.33630   0.00000  Uiso   1.00
C537   C     0.83245   0.83312   0.16370   0.00000  Uiso   1.00
C538   C     0.81444   0.78614   0.09368   0.00000  Uiso   1.00
H539   H     0.85896   0.91346   0.11295   0.00000  Uiso   1.00
H540   H     0.76270   0.74549   0.14037   0.00000  Uiso   1.00
H541   H     0.91145   0.93898   0.38709   0.00000  Uiso   1.00
H542   H     0.84152   0.95529   0.38921   0.00000  Uiso   1.00
H543   H     0.94221   0.67255   0.00470   0.00000  Uiso   1.00
H544   H     0.96446   0.95738   0.04284   0.00000  Uiso   1.00
H545   H     0.94359   0.68482   0.10752   0.00000  Uiso   1.00
H546   H     0.99695   0.71289   0.06631   0.00000  Uiso   1.00
H547   H     0.92400   0.73308   0.06857   0.00000  Uiso   1.00
H548   H     0.70086   0.70938   0.45745   0.00000  Uiso   1.00
H549   H     0.72333   0.99533   0.49651   0.00000  Uiso   1.00
H550   H     0.80678   0.75317   0.38719   0.00000  Uiso   1.00
H551   H     0.74118   0.93305   0.43390   0.00000  Uiso   1.00
H552   H     0.66819   0.95305   0.43622   0.00000  Uiso   1.00
H553   H     0.72095   0.98006   0.39405   0.00000  Uiso   1.00
H554   H     0.87707   0.96270   0.46010   0.00000  Uiso   1.00
H555   H     0.78938   0.70420   0.04033   0.00000  Uiso   1.00
H556   H     0.90066   0.66984   0.24449   0.00000  Uiso   1.00
H557   H     0.76599   0.99683   0.25533   0.00000  Uiso   1.00
H558   H     0.67122   0.79425   0.21604   0.00000  Uiso   1.00
H559   H     0.99545   0.87242   0.28395   0.00000  Uiso   1.00
H560   H     0.83253   0.72978   0.13679   0.00000  Uiso   1.00
N561   N     0.98344   0.81932   0.23783   0.00000  Uiso   1.00
N562   N     0.68322   0.84735   0.26217   0.00000  Uiso   1.00
N563   N     0.79823   0.73889   0.11807   0.00000  Uiso   1.00
N564   N     0.86950   0.92610   0.38006   0.00000  Uiso   1.00
O565   O     0.79642   0.91286   0.25298   0.00000  Uiso   1.00
O566   O     0.78843   0.69478   0.45219   0.00000  Uiso   1.00
O567   O     0.87025   0.75381   0.24701   0.00000  Uiso   1.00
O568   O     0.89280   0.90387   0.24518   0.00000  Uiso   1.00
O569   O     0.77387   0.76279   0.25481   0.00000  Uiso   1.00
O570   O     0.78514   0.83784   0.31997   0.00000  Uiso   1.00
O571   O     0.88153   0.82883   0.18002   0.00000  Uiso   1.00
O572   O     0.88152   0.82885   0.31217   0.00000  Uiso   1.00
O573   O     0.78515   0.83781   0.18782   0.00000  Uiso   1.00
O574   O     0.87682   0.97203   0.04806   0.00000  Uiso   1.00
Zn575  Zn    0.76898   0.83933   0.25521   0.00000  Uiso   1.00
Zn576  Zn    0.89769   0.82734   0.24479   0.00000  Uiso   1.00
C577   C     0.18194   0.26491   0.74880   0.00000  Uiso   1.00
C578   C     0.18580   0.21350   0.90602   0.00000  Uiso   1.00
C579   C     0.16378   0.16586   0.61623   0.00000  Uiso   1.00
C580   C     0.16945   0.16720   0.88377   0.00000  Uiso   1.00
C581   C     0.17997   0.21200   0.59376   0.00000  Uiso   1.00
C582   C     0.15268   0.12127   0.90633   0.00000  Uiso   1.00
C583   C     0.18107   0.21307   0.54719   0.00000  Uiso   1.00
C584   C     0.15155   0.12033   0.95287   0.00000  Uiso   1.00
C585   C     0.16554   0.16658   0.52347   0.00000  Uiso   1.00
C586   C     0.16727   0.16688   0.97651   0.00000  Uiso   1.00
C587   C     0.14871   0.11967   0.54678   0.00000  Uiso   1.00
C588   C     0.15139   0.06843   0.75114   0.00000  Uiso   1.00
C589   C     0.18443   0.21375   0.95314   0.00000  Uiso   1.00
C590   C     0.19841   0.25946   0.52416   0.00000  Uiso   1.00
C591   C     0.13403   0.07398   0.97598   0.00000  Uiso   1.00
C592   C     0.26849   0.32287   0.53915   0.00000  Uiso   1.00
C593   C     0.28418   0.03280   0.57253   0.00000  Uiso   1.00
C594   C     0.06350   0.01071   0.96171   0.00000  Uiso   1.00
C595   C     0.04753   0.29978   0.92937   0.00000  Uiso   1.00
C596   C     0.19902   0.25962   0.97726   0.00000  Uiso   1.00
C597   C     0.13392   0.07383   0.52285   0.00000  Uiso   1.00
C598   C     0.18998   0.31943   0.74806   0.00000  Uiso   1.00
C599   C     0.14335   0.01390   0.75177   0.00000  Uiso   1.00
C600   C     0.16751   0.16672   0.83630   0.00000  Uiso   1.00
C601   C     0.16579   0.16646   0.66370   0.00000  Uiso   1.00
C602   C     0.14777   0.11947   0.59368   0.00000  Uiso   1.00
H603   H     0.19229   0.24679   0.61295   0.00000  Uiso   1.00
H604   H     0.09604   0.07882   0.64037   0.00000  Uiso   1.00
H605   H     0.24478   0.27232   0.88709   0.00000  Uiso   1.00
H606   H     0.17485   0.28862   0.88921   0.00000  Uiso   1.00
H607   H     0.27555   0.00588   0.50470   0.00000  Uiso   1.00
H608   H     0.29779   0.29071   0.54284   0.00000  Uiso   1.00
H609   H     0.27693   0.01815   0.60752   0.00000  Uiso   1.00
H610   H     0.33029   0.04622   0.56631   0.00000  Uiso   1.00
H611   H     0.25733   0.06642   0.56857   0.00000  Uiso   1.00
H612   H     0.03419   0.04271   0.95745   0.00000  Uiso   1.00
H613   H     0.05667   0.32867   0.99651   0.00000  Uiso   1.00
H614   H     0.14011   0.08651   0.88719   0.00000  Uiso   1.00
H615   H     0.07451   0.26638   0.93390   0.00000  Uiso   1.00
H616   H     0.00152   0.28638   0.93622   0.00000  Uiso   1.00
H617   H     0.05428   0.31340   0.89405   0.00000  Uiso   1.00
H618   H     0.21041   0.29603   0.96010   0.00000  Uiso   1.00
H619   H     0.12271   0.03754   0.54033   0.00000  Uiso   1.00
H620   H     0.23400   0.00317   0.74449   0.00000  Uiso   1.00
H621   H     0.09933   0.33016   0.75533   0.00000  Uiso   1.00
H622   H     0.00456   0.12759   0.71604   0.00000  Uiso   1.00
H623   H     0.32878   0.20575   0.78395   0.00000  Uiso   1.00
H624   H     0.16586   0.06311   0.63679   0.00000  Uiso   1.00
N625   N     0.31678   0.15265   0.73783   0.00000  Uiso   1.00
N626   N     0.01656   0.18068   0.76217   0.00000  Uiso   1.00
N627   N     0.13156   0.07222   0.61807   0.00000  Uiso   1.00
N628   N     0.20283   0.25943   0.88006   0.00000  Uiso   1.00
O629   O     0.12975   0.24619   0.75298   0.00000  Uiso   1.00
O630   O     0.12177   0.02811   0.95219   0.00000  Uiso   1.00
O631   O     0.20358   0.08714   0.74701   0.00000  Uiso   1.00
O632   O     0.22613   0.23721   0.74518   0.00000  Uiso   1.00
O633   O     0.10720   0.09613   0.75481   0.00000  Uiso   1.00
O634   O     0.11847   0.17117   0.81997   0.00000  Uiso   1.00
O635   O     0.21486   0.16216   0.68002   0.00000  Uiso   1.00
O636   O     0.21485   0.16219   0.81217   0.00000  Uiso   1.00
O637   O     0.11848   0.17115   0.68782   0.00000  Uiso   1.00
O638   O     0.21016   0.30536   0.54806   0.00000  Uiso   1.00
Zn639  Zn    0.10231   0.17266   0.75521   0.00000  Uiso   1.00
Zn640  Zn    0.23102   0.16067   0.74479   0.00000  Uiso   1.00
C641   C     0.51527   0.26491   0.74880   0.00000  Uiso   1.00
C642   C     0.51913   0.21350   0.90602   0.00000  Uiso   1.00
C643   C     0.49712   0.16586   0.61623   0.00000  Uiso   1.00
C644   C     0.50279   0.16720   0.88377   0.00000  Uiso   1.00
C645   C     0.51331   0.21200   0.59376   0.00000  Uiso   1.00
C646   C     0.48601   0.12127   0.90633   0.00000  Uiso   1.00
C647   C     0.51440   0.21307   0.54719   0.00000  Uiso   1.00
C648   C     0.48488   0.12033   0.95287   0.00000  Uiso   1.00
C649   C     0.49888   0.16658   0.52347   0.00000  Uiso   1.00
C650   C     0.50060   0.16688   0.97651   0.00000  Uiso   1.00
C651   C     0.48204   0.11967   0.54678   0.00000  Uiso   1.00
C652   C     0.48472   0.06843   0.75114   0.00000  Uiso   1.00
C653   C     0.51776   0.21375   0.95314   0.00000  Uiso   1.00
C654   C     0.53174   0.25946   0.52416   0.00000  Uiso   1.00
C655   C     0.46736   0.07398   0.97598   0.00000  Uiso   1.00
C656   C     0.60183   0.32287   0.53915   0.00000  Uiso   1.00
C657   C     0.61751   0.03280   0.57253   0.00000  Uiso   1.00
C658   C     0.39683   0.01071   0.96171   0.00000  Uiso   1.00
C659   C     0.38086   0.29978   0.92937   0.00000  Uiso   1.00
C660   C     0.53236   0.25962   0.97726   0.00000  Uiso   1.00
C661   C     0.46725   0.07383   0.52285   0.00000  Uiso   1.00
C662   C     0.52331   0.31943   0.74806   0.00000  Uiso   1.00
C663   C     0.47668   0.01390   0.75177   0.00000  Uiso   1.00
C664   C     0.50085   0.16672   0.83630   0.00000  Uiso   1.00
C665   C     0.49912   0.16646   0.66370   0.00000  Uiso   1.00
C666   C     0.48111   0.11947   0.59368   0.00000  Uiso   1.00
H667   H     0.52562   0.24679   0.61295   0.00000  Uiso   1.00
H668   H     0.42937   0.07882   0.64037   0.00000  Uiso   1.00
H669   H     0.57811   0.27232   0.88709   0.00000  Uiso   1.00
H670   H     0.50818   0.28862   0.88921   0.00000  Uiso   1.00
H671   H     0.60888   0.00588   0.50470   0.00000  Uiso   1.00
H672   H     0.63112   0.29071   0.54284   0.00000  Uiso   1.00
H673   H     0.61026   0.01815   0.60752   0.00000  Uiso   1.00
H674   H     0.66362   0.04622   0.56631   0.00000  Uiso   1.00
H675   H     0.59066   0.06642   0.56857   0.00000  Uiso   1.00
H676   H     0.36753   0.04271   0.95745   0.00000  Uiso   1.00
H677   H     0.39000   0.32867   0.99651   0.00000  Uiso   1.00
H678   H     0.47345   0.08651   0.88719   0.00000  Uiso   1.00
H679   H     0.40784   0.26638   0.93390   0.00000  Uiso   1.00
H680   H     0.33485   0.28638   0.93622   0.00000  Uiso   1.00
H681   H     0.38761   0.31340   0.89405   0.00000  Uiso   1.00
H682   H     0.54374   0.29603   0.96010   0.00000  Uiso   1.00
H683   H     0.45604   0.03754   0.54033   0.00000  Uiso   1.00
H684   H     0.56733   0.00317   0.74449   0.00000  Uiso   1.00
H685   H     0.43266   0.33016   0.75533   0.00000  Uiso   1.00
H686   H     0.33789   0.12759   0.71604   0.00000  Uiso   1.00
H687   H     0.66211   0.20575   0.78395   0.00000  Uiso   1.00
H688   H     0.49920   0.06311   0.63679   0.00000  Uiso   1.00
N689   N     0.65011   0.15265   0.73783   0.00000  Uiso   1.00
N690   N     0.34989   0.18068   0.76217   0.00000  Uiso   1.00
N691   N     0.46490   0.07222   0.61807   0.00000  Uiso   1.00
N692   N     0.53616   0.25943   0.88006   0.00000  Uiso   1.00
O693   O     0.46308   0.24619   0.75298   0.00000  Uiso   1.00
O694   O     0.45510   0.02811   0.95219   0.00000  Uiso   1.00
O695   O     0.53692   0.08714   0.74701   0.00000  Uiso   1.00
O696   O     0.55946   0.23721   0.74518   0.00000  Uiso   1.00
O697   O     0.44054   0.09613   0.75481   0.00000  Uiso   1.00
O698   O     0.45181   0.17117   0.81997   0.00000  Uiso   1.00
O699   O     0.54819   0.16216   0.68002   0.00000  Uiso   1.00
O700   O     0.54819   0.16219   0.81217   0.00000  Uiso   1.00
O701   O     0.45181   0.17115   0.68782   0.00000  Uiso   1.00
O702   O     0.54349   0.30536   0.54806   0.00000  Uiso   1.00
Zn703  Zn    0.43565   0.17266   0.75521   0.00000  Uiso   1.00
Zn704  Zn    0.56435   0.16067   0.74479   0.00000  Uiso   1.00
C705   C     0.84861   0.26491   0.74880   0.00000  Uiso   1.00
C706   C     0.85247   0.21350   0.90602   0.00000  Uiso   1.00
C707   C     0.83045   0.16586   0.61623   0.00000  Uiso   1.00
C708   C     0.83612   0.16720   0.88377   0.00000  Uiso   1.00
C709   C     0.84664   0.21200   0.59376   0.00000  Uiso   1.00
C710   C     0.81935   0.12127   0.90633   0.00000  Uiso   1.00
C711   C     0.84773   0.21307   0.54719   0.00000  Uiso   1.00
C712   C     0.81821   0.12033   0.95287   0.00000  Uiso   1.00
C713   C     0.83221   0.16658   0.52347   0.00000  Uiso   1.00
C714   C     0.83394   0.16688   0.97651   0.00000  Uiso   1.00
C715   C     0.81537   0.11967   0.54678   0.00000  Uiso   1.00
C716   C     0.81806   0.06843   0.75114   0.00000  Uiso   1.00
C717   C     0.85110   0.21375   0.95314   0.00000  Uiso   1.00
C718   C     0.86508   0.25946   0.52416   0.00000  Uiso   1.00
C719   C     0.80069   0.07398   0.97598   0.00000  Uiso   1.00
C720   C     0.93516   0.32287   0.53915   0.00000  Uiso   1.00
C721   C     0.95084   0.03280   0.57253   0.00000  Uiso   1.00
C722   C     0.73017   0.01071   0.96171   0.00000  Uiso   1.00
C723   C     0.71420   0.29978   0.92937   0.00000  Uiso   1.00
C724   C     0.86569   0.25962   0.97726   0.00000  Uiso   1.00
C725   C     0.80058   0.07383   0.52285   0.00000  Uiso   1.00
C726   C     0.85664   0.31943   0.74806   0.00000  Uiso   1.00
C727   C     0.81001   0.01390   0.75177   0.00000  Uiso   1.00
C728   C     0.83418   0.16672   0.83630   0.00000  Uiso   1.00
C729   C     0.83245   0.16646   0.66370   0.00000  Uiso   1.00
C730   C     0.81444   0.11947   0.59368   0.00000  Uiso   1.00
H731   H     0.85896   0.24679   0.61295   0.00000  Uiso   1.00
H732   H     0.76270   0.07882   0.64037   0.00000  Uiso   1.00
H733   H     0.91145   0.27232   0.88709   0.00000  Uiso   1.00
H734   H     0.84152   0.28862   0.88921   0.00000  Uiso   1.00
H735   H     0.94221   0.00588   0.50470   0.00000  Uiso   1.00
H736   H     0.96446   0.29071   0.54284   0.00000  Uiso   1.00
H737   H     0.94359   0.01815   0.60752   0.00000  Uiso   1.00
H738   H     0.99695   0.04622   0.56631   0.00000  Uiso   1.00
H739   H     0.92400   0.06642   0.56857   0.00000  Uiso   1.00
H740   H     0.70086   0.04271   0.95745   0.00000  Uiso   1.00
H741   H     0.72333   0.32867   0.99651   0.00000  Uiso   1.00
H742   H     0.80678   0.08651   0.88719   0.00000  Uiso   1.00
H743   H     0.74118   0.26638   0.93390   0.00000  Uiso   1.00
H744   H     0.66819   0.28638   0.93622   0.00000  Uiso   1.00
H745   H     0.72095   0.31340   0.89405   0.00000  Uiso   1.00
H746   H     0.87707   0.29603   0.96010   0.00000  Uiso   1.00
H747   H     0.78938   0.03754   0.54033   0.00000  Uiso   1.00
H748   H     0.90066   0.00317   0.74449   0.00000  Uiso   1.00
H749   H     0.76599   0.33016   0.75533   0.00000  Uiso   1.00
H750   H     0.67122   0.12759   0.71604   0.00000  Uiso   1.00
H751   H     0.99545   0.20575   0.78395   0.00000  Uiso   1.00
H752   H     0.83253   0.06311   0.63679   0.00000  Uiso   1.00
N753   N     0.98344   0.15265   0.73783   0.00000  Uiso   1.00
N754   N     0.68322   0.18068   0.76217   0.00000  Uiso   1.00
N755   N     0.79823   0.07222   0.61807   0.00000  Uiso   1.00
N756   N     0.86950   0.25943   0.88006   0.00000  Uiso   1.00
O757   O     0.79642   0.24619   0.75298   0.00000  Uiso   1.00
O758   O     0.78843   0.02811   0.95219   0.00000  Uiso   1.00
O759   O     0.87025   0.08714   0.74701   0.00000  Uiso   1.00
O760   O     0.89280   0.23721   0.74518   0.00000  Uiso   1.00
O761   O     0.77387   0.09613   0.75481   0.00000  Uiso   1.00
O762   O     0.78514   0.17117   0.81997   0.00000  Uiso   1.00
O763   O     0.88153   0.16216   0.68002   0.00000  Uiso   1.00
O764   O     0.88152   0.16219   0.81217   0.00000  Uiso   1.00
O765   O     0.78515   0.17115   0.68782   0.00000  Uiso   1.00
O766   O     0.87682   0.30536   0.54806   0.00000  Uiso   1.00
Zn767  Zn    0.76898   0.17266   0.75521   0.00000  Uiso   1.00
Zn768  Zn    0.89769   0.16067   0.74479   0.00000  Uiso   1.00
C769   C     0.18194   0.59824   0.74880   0.00000  Uiso   1.00
C770   C     0.18580   0.54683   0.90602   0.00000  Uiso   1.00
C771   C     0.16378   0.49919   0.61623   0.00000  Uiso   1.00
C772   C     0.16945   0.50054   0.88377   0.00000  Uiso   1.00
C773   C     0.17997   0.54533   0.59376   0.00000  Uiso   1.00
C774   C     0.15268   0.45461   0.90633   0.00000  Uiso   1.00
C775   C     0.18107   0.54640   0.54719   0.00000  Uiso   1.00
C776   C     0.15155   0.45367   0.95287   0.00000  Uiso   1.00
C777   C     0.16554   0.49991   0.52347   0.00000  Uiso   1.00
C778   C     0.16727   0.50022   0.97651   0.00000  Uiso   1.00
C779   C     0.14871   0.45300   0.54678   0.00000  Uiso   1.00
C780   C     0.15139   0.40176   0.75114   0.00000  Uiso   1.00
C781   C     0.18443   0.54709   0.95314   0.00000  Uiso   1.00
C782   C     0.19841   0.59279   0.52416   0.00000  Uiso   1.00
C783   C     0.13403   0.40732   0.97598   0.00000  Uiso   1.00
C784   C     0.26849   0.65620   0.53915   0.00000  Uiso   1.00
C785   C     0.28418   0.36613   0.57253   0.00000  Uiso   1.00
C786   C     0.06350   0.34404   0.96171   0.00000  Uiso   1.00
C787   C     0.04753   0.63311   0.92937   0.00000  Uiso   1.00
C788   C     0.19902   0.59295   0.97726   0.00000  Uiso   1.00
C789   C     0.13392   0.40716   0.52285   0.00000  Uiso   1.00
C790   C     0.18998   0.65277   0.74806   0.00000  Uiso   1.00
C791   C     0.14335   0.34723   0.75177   0.00000  Uiso   1.00
C792   C     0.16751   0.50005   0.83630   0.00000  Uiso   1.00
C793   C     0.16579   0.49979   0.66370   0.00000  Uiso   1.00
C794   C     0.14777   0.45280   0.59368   0.00000  Uiso   1.00
H795   H     0.19229   0.58012   0.61295   0.00000  Uiso   1.00
H796   H     0.09604   0.41215   0.64037   0.00000  Uiso   1.00
H797   H     0.24478   0.60565   0.88709   0.00000  Uiso   1.00
H798   H     0.17485   0.62195   0.88921   0.00000  Uiso   1.00
H799   H     0.27555   0.33922   0.50470   0.00000  Uiso   1.00
H800   H     0.29779   0.62405   0.54284   0.00000  Uiso   1.00
H801   H     0.27693   0.35148   0.60752   0.00000  Uiso   1.00
H802   H     0.33029   0.37956   0.56631   0.00000  Uiso   1.00
H803   H     0.25733   0.39975   0.56857   0.00000  Uiso   1.00
H804   H     0.03419   0.37604   0.95745   0.00000  Uiso   1.00
H805   H     0.05667   0.66200   0.99651   0.00000  Uiso   1.00
H806   H     0.14011   0.41984   0.88719   0.00000  Uiso   1.00
H807   H     0.07451   0.59972   0.93390   0.00000  Uiso   1.00
H808   H     0.00152   0.61972   0.93622   0.00000  Uiso   1.00
H809   H     0.05428   0.64673   0.89405   0.00000  Uiso   1.00
H810   H     0.21041   0.62936   0.96010   0.00000  Uiso   1.00
H811   H     0.12271   0.37087   0.54033   0.00000  Uiso   1.00
H812   H     0.23400   0.33651   0.74449   0.00000  Uiso   1.00
H813   H     0.09933   0.66349   0.75533   0.00000  Uiso   1.00
H814   H     0.00456   0.46092   0.71604   0.00000  Uiso   1.00
H815   H     0.32878   0.53908   0.78395   0.00000  Uiso   1.00
H816   H     0.16586   0.39645   0.63679   0.00000  Uiso   1.00
N817   N     0.31678   0.48598   0.73783   0.00000  Uiso   1.00
N818   N     0.01656   0.51402   0.76217   0.00000  Uiso   1.00
N819   N     0.13156   0.40556   0.61807   0.00000  Uiso   1.00
N820   N     0.20283   0.59277   0.88006   0.00000  Uiso   1.00
O821   O     0.12975   0.57952   0.75298   0.00000  Uiso   1.00
O822   O     0.12177   0.36144   0.95219   0.00000  Uiso   1.00
O823   O     0.20358   0.42048   0.74701   0.00000  Uiso   1.00
O824   O     0.22613   0.57054   0.74518   0.00000  Uiso   1.00
O825   O     0.10720   0.42946   0.75481   0.00000  Uiso   1.00
O826   O     0.11847   0.50450   0.81997   0.00000  Uiso   1.00
O827   O     0.21486   0.49550   0.68002   0.00000  Uiso   1.00
O828   O     0.21485   0.49552   0.81217   0.00000  Uiso   1.00
O829   O     0.11848   0.50448   0.68782   0.00000  Uiso   1.00
O830   O     0.21016   0.63869   0.54806   0.00000  Uiso   1.00
Zn831  Zn    0.10231   0.50600   0.75521   0.00000  Uiso   1.00
Zn832  Zn    0.23102   0.49400   0.74479   0.00000  Uiso   1.00
C833   C     0.51527   0.59824   0.74880   0.00000  Uiso   1.00
C834   C     0.51913   0.54683   0.90602   0.00000  Uiso   1.00
C835   C     0.49712   0.49919   0.61623   0.00000  Uiso   1.00
C836   C     0.50279   0.50054   0.88377   0.00000  Uiso   1.00
C837   C     0.51331   0.54533   0.59376   0.00000  Uiso   1.00
C838   C     0.48601   0.45461   0.90633   0.00000  Uiso   1.00
C839   C     0.51440   0.54640   0.54719   0.00000  Uiso   1.00
C840   C     0.48488   0.45367   0.95287   0.00000  Uiso   1.00
C841   C     0.49888   0.49991   0.52347   0.00000  Uiso   1.00
C842   C     0.50060   0.50022   0.97651   0.00000  Uiso   1.00
C843   C     0.48204   0.45300   0.54678   0.00000  Uiso   1.00
C844   C     0.48472   0.40176   0.75114   0.00000  Uiso   1.00
C845   C     0.51776   0.54709   0.95314   0.00000  Uiso   1.00
C846   C     0.53174   0.59279   0.52416   0.00000  Uiso   1.00
C847   C     0.46736   0.40732   0.97598   0.00000  Uiso   1.00
C848   C     0.60183   0.65620   0.53915   0.00000  Uiso   1.00
C849   C     0.61751   0.36613   0.57253   0.00000  Uiso   1.00
C850   C     0.39683   0.34404   0.96171   0.00000  Uiso   1.00
C851   C     0.38086   0.63311   0.92937   0.00000  Uiso   1.00
C852   C     0.53236   0.59295   0.97726   0.00000  Uiso   1.00
C853   C     0.46725   0.40716   0.52285   0.00000  Uiso   1.00
C854   C     0.52331   0.65277   0.74806   0.00000  Uiso   1.00
C855   C     0.47668   0.34723   0.75177   0.00000  Uiso   1.00
C856   C     0.50085   0.50005   0.83630   0.00000  Uiso   1.00
C857   C     0.49912   0.49979   0.66370   0.00000  Uiso   1.00
C858   C     0.48111   0.45280   0.59368   0.00000  Uiso   1.00
H859   H     0.52562   0.58012   0.61295   0.00000  Uiso   1.00
H860   H     0.42937   0.41215   0.64037   0.00000  Uiso   1.00
H861   H     0.57811   0.60565   0.88709   0.00000  Uiso   1.00
H862   H     0.50818   0.62195   0.88921   0.00000  Uiso   1.00
H863   H     0.60888   0.33922   0.50470   0.00000  Uiso   1.00
H864   H     0.63112   0.62405   0.54284   0.00000  Uiso   1.00
H865   H     0.61026   0.35148   0.60752   0.00000  Uiso   1.00
H866   H     0.66362   0.37956   0.56631   0.00000  Uiso   1.00
H867   H     0.59066   0.39975   0.56857   0.00000  Uiso   1.00
H868   H     0.36753   0.37604   0.95745   0.00000  Uiso   1.00
H869   H     0.39000   0.66200   0.99651   0.00000  Uiso   1.00
H870   H     0.47345   0.41984   0.88719   0.00000  Uiso   1.00
H871   H     0.40784   0.59972   0.93390   0.00000  Uiso   1.00
H872   H     0.33485   0.61972   0.93622   0.00000  Uiso   1.00
H873   H     0.38761   0.64673   0.89405   0.00000  Uiso   1.00
H874   H     0.54374   0.62936   0.96010   0.00000  Uiso   1.00
H875   H     0.45604   0.37087   0.54033   0.00000  Uiso   1.00
H876   H     0.56733   0.33651   0.74449   0.00000  Uiso   1.00
H877   H     0.43266   0.66349   0.75533   0.00000  Uiso   1.00
H878   H     0.33789   0.46092   0.71604   0.00000  Uiso   1.00
H879   H     0.66211   0.53908   0.78395   0.00000  Uiso   1.00
H880   H     0.49920   0.39645   0.63679   0.00000  Uiso   1.00
N881   N     0.65011   0.48598   0.73783   0.00000  Uiso   1.00
N882   N     0.34989   0.51402   0.76217   0.00000  Uiso   1.00
N883   N     0.46490   0.40556   0.61807   0.00000  Uiso   1.00
N884   N     0.53616   0.59277   0.88006   0.00000  Uiso   1.00
O885   O     0.46308   0.57952   0.75298   0.00000  Uiso   1.00
O886   O     0.45510   0.36144   0.95219   0.00000  Uiso   1.00
O887   O     0.53692   0.42048   0.74701   0.00000  Uiso   1.00
O888   O     0.55946   0.57054   0.74518   0.00000  Uiso   1.00
O889   O     0.44054   0.42946   0.75481   0.00000  Uiso   1.00
O890   O     0.45181   0.50450   0.81997   0.00000  Uiso   1.00
O891   O     0.54819   0.49550   0.68002   0.00000  Uiso   1.00
O892   O     0.54819   0.49552   0.81217   0.00000  Uiso   1.00
O893   O     0.45181   0.50448   0.68782   0.00000  Uiso   1.00
O894   O     0.54349   0.63869   0.54806   0.00000  Uiso   1.00
Zn895  Zn    0.43565   0.50600   0.75521   0.00000  Uiso   1.00
Zn896  Zn    0.56435   0.49400   0.74479   0.00000  Uiso   1.00
C897   C     0.84861   0.59824   0.74880   0.00000  Uiso   1.00
C898   C     0.85247   0.54683   0.90602   0.00000  Uiso   1.00
C899   C     0.83045   0.49919   0.61623   0.00000  Uiso   1.00
C900   C     0.83612   0.50054   0.88377   0.00000  Uiso   1.00
C901   C     0.84664   0.54533   0.59376   0.00000  Uiso   1.00
C902   C     0.81935   0.45461   0.90633   0.00000  Uiso   1.00
C903   C     0.84773   0.54640   0.54719   0.00000  Uiso   1.00
C904   C     0.81821   0.45367   0.95287   0.00000  Uiso   1.00
C905   C     0.83221   0.49991   0.52347   0.00000  Uiso   1.00
C906   C     0.83394   0.50022   0.97651   0.00000  Uiso   1.00
C907   C     0.81537   0.45300   0.54678   0.00000  Uiso   1.00
C908   C     0.81806   0.40176   0.75114   0.00000  Uiso   1.00
C909   C     0.85110   0.54709   0.95314   0.00000  Uiso   1.00
C910   C     0.86508   0.59279   0.52416   0.00000  Uiso   1.00
C911   C     0.80069   0.40732   0.97598   0.00000  Uiso   1.00
C912   C     0.93516   0.65620   0.53915   0.00000  Uiso   1.00
C913   C     0.95084   0.36613   0.57253   0.00000  Uiso   1.00
C914   C     0.73017   0.34404   0.96171   0.00000  Uiso   1.00
C915   C     0.71420   0.63311   0.92937   0.00000  Uiso   1.00
C916   C     0.86569   0.59295   0.97726   0.00000  Uiso   1.00
C917   C     0.80058   0.40716   0.52285   0.00000  Uiso   1.00
C918   C     0.85664   0.65277   0.74806   0.00000  Uiso   1.00
C919   C     0.81001   0.34723   0.75177   0.00000  Uiso   1.00
C920   C     0.83418   0.50005   0.83630   0.00000  Uiso   1.00
C921   C     0.83245   0.49979   0.66370   0.00000  Uiso   1.00
C922   C     0.81444   0.45280   0.59368   0.00000  Uiso   1.00
H923   H     0.85896   0.58012   0.61295   0.00000  Uiso   1.00
H924   H     0.76270   0.41215   0.64037   0.00000  Uiso   1.00
H925   H     0.91145   0.60565   0.88709   0.00000  Uiso   1.00
H926   H     0.84152   0.62195   0.88921   0.00000  Uiso   1.00
H927   H     0.94221   0.33922   0.50470   0.00000  Uiso   1.00
H928   H     0.96446   0.62405   0.54284   0.00000  Uiso   1.00
H929   H     0.94359   0.35148   0.60752   0.00000  Uiso   1.00
H930   H     0.99695   0.37956   0.56631   0.00000  Uiso   1.00
H931   H     0.92400   0.39975   0.56857   0.00000  Uiso   1.00
H932   H     0.70086   0.37604   0.95745   0.00000  Uiso   1.00
H933   H     0.72333   0.66200   0.99651   0.00000  Uiso   1.00
H934   H     0.80678   0.41984   0.88719   0.00000  Uiso   1.00
H935   H     0.74118   0.59972   0.93390   0.00000  Uiso   1.00
H936   H     0.66819   0.61972   0.93622   0.00000  Uiso   1.00
H937   H     0.72095   0.64673   0.89405   0.00000  Uiso   1.00
H938   H     0.87707   0.62936   0.96010   0.00000  Uiso   1.00
H939   H     0.78938   0.37087   0.54033   0.00000  Uiso   1.00
H940   H     0.90066   0.33651   0.74449   0.00000  Uiso   1.00
H941   H     0.76599   0.66349   0.75533   0.00000  Uiso   1.00
H942   H     0.67122   0.46092   0.71604   0.00000  Uiso   1.00
H943   H     0.99545   0.53908   0.78395   0.00000  Uiso   1.00
H944   H     0.83253   0.39645   0.63679   0.00000  Uiso   1.00
N945   N     0.98344   0.48598   0.73783   0.00000  Uiso   1.00
N946   N     0.68322   0.51402   0.76217   0.00000  Uiso   1.00
N947   N     0.79823   0.40556   0.61807   0.00000  Uiso   1.00
N948   N     0.86950   0.59277   0.88006   0.00000  Uiso   1.00
O949   O     0.79642   0.57952   0.75298   0.00000  Uiso   1.00
O950   O     0.78843   0.36144   0.95219   0.00000  Uiso   1.00
O951   O     0.87025   0.42048   0.74701   0.00000  Uiso   1.00
O952   O     0.89280   0.57054   0.74518   0.00000  Uiso   1.00
O953   O     0.77387   0.42946   0.75481   0.00000  Uiso   1.00
O954   O     0.78514   0.50450   0.81997   0.00000  Uiso   1.00
O955   O     0.88153   0.49550   0.68002   0.00000  Uiso   1.00
O956   O     0.88152   0.49552   0.81217   0.00000  Uiso   1.00
O957   O     0.78515   0.50448   0.68782   0.00000  Uiso   1.00
O958   O     0.87682   0.63869   0.54806   0.00000  Uiso   1.00
Zn959  Zn    0.76898   0.50600   0.75521   0.00000  Uiso   1.00
Zn960  Zn    0.89769   0.49400   0.74479   0.00000  Uiso   1.00
C961   C     0.18194   0.93157   0.74880   0.00000  Uiso   1.00
C962   C     0.18580   0.88016   0.90602   0.00000  Uiso   1.00
C963   C     0.16378   0.83253   0.61623   0.00000  Uiso   1.00
C964   C     0.16945   0.83387   0.88377   0.00000  Uiso   1.00
C965   C     0.17997   0.87866   0.59376   0.00000  Uiso   1.00
C966   C     0.15268   0.78794   0.90633   0.00000  Uiso   1.00
C967   C     0.18107   0.87973   0.54719   0.00000  Uiso   1.00
C968   C     0.15155   0.78700   0.95287   0.00000  Uiso   1.00
C969   C     0.16554   0.83325   0.52347   0.00000  Uiso   1.00
C970   C     0.16727   0.83355   0.97651   0.00000  Uiso   1.00
C971   C     0.14871   0.78634   0.54678   0.00000  Uiso   1.00
C972   C     0.15139   0.73509   0.75114   0.00000  Uiso   1.00
C973   C     0.18443   0.88042   0.95314   0.00000  Uiso   1.00
C974   C     0.19841   0.92613   0.52416   0.00000  Uiso   1.00
C975   C     0.13403   0.74065   0.97598   0.00000  Uiso   1.00
C976   C     0.26849   0.98954   0.53915   0.00000  Uiso   1.00
C977   C     0.28418   0.69946   0.57253   0.00000  Uiso   1.00
C978   C     0.06350   0.67737   0.96171   0.00000  Uiso   1.00
C979   C     0.04753   0.96645   0.92937   0.00000  Uiso   1.00
C980   C     0.19902   0.92628   0.97726   0.00000  Uiso   1.00
C981   C     0.13392   0.74050   0.52285   0.00000  Uiso   1.00
C982   C     0.18998   0.98610   0.74806   0.00000  Uiso   1.00
C983   C     0.14335   0.68057   0.75177   0.00000  Uiso   1.00
C984   C     0.16751   0.83338   0.83630   0.00000  Uiso   1.00
C985   C     0.16579   0.83312   0.66370   0.00000  Uiso   1.00
C986   C     0.14777   0.78614   0.59368   0.00000  Uiso   1.00
H987   H     0.19229   0.91346   0.61295   0.00000  Uiso   1.00
H988   H     0.09604   0.74549   0.64037   0.00000  Uiso   1.00
H989   H     0.24478   0.93898   0.88709   0.00000  Uiso   1.00
H990   H     0.17485   0.95529   0.88921   0.00000  Uiso   1.00
H991   H     0.27555   0.67255   0.50470   0.00000  Uiso   1.00
H992   H     0.29779   0.95738   0.54284   0.00000  Uiso   1.00
H993   H     0.27693   0.68482   0.60752   0.00000  Uiso   1.00
H994   H     0.33029   0.71289   0.56631   0.00000  Uiso   1.00
H995   H     0.25733   0.73308   0.56857   0.00000  Uiso   1.00
H996   H     0.03419   0.70938   0.95745   0.00000  Uiso   1.00
H997   H     0.05667   0.99533   0.99651   0.00000  Uiso   1.00
H998   H     0.14011   0.75317   0.88719   0.00000  Uiso   1.00
H999   H     0.07451   0.93305   0.93390   0.00000  Uiso   1.00
H1000  H     0.00152   0.95305   0.93622   0.00000  Uiso   1.00
H1001  H     0.05428   0.98006   0.89405   0.00000  Uiso   1.00
H1002  H     0.21041   0.96270   0.96010   0.00000  Uiso   1.00
H1003  H     0.12271   0.70420   0.54033   0.00000  Uiso   1.00
H1004  H     0.23400   0.66984   0.74449   0.00000  Uiso   1.00
H1005  H     0.09933   0.99683   0.75533   0.00000  Uiso   1.00
H1006  H     0.00456   0.79425   0.71604   0.00000  Uiso   1.00
H1007  H     0.32878   0.87242   0.78395   0.00000  Uiso   1.00
H1008  H     0.16586   0.72978   0.63679   0.00000  Uiso   1.00
N1009  N     0.31678   0.81932   0.73783   0.00000  Uiso   1.00
N1010  N     0.01656   0.84735   0.76217   0.00000  Uiso   1.00
N1011  N     0.13156   0.73889   0.61807   0.00000  Uiso   1.00
N1012  N     0.20283   0.92610   0.88006   0.00000  Uiso   1.00
O1013  O     0.12975   0.91286   0.75298   0.00000  Uiso   1.00
O1014  O     0.12177   0.69478   0.95219   0.00000  Uiso   1.00
O1015  O     0.20358   0.75381   0.74701   0.00000  Uiso   1.00
O1016  O     0.22613   0.90387   0.74518   0.00000  Uiso   1.00
O1017  O     0.10720   0.76279   0.75481   0.00000  Uiso   1.00
O1018  O     0.11847   0.83784   0.81997   0.00000  Uiso   1.00
O1019  O     0.21486   0.82883   0.68002   0.00000  Uiso   1.00
O1020  O     0.21485   0.82885   0.81217   0.00000  Uiso   1.00
O1021  O     0.11848   0.83781   0.68782   0.00000  Uiso   1.00
O1022  O     0.21016   0.97203   0.54806   0.00000  Uiso   1.00
Zn1023 Zn    0.10231   0.83933   0.75521   0.00000  Uiso   1.00
Zn1024 Zn    0.23102   0.82734   0.74479   0.00000  Uiso   1.00
C1025  C     0.51527   0.93157   0.74880   0.00000  Uiso   1.00
C1026  C     0.51913   0.88016   0.90602   0.00000  Uiso   1.00
C1027  C     0.49712   0.83253   0.61623   0.00000  Uiso   1.00
C1028  C     0.50279   0.83387   0.88377   0.00000  Uiso   1.00
C1029  C     0.51331   0.87866   0.59376   0.00000  Uiso   1.00
C1030  C     0.48601   0.78794   0.90633   0.00000  Uiso   1.00
C1031  C     0.51440   0.87973   0.54719   0.00000  Uiso   1.00
C1032  C     0.48488   0.78700   0.95287   0.00000  Uiso   1.00
C1033  C     0.49888   0.83325   0.52347   0.00000  Uiso   1.00
C1034  C     0.50060   0.83355   0.97651   0.00000  Uiso   1.00
C1035  C     0.48204   0.78634   0.54678   0.00000  Uiso   1.00
C1036  C     0.48472   0.73509   0.75114   0.00000  Uiso   1.00
C1037  C     0.51776   0.88042   0.95314   0.00000  Uiso   1.00
C1038  C     0.53174   0.92613   0.52416   0.00000  Uiso   1.00
C1039  C     0.46736   0.74065   0.97598   0.00000  Uiso   1.00
C1040  C     0.60183   0.98954   0.53915   0.00000  Uiso   1.00
C1041  C     0.61751   0.69946   0.57253   0.00000  Uiso   1.00
C1042  C     0.39683   0.67737   0.96171   0.00000  Uiso   1.00
C1043  C     0.38086   0.96645   0.92937   0.00000  Uiso   1.00
C1044  C     0.53236   0.92628   0.97726   0.00000  Uiso   1.00
C1045  C     0.46725   0.74050   0.52285   0.00000  Uiso   1.00
C1046  C     0.52331   0.98610   0.74806   0.00000  Uiso   1.00
C1047  C     0.47668   0.68057   0.75177   0.00000  Uiso   1.00
C1048  C     0.50085   0.83338   0.83630   0.00000  Uiso   1.00
C1049  C     0.49912   0.83312   0.66370   0.00000  Uiso   1.00
C1050  C     0.48111   0.78614   0.59368   0.00000  Uiso   1.00
H1051  H     0.52562   0.91346   0.61295   0.00000  Uiso   1.00
H1052  H     0.42937   0.74549   0.64037   0.00000  Uiso   1.00
H1053  H     0.57811   0.93898   0.88709   0.00000  Uiso   1.00
H1054  H     0.50818   0.95529   0.88921   0.00000  Uiso   1.00
H1055  H     0.60888   0.67255   0.50470   0.00000  Uiso   1.00
H1056  H     0.63112   0.95738   0.54284   0.00000  Uiso   1.00
H1057  H     0.61026   0.68482   0.60752   0.00000  Uiso   1.00
H1058  H     0.66362   0.71289   0.56631   0.00000  Uiso   1.00
H1059  H     0.59066   0.73308   0.56857   0.00000  Uiso   1.00
H1060  H     0.36753   0.70938   0.95745   0.00000  Uiso   1.00
H1061  H     0.39000   0.99533   0.99651   0.00000  Uiso   1.00
H1062  H     0.47345   0.75317   0.88719   0.00000  Uiso   1.00
H1063  H     0.40784   0.93305   0.93390   0.00000  Uiso   1.00
H1064  H     0.33485   0.95305   0.93622   0.00000  Uiso   1.00
H1065  H     0.38761   0.98006   0.89405   0.00000  Uiso   1.00
H1066  H     0.54374   0.96270   0.96010   0.00000  Uiso   1.00
H1067  H     0.45604   0.70420   0.54033   0.00000  Uiso   1.00
H1068  H     0.56733   0.66984   0.74449   0.00000  Uiso   1.00
H1069  H     0.43266   0.99683   0.75533   0.00000  Uiso   1.00
H1070  H     0.33789   0.79425   0.71604   0.00000  Uiso   1.00
H1071  H     0.66211   0.87242   0.78395   0.00000  Uiso   1.00
H1072  H     0.49920   0.72978   0.63679   0.00000  Uiso   1.00
N1073  N     0.65011   0.81932   0.73783   0.00000  Uiso   1.00
N1074  N     0.34989   0.84735   0.76217   0.00000  Uiso   1.00
N1075  N     0.46490   0.73889   0.61807   0.00000  Uiso   1.00
N1076  N     0.53616   0.92610   0.88006   0.00000  Uiso   1.00
O1077  O     0.46308   0.91286   0.75298   0.00000  Uiso   1.00
O1078  O     0.45510   0.69478   0.95219   0.00000  Uiso   1.00
O1079  O     0.53692   0.75381   0.74701   0.00000  Uiso   1.00
O1080  O     0.55946   0.90387   0.74518   0.00000  Uiso   1.00
O1081  O     0.44054   0.76279   0.75481   0.00000  Uiso   1.00
O1082  O     0.45181   0.83784   0.81997   0.00000  Uiso   1.00
O1083  O     0.54819   0.82883   0.68002   0.00000  Uiso   1.00
O1084  O     0.54819   0.82885   0.81217   0.00000  Uiso   1.00
O1085  O     0.45181   0.83781   0.68782   0.00000  Uiso   1.00
O1086  O     0.54349   0.97203   0.54806   0.00000  Uiso   1.00
Zn1087 Zn    0.43565   0.83933   0.75521   0.00000  Uiso   1.00
Zn1088 Zn    0.56435   0.82734   0.74479   0.00000  Uiso   1.00
C1089  C     0.84861   0.93157   0.74880   0.00000  Uiso   1.00
C1090  C     0.85247   0.88016   0.90602   0.00000  Uiso   1.00
C1091  C     0.83045   0.83253   0.61623   0.00000  Uiso   1.00
C1092  C     0.83612   0.83387   0.88377   0.00000  Uiso   1.00
C1093  C     0.84664   0.87866   0.59376   0.00000  Uiso   1.00
C1094  C     0.81935   0.78794   0.90633   0.00000  Uiso   1.00
C1095  C     0.84773   0.87973   0.54719   0.00000  Uiso   1.00
C1096  C     0.81821   0.78700   0.95287   0.00000  Uiso   1.00
C1097  C     0.83221   0.83325   0.52347   0.00000  Uiso   1.00
C1098  C     0.83394   0.83355   0.97651   0.00000  Uiso   1.00
C1099  C     0.81537   0.78634   0.54678   0.00000  Uiso   1.00
C1100  C     0.81806   0.73509   0.75114   0.00000  Uiso   1.00
C1101  C     0.85110   0.88042   0.95314   0.00000  Uiso   1.00
C1102  C     0.86508   0.92613   0.52416   0.00000  Uiso   1.00
C1103  C     0.80069   0.74065   0.97598   0.00000  Uiso   1.00
C1104  C     0.93516   0.98954   0.53915   0.00000  Uiso   1.00
C1105  C     0.95084   0.69946   0.57253   0.00000  Uiso   1.00
C1106  C     0.73017   0.67737   0.96171   0.00000  Uiso   1.00
C1107  C     0.71420   0.96645   0.92937   0.00000  Uiso   1.00
C1108  C     0.86569   0.92628   0.97726   0.00000  Uiso   1.00
C1109  C     0.80058   0.74050   0.52285   0.00000  Uiso   1.00
C1110  C     0.85664   0.98610   0.74806   0.00000  Uiso   1.00
C1111  C     0.81001   0.68057   0.75177   0.00000  Uiso   1.00
C1112  C     0.83418   0.83338   0.83630   0.00000  Uiso   1.00
C1113  C     0.83245   0.83312   0.66370   0.00000  Uiso   1.00
C1114  C     0.81444   0.78614   0.59368   0.00000  Uiso   1.00
H1115  H     0.85896   0.91346   0.61295   0.00000  Uiso   1.00
H1116  H     0.76270   0.74549   0.64037   0.00000  Uiso   1.00
H1117  H     0.91145   0.93898   0.88709   0.00000  Uiso   1.00
H1118  H     0.84152   0.95529   0.88921   0.00000  Uiso   1.00
H1119  H     0.94221   0.67255   0.50470   0.00000  Uiso   1.00
H1120  H     0.96446   0.95738   0.54284   0.00000  Uiso   1.00
H1121  H     0.94359   0.68482   0.60752   0.00000  Uiso   1.00
H1122  H     0.99695   0.71289   0.56631   0.00000  Uiso   1.00
H1123  H     0.92400   0.73308   0.56857   0.00000  Uiso   1.00
H1124  H     0.70086   0.70938   0.95745   0.00000  Uiso   1.00
H1125  H     0.72333   0.99533   0.99651   0.00000  Uiso   1.00
H1126  H     0.80678   0.75317   0.88719   0.00000  Uiso   1.00
H1127  H     0.74118   0.93305   0.93390   0.00000  Uiso   1.00
H1128  H     0.66819   0.95305   0.93622   0.00000  Uiso   1.00
H1129  H     0.72095   0.98006   0.89405   0.00000  Uiso   1.00
H1130  H     0.87707   0.96270   0.96010   0.00000  Uiso   1.00
H1131  H     0.78938   0.70420   0.54033   0.00000  Uiso   1.00
H1132  H     0.90066   0.66984   0.74449   0.00000  Uiso   1.00
H1133  H     0.76599   0.99683   0.75533   0.00000  Uiso   1.00
H1134  H     0.67122   0.79425   0.71604   0.00000  Uiso   1.00
H1135  H     0.99545   0.87242   0.78395   0.00000  Uiso   1.00
H1136  H     0.83253   0.72978   0.63679   0.00000  Uiso   1.00
N1137  N     0.98344   0.81932   0.73783   0.00000  Uiso   1.00
N1138  N     0.68322   0.84735   0.76217   0.00000  Uiso   1.00
N1139  N     0.79823   0.73889   0.61807   0.00000  Uiso   1.00
N1140  N     0.86950   0.92610   0.88006   0.00000  Uiso   1.00
O1141  O     0.79642   0.91286   0.75298   0.00000  Uiso   1.00
O1142  O     0.78843   0.69478   0.95219   0.00000  Uiso   1.00
O1143  O     0.87025   0.75381   0.74701   0.00000  Uiso   1.00
O1144  O     0.89280   0.90387   0.74518   0.00000  Uiso   1.00
O1145  O     0.77387   0.76279   0.75481   0.00000  Uiso   1.00
O1146  O     0.78514   0.83784   0.81997   0.00000  Uiso   1.00
O1147  O     0.88153   0.82883   0.68002   0.00000  Uiso   1.00
O1148  O     0.88152   0.82885   0.81217   0.00000  Uiso   1.00
O1149  O     0.78515   0.83781   0.68782   0.00000  Uiso   1.00
O1150  O     0.87682   0.97203   0.54806   0.00000  Uiso   1.00
Zn1151 Zn    0.76898   0.83933   0.75521   0.00000  Uiso   1.00
Zn1152 Zn    0.89769   0.82734   0.74479   0.00000  Uiso   1.00
loop_
_geom_bond_atom_site_label_1
_geom_bond_atom_site_label_2
_geom_bond_distance
_geom_bond_site_symmetry_2
_ccdc_geom_bond_type
C1     C22     1.399   .     S
C1     O56     1.286   .     A
C1     O53     1.277   .     A
C2     C4      1.394   .     A
C2     N52     1.438   .     S
C2     C13     1.401   .     A
C3     C26     1.399   .     A
C3     C25     1.416   .     S
C3     C5      1.387   .     A
C4     C6      1.386   .     A
C4     C24     1.416   .     S
C5     H27     1.086   .     S
C5     C7      1.385   .     A
C6     H38     1.085   .     S
C6     C8      1.384   .     A
C7     C9      1.415   .     A
C7     C14     1.405   .     A
C8     C15     1.406   .     A
C8     C10     1.417   .     A
C9     C11     1.418   .     A
C9     C586    1.395   1_554 S
C10    C13     1.419   .     A
C10    C585    1.395   .     S
C11    C26     1.394   .     A
C11    C21     1.401   .     A
C12    C23     1.399   .     S
C12    O57     1.286   .     A
C12    O55     1.277   .     A
C13    C20     1.403   .     A
C14    O62     1.387   .     S
C14    C596    1.395   1_554 S
C15    O54     1.388   .     S
C15    C597    1.395   .     S
C16    H32     1.116   .     S
C16    O62     1.412   .     S
C16    C209    1.521   .     S
C16    H223    1.111   .     S
C17    H33     1.111   .     S
C17    H34     1.111   .     S
C17    H35     1.110   .     S
C17    C400    1.521   1_545 S
C18    O54     1.413   .     S
C18    H36     1.115   .     S
C18    C403    1.521   1_545 S
C18    H421    1.111   1_545 S
C19    H39     1.110   .     S
C19    H40     1.111   .     S
C19    H41     1.111   .     S
C19    C210    1.521   .     S
C20    H42     1.081   .     S
C20    C590    1.395   .     S
C21    H43     1.082   .     S
C21    C591    1.395   1_554 S
C22    C215    1.335   .     S
C22    H236    1.088   .     S
C23    C406    1.335   1_545 S
C23    H429    1.088   1_545 S
C24    O58     1.285   .     A
C24    O60     1.285   .     A
C25    O61     1.285   .     A
C25    O59     1.285   .     A
C26    N51     1.438   .     S
H28    N51     1.045   .     S
H29    N52     1.045   .     S
H30    N52     1.045   .     S
H31    C400    1.111   1_545 S
H37    C210    1.111   .     S
H44    C406    1.088   1_545 S
H45    C215    1.088   .     S
H46    N177    1.029   1_455 S
H47    N114    1.029   .     S
H48    N51     1.046   .     S
N49    Zn64    2.018   .     S
N49    H110    1.029   .     S
N49    N114    1.275   .     S
N50    Zn63    2.018   .     S
N50    N177    1.275   1_455 S
N50    H175    1.029   1_455 S
O53    Zn63    1.952   .     S
O55    Zn64    1.952   .     S
O56    Zn64    1.974   .     S
O57    Zn63    1.974   .     S
O58    Zn63    1.990   .     S
O59    Zn64    1.990   .     S
O60    Zn64    2.015   .     S
O61    Zn63    2.015   .     S
C65    C86     1.399   .     S
C65    O120    1.286   .     A
C65    O117    1.277   .     A
C66    C68     1.394   .     A
C66    N116    1.438   .     S
C66    C77     1.401   .     A
C67    C90     1.399   .     A
C67    C89     1.416   .     S
C67    C69     1.387   .     A
C68    C70     1.386   .     A
C68    C88     1.416   .     S
C69    H91     1.086   .     S
C69    C71     1.385   .     A
C70    H102    1.085   .     S
C70    C72     1.384   .     A
C71    C73     1.415   .     A
C71    C78     1.405   .     A
C72    C79     1.406   .     A
C72    C74     1.417   .     A
C73    C75     1.418   .     A
C73    C650    1.395   1_554 S
C74    C77     1.419   .     A
C74    C649    1.395   .     S
C75    C90     1.394   .     A
C75    C85     1.401   .     A
C76    C87     1.399   .     S
C76    O121    1.286   .     A
C76    O119    1.277   .     A
C77    C84     1.403   .     A
C78    O126    1.387   .     S
C78    C660    1.395   1_554 S
C79    O118    1.388   .     S
C79    C661    1.395   .     S
C80    H96     1.116   .     S
C80    O126    1.412   .     S
C80    C273    1.521   .     S
C80    H287    1.111   .     S
C81    H97     1.111   .     S
C81    H98     1.111   .     S
C81    H99     1.110   .     S
C81    C464    1.521   1_545 S
C82    O118    1.413   .     S
C82    H100    1.115   .     S
C82    C467    1.521   1_545 S
C82    H485    1.111   1_545 S
C83    H103    1.110   .     S
C83    H104    1.111   .     S
C83    H105    1.111   .     S
C83    C274    1.521   .     S
C84    H106    1.081   .     S
C84    C654    1.395   .     S
C85    H107    1.082   .     S
C85    C655    1.395   1_554 S
C86    C279    1.335   .     S
C86    H300    1.088   .     S
C87    C470    1.335   1_545 S
C87    H493    1.088   1_545 S
C88    O122    1.285   .     A
C88    O124    1.285   .     A
C89    O125    1.285   .     A
C89    O123    1.285   .     A
C90    N115    1.438   .     S
H92    N115    1.045   .     S
H93    N116    1.045   .     S
H94    N116    1.045   .     S
H95    C464    1.111   1_545 S
H101   C274    1.111   .     S
H108   C470    1.088   1_545 S
H109   C279    1.088   .     S
H111   N178    1.029   .     S
H112   N115    1.046   .     S
N113   Zn128   2.018   .     S
N113   H174    1.029   .     S
N113   N178    1.275   .     S
N114   Zn127   2.018   .     S
O117   Zn127   1.952   .     S
O119   Zn128   1.952   .     S
O120   Zn128   1.974   .     S
O121   Zn127   1.974   .     S
O122   Zn127   1.990   .     S
O123   Zn128   1.990   .     S
O124   Zn128   2.015   .     S
O125   Zn127   2.015   .     S
C129   C150    1.399   .     S
C129   O184    1.286   .     A
C129   O181    1.277   .     A
C130   C132    1.394   .     A
C130   N180    1.438   .     S
C130   C141    1.401   .     A
C131   C154    1.399   .     A
C131   C153    1.416   .     S
C131   C133    1.387   .     A
C132   C134    1.386   .     A
C132   C152    1.416   .     S
C133   H155    1.086   .     S
C133   C135    1.385   .     A
C134   H166    1.085   .     S
C134   C136    1.384   .     A
C135   C137    1.415   .     A
C135   C142    1.405   .     A
C136   C143    1.406   .     A
C136   C138    1.417   .     A
C137   C139    1.418   .     A
C137   C714    1.395   1_554 S
C138   C141    1.419   .     A
C138   C713    1.395   .     S
C139   C154    1.394   .     A
C139   C149    1.401   .     A
C140   C151    1.399   .     S
C140   O185    1.286   .     A
C140   O183    1.277   .     A
C141   C148    1.403   .     A
C142   O190    1.387   .     S
C142   C724    1.395   1_554 S
C143   O182    1.388   .     S
C143   C725    1.395   .     S
C144   H160    1.116   .     S
C144   O190    1.412   .     S
C144   C337    1.521   .     S
C144   H351    1.111   .     S
C145   H161    1.111   .     S
C145   H162    1.111   .     S
C145   H163    1.110   .     S
C145   C528    1.521   1_545 S
C146   O182    1.413   .     S
C146   H164    1.115   .     S
C146   C531    1.521   1_545 S
C146   H549    1.111   1_545 S
C147   H167    1.110   .     S
C147   H168    1.111   .     S
C147   H169    1.111   .     S
C147   C338    1.521   .     S
C148   H170    1.081   .     S
C148   C718    1.395   .     S
C149   H171    1.082   .     S
C149   C719    1.395   1_554 S
C150   C343    1.335   .     S
C150   H364    1.088   .     S
C151   C534    1.335   1_545 S
C151   H557    1.088   1_545 S
C152   O186    1.285   .     A
C152   O188    1.285   .     A
C153   O189    1.285   .     A
C153   O187    1.285   .     A
C154   N179    1.438   .     S
H156   N179    1.045   .     S
H157   N180    1.045   .     S
H158   N180    1.045   .     S
H159   C528    1.111   1_545 S
H165   C338    1.111   .     S
H172   C534    1.088   1_545 S
H173   C343    1.088   .     S
H175   N50     1.029   1_655 S
H176   N179    1.046   .     S
N177   Zn192   2.018   .     S
N177   H46     1.029   1_655 S
N177   N50     1.275   1_655 S
N178   Zn191   2.018   .     S
O181   Zn191   1.952   .     S
O183   Zn192   1.952   .     S
O184   Zn192   1.974   .     S
O185   Zn191   1.974   .     S
O186   Zn191   1.990   .     S
O187   Zn192   1.990   .     S
O188   Zn192   2.015   .     S
O189   Zn191   2.015   .     S
C193   C214    1.399   .     S
C193   O248    1.286   .     A
C193   O245    1.277   .     A
C194   C196    1.394   .     A
C194   N244    1.438   .     S
C194   C205    1.401   .     A
C195   C218    1.399   .     A
C195   C217    1.416   .     S
C195   C197    1.387   .     A
C196   C198    1.386   .     A
C196   C216    1.416   .     S
C197   H219    1.086   .     S
C197   C199    1.385   .     A
C198   H230    1.085   .     S
C198   C200    1.384   .     A
C199   C201    1.415   .     A
C199   C206    1.405   .     A
C200   C207    1.406   .     A
C200   C202    1.417   .     A
C201   C203    1.418   .     A
C201   C778    1.395   1_554 S
C202   C205    1.419   .     A
C202   C777    1.395   .     S
C203   C218    1.394   .     A
C203   C213    1.401   .     A
C204   C215    1.399   .     S
C204   O249    1.286   .     A
C204   O247    1.277   .     A
C205   C212    1.403   .     A
C206   O254    1.387   .     S
C206   C788    1.395   1_554 S
C207   O246    1.388   .     S
C207   C789    1.395   .     S
C208   H224    1.116   .     S
C208   O254    1.412   .     S
C208   C401    1.521   .     S
C208   H415    1.111   .     S
C209   H225    1.111   .     S
C209   H226    1.111   .     S
C209   H227    1.110   .     S
C210   O246    1.413   .     S
C210   H228    1.115   .     S
C211   H231    1.110   .     S
C211   H232    1.111   .     S
C211   H233    1.111   .     S
C211   C402    1.521   .     S
C212   H234    1.081   .     S
C212   C782    1.395   .     S
C213   H235    1.082   .     S
C213   C783    1.395   1_554 S
C214   C407    1.335   .     S
C214   H428    1.088   .     S
C216   O250    1.285   .     A
C216   O252    1.285   .     A
C217   O253    1.285   .     A
C217   O251    1.285   .     A
C218   N243    1.438   .     S
H220   N243    1.045   .     S
H221   N244    1.045   .     S
H222   N244    1.045   .     S
H229   C402    1.111   .     S
H237   C407    1.088   .     S
H238   N369    1.029   1_455 S
H239   N306    1.029   .     S
H240   N243    1.046   .     S
N241   Zn256   2.018   .     S
N241   H302    1.029   .     S
N241   N306    1.275   .     S
N242   Zn255   2.018   .     S
N242   N369    1.275   1_455 S
N242   H367    1.029   1_455 S
O245   Zn255   1.952   .     S
O247   Zn256   1.952   .     S
O248   Zn256   1.974   .     S
O249   Zn255   1.974   .     S
O250   Zn255   1.990   .     S
O251   Zn256   1.990   .     S
O252   Zn256   2.015   .     S
O253   Zn255   2.015   .     S
C257   C278    1.399   .     S
C257   O312    1.286   .     A
C257   O309    1.277   .     A
C258   C260    1.394   .     A
C258   N308    1.438   .     S
C258   C269    1.401   .     A
C259   C282    1.399   .     A
C259   C281    1.416   .     S
C259   C261    1.387   .     A
C260   C262    1.386   .     A
C260   C280    1.416   .     S
C261   H283    1.086   .     S
C261   C263    1.385   .     A
C262   H294    1.085   .     S
C262   C264    1.384   .     A
C263   C265    1.415   .     A
C263   C270    1.405   .     A
C264   C271    1.406   .     A
C264   C266    1.417   .     A
C265   C267    1.418   .     A
C265   C842    1.395   1_554 S
C266   C269    1.419   .     A
C266   C841    1.395   .     S
C267   C282    1.394   .     A
C267   C277    1.401   .     A
C268   C279    1.399   .     S
C268   O313    1.286   .     A
C268   O311    1.277   .     A
C269   C276    1.403   .     A
C270   O318    1.387   .     S
C270   C852    1.395   1_554 S
C271   O310    1.388   .     S
C271   C853    1.395   .     S
C272   H288    1.116   .     S
C272   O318    1.412   .     S
C272   C465    1.521   .     S
C272   H479    1.111   .     S
C273   H289    1.111   .     S
C273   H290    1.111   .     S
C273   H291    1.110   .     S
C274   O310    1.413   .     S
C274   H292    1.115   .     S
C275   H295    1.110   .     S
C275   H296    1.111   .     S
C275   H297    1.111   .     S
C275   C466    1.521   .     S
C276   H298    1.081   .     S
C276   C846    1.395   .     S
C277   H299    1.082   .     S
C277   C847    1.395   1_554 S
C278   C471    1.335   .     S
C278   H492    1.088   .     S
C280   O314    1.285   .     A
C280   O316    1.285   .     A
C281   O317    1.285   .     A
C281   O315    1.285   .     A
C282   N307    1.438   .     S
H284   N307    1.045   .     S
H285   N308    1.045   .     S
H286   N308    1.045   .     S
H293   C466    1.111   .     S
H301   C471    1.088   .     S
H303   N370    1.029   .     S
H304   N307    1.046   .     S
N305   Zn320   2.018   .     S
N305   H366    1.029   .     S
N305   N370    1.275   .     S
N306   Zn319   2.018   .     S
O309   Zn319   1.952   .     S
O311   Zn320   1.952   .     S
O312   Zn320   1.974   .     S
O313   Zn319   1.974   .     S
O314   Zn319   1.990   .     S
O315   Zn320   1.990   .     S
O316   Zn320   2.015   .     S
O317   Zn319   2.015   .     S
C321   C342    1.399   .     S
C321   O376    1.286   .     A
C321   O373    1.277   .     A
C322   C324    1.394   .     A
C322   N372    1.438   .     S
C322   C333    1.401   .     A
C323   C346    1.399   .     A
C323   C345    1.416   .     S
C323   C325    1.387   .     A
C324   C326    1.386   .     A
C324   C344    1.416   .     S
C325   H347    1.086   .     S
C325   C327    1.385   .     A
C326   H358    1.085   .     S
C326   C328    1.384   .     A
C327   C329    1.415   .     A
C327   C334    1.405   .     A
C328   C335    1.406   .     A
C328   C330    1.417   .     A
C329   C331    1.418   .     A
C329   C906    1.395   1_554 S
C330   C333    1.419   .     A
C330   C905    1.395   .     S
C331   C346    1.394   .     A
C331   C341    1.401   .     A
C332   C343    1.399   .     S
C332   O377    1.286   .     A
C332   O375    1.277   .     A
C333   C340    1.403   .     A
C334   O382    1.387   .     S
C334   C916    1.395   1_554 S
C335   O374    1.388   .     S
C335   C917    1.395   .     S
C336   H352    1.116   .     S
C336   O382    1.412   .     S
C336   C529    1.521   .     S
C336   H543    1.111   .     S
C337   H353    1.111   .     S
C337   H354    1.111   .     S
C337   H355    1.110   .     S
C338   O374    1.413   .     S
C338   H356    1.115   .     S
C339   H359    1.110   .     S
C339   H360    1.111   .     S
C339   H361    1.111   .     S
C339   C530    1.521   .     S
C340   H362    1.081   .     S
C340   C910    1.395   .     S
C341   H363    1.082   .     S
C341   C911    1.395   1_554 S
C342   C535    1.335   .     S
C342   H556    1.088   .     S
C344   O378    1.285   .     A
C344   O380    1.285   .     A
C345   O381    1.285   .     A
C345   O379    1.285   .     A
C346   N371    1.438   .     S
H348   N371    1.045   .     S
H349   N372    1.045   .     S
H350   N372    1.045   .     S
H357   C530    1.111   .     S
H365   C535    1.088   .     S
H367   N242    1.029   1_655 S
H368   N371    1.046   .     S
N369   Zn384   2.018   .     S
N369   H238    1.029   1_655 S
N369   N242    1.275   1_655 S
N370   Zn383   2.018   .     S
O373   Zn383   1.952   .     S
O375   Zn384   1.952   .     S
O376   Zn384   1.974   .     S
O377   Zn383   1.974   .     S
O378   Zn383   1.990   .     S
O379   Zn384   1.990   .     S
O380   Zn384   2.015   .     S
O381   Zn383   2.015   .     S
C385   C406    1.399   .     S
C385   O440    1.286   .     A
C385   O437    1.277   .     A
C386   C388    1.394   .     A
C386   N436    1.438   .     S
C386   C397    1.401   .     A
C387   C410    1.399   .     A
C387   C409    1.416   .     S
C387   C389    1.387   .     A
C388   C390    1.386   .     A
C388   C408    1.416   .     S
C389   H411    1.086   .     S
C389   C391    1.385   .     A
C390   H422    1.085   .     S
C390   C392    1.384   .     A
C391   C393    1.415   .     A
C391   C398    1.405   .     A
C392   C399    1.406   .     A
C392   C394    1.417   .     A
C393   C395    1.418   .     A
C393   C970    1.395   1_554 S
C394   C397    1.419   .     A
C394   C969    1.395   .     S
C395   C410    1.394   .     A
C395   C405    1.401   .     A
C396   C407    1.399   .     S
C396   O441    1.286   .     A
C396   O439    1.277   .     A
C397   C404    1.403   .     A
C398   O446    1.387   .     S
C398   C980    1.395   1_554 S
C399   O438    1.388   .     S
C399   C981    1.395   .     S
C400   H416    1.116   .     S
C400   O446    1.412   .     S
C400   C17     1.521   1_565 S
C400   H31     1.111   1_565 S
C401   H417    1.111   .     S
C401   H418    1.111   .     S
C401   H419    1.110   .     S
C402   O438    1.413   .     S
C402   H420    1.115   .     S
C403   H423    1.110   .     S
C403   H424    1.111   .     S
C403   H425    1.111   .     S
C403   C18     1.521   1_565 S
C404   H426    1.081   .     S
C404   C974    1.395   .     S
C405   H427    1.082   .     S
C405   C975    1.395   1_554 S
C406   C23     1.335   1_565 S
C406   H44     1.088   1_565 S
C408   O442    1.285   .     A
C408   O444    1.285   .     A
C409   O445    1.285   .     A
C409   O443    1.285   .     A
C410   N435    1.438   .     S
H412   N435    1.045   .     S
H413   N436    1.045   .     S
H414   N436    1.045   .     S
H421   C18     1.111   1_565 S
H429   C23     1.088   1_565 S
H430   N561    1.029   1_455 S
H431   N498    1.029   .     S
H432   N435    1.046   .     S
N433   Zn448   2.018   .     S
N433   H494    1.029   .     S
N433   N498    1.275   .     S
N434   Zn447   2.018   .     S
N434   N561    1.275   1_455 S
N434   H559    1.029   1_455 S
O437   Zn447   1.952   .     S
O439   Zn448   1.952   .     S
O440   Zn448   1.974   .     S
O441   Zn447   1.974   .     S
O442   Zn447   1.990   .     S
O443   Zn448   1.990   .     S
O444   Zn448   2.015   .     S
O445   Zn447   2.015   .     S
C449   C470    1.399   .     S
C449   O504    1.286   .     A
C449   O501    1.277   .     A
C450   C452    1.394   .     A
C450   N500    1.438   .     S
C450   C461    1.401   .     A
C451   C474    1.399   .     A
C451   C473    1.416   .     S
C451   C453    1.387   .     A
C452   C454    1.386   .     A
C452   C472    1.416   .     S
C453   H475    1.086   .     S
C453   C455    1.385   .     A
C454   H486    1.085   .     S
C454   C456    1.384   .     A
C455   C457    1.415   .     A
C455   C462    1.405   .     A
C456   C463    1.406   .     A
C456   C458    1.417   .     A
C457   C459    1.418   .     A
C457   C1034   1.395   1_554 S
C458   C461    1.419   .     A
C458   C1033   1.395   .     S
C459   C474    1.394   .     A
C459   C469    1.401   .     A
C460   C471    1.399   .     S
C460   O505    1.286   .     A
C460   O503    1.277   .     A
C461   C468    1.403   .     A
C462   O510    1.387   .     S
C462   C1044   1.395   1_554 S
C463   O502    1.388   .     S
C463   C1045   1.395   .     S
C464   H480    1.116   .     S
C464   O510    1.412   .     S
C464   C81     1.521   1_565 S
C464   H95     1.111   1_565 S
C465   H481    1.111   .     S
C465   H482    1.111   .     S
C465   H483    1.110   .     S
C466   O502    1.413   .     S
C466   H484    1.115   .     S
C467   H487    1.110   .     S
C467   H488    1.111   .     S
C467   H489    1.111   .     S
C467   C82     1.521   1_565 S
C468   H490    1.081   .     S
C468   C1038   1.395   .     S
C469   H491    1.082   .     S
C469   C1039   1.395   1_554 S
C470   C87     1.335   1_565 S
C470   H108    1.088   1_565 S
C472   O506    1.285   .     A
C472   O508    1.285   .     A
C473   O509    1.285   .     A
C473   O507    1.285   .     A
C474   N499    1.438   .     S
H476   N499    1.045   .     S
H477   N500    1.045   .     S
H478   N500    1.045   .     S
H485   C82     1.111   1_565 S
H493   C87     1.088   1_565 S
H495   N562    1.029   .     S
H496   N499    1.046   .     S
N497   Zn512   2.018   .     S
N497   H558    1.029   .     S
N497   N562    1.275   .     S
N498   Zn511   2.018   .     S
O501   Zn511   1.952   .     S
O503   Zn512   1.952   .     S
O504   Zn512   1.974   .     S
O505   Zn511   1.974   .     S
O506   Zn511   1.990   .     S
O507   Zn512   1.990   .     S
O508   Zn512   2.015   .     S
O509   Zn511   2.015   .     S
C513   C534    1.399   .     S
C513   O568    1.286   .     A
C513   O565    1.277   .     A
C514   C516    1.394   .     A
C514   N564    1.438   .     S
C514   C525    1.401   .     A
C515   C538    1.399   .     A
C515   C537    1.416   .     S
C515   C517    1.387   .     A
C516   C518    1.386   .     A
C516   C536    1.416   .     S
C517   H539    1.086   .     S
C517   C519    1.385   .     A
C518   H550    1.085   .     S
C518   C520    1.384   .     A
C519   C521    1.415   .     A
C519   C526    1.405   .     A
C520   C527    1.406   .     A
C520   C522    1.417   .     A
C521   C523    1.418   .     A
C521   C1098   1.395   1_554 S
C522   C525    1.419   .     A
C522   C1097   1.395   .     S
C523   C538    1.394   .     A
C523   C533    1.401   .     A
C524   C535    1.399   .     S
C524   O569    1.286   .     A
C524   O567    1.277   .     A
C525   C532    1.403   .     A
C526   O574    1.387   .     S
C526   C1108   1.395   1_554 S
C527   O566    1.388   .     S
C527   C1109   1.395   .     S
C528   H544    1.116   .     S
C528   O574    1.412   .     S
C528   C145    1.521   1_565 S
C528   H159    1.111   1_565 S
C529   H545    1.111   .     S
C529   H546    1.111   .     S
C529   H547    1.110   .     S
C530   O566    1.413   .     S
C530   H548    1.115   .     S
C531   H551    1.110   .     S
C531   H552    1.111   .     S
C531   H553    1.111   .     S
C531   C146    1.521   1_565 S
C532   H554    1.081   .     S
C532   C1102   1.395   .     S
C533   H555    1.082   .     S
C533   C1103   1.395   1_554 S
C534   C151    1.335   1_565 S
C534   H172    1.088   1_565 S
C536   O570    1.285   .     A
C536   O572    1.285   .     A
C537   O573    1.285   .     A
C537   O571    1.285   .     A
C538   N563    1.438   .     S
H540   N563    1.045   .     S
H541   N564    1.045   .     S
H542   N564    1.045   .     S
H549   C146    1.111   1_565 S
H557   C151    1.088   1_565 S
H559   N434    1.029   1_655 S
H560   N563    1.046   .     S
N561   Zn576   2.018   .     S
N561   H430    1.029   1_655 S
N561   N434    1.275   1_655 S
N562   Zn575   2.018   .     S
O565   Zn575   1.952   .     S
O567   Zn576   1.952   .     S
O568   Zn576   1.974   .     S
O569   Zn575   1.974   .     S
O570   Zn575   1.990   .     S
O571   Zn576   1.990   .     S
O572   Zn576   2.015   .     S
O573   Zn575   2.015   .     S
C577   C598    1.399   .     S
C577   O632    1.286   .     A
C577   O629    1.277   .     A
C578   C580    1.394   .     A
C578   N628    1.438   .     S
C578   C589    1.401   .     A
C579   C602    1.399   .     A
C579   C601    1.416   .     S
C579   C581    1.387   .     A
C580   C582    1.386   .     A
C580   C600    1.416   .     S
C581   H603    1.086   .     S
C581   C583    1.385   .     A
C582   H614    1.085   .     S
C582   C584    1.384   .     A
C583   C585    1.415   .     A
C583   C590    1.405   .     A
C584   C591    1.406   .     A
C584   C586    1.417   .     A
C585   C587    1.418   .     A
C586   C589    1.419   .     A
C586   C9      1.395   1_556 S
C587   C602    1.394   .     A
C587   C597    1.401   .     A
C588   C599    1.399   .     S
C588   O633    1.286   .     A
C588   O631    1.277   .     A
C589   C596    1.403   .     A
C590   O638    1.387   .     S
C591   O630    1.388   .     S
C591   C21     1.395   1_556 S
C592   H608    1.116   .     S
C592   O638    1.412   .     S
C592   C785    1.521   .     S
C592   H799    1.111   .     S
C593   H609    1.111   .     S
C593   H610    1.111   .     S
C593   H611    1.110   .     S
C593   C976    1.521   1_545 S
C594   O630    1.413   .     S
C594   H612    1.115   .     S
C594   C979    1.521   1_545 S
C594   H997    1.111   1_545 S
C595   H615    1.110   .     S
C595   H616    1.111   .     S
C595   H617    1.111   .     S
C595   C786    1.521   .     S
C596   H618    1.081   .     S
C596   C14     1.395   1_556 S
C597   H619    1.082   .     S
C598   C791    1.335   .     S
C598   H812    1.088   .     S
C599   C982    1.335   1_545 S
C599   H1005   1.088   1_545 S
C600   O634    1.285   .     A
C600   O636    1.285   .     A
C601   O637    1.285   .     A
C601   O635    1.285   .     A
C602   N627    1.438   .     S
H604   N627    1.045   .     S
H605   N628    1.045   .     S
H606   N628    1.045   .     S
H607   C976    1.111   1_545 S
H613   C786    1.111   .     S
H620   C982    1.088   1_545 S
H621   C791    1.088   .     S
H622   N753    1.029   1_455 S
H623   N690    1.029   .     S
H624   N627    1.046   .     S
N625   Zn640   2.018   .     S
N625   H686    1.029   .     S
N625   N690    1.275   .     S
N626   Zn639   2.018   .     S
N626   N753    1.275   1_455 S
N626   H751    1.029   1_455 S
O629   Zn639   1.952   .     S
O631   Zn640   1.952   .     S
O632   Zn640   1.974   .     S
O633   Zn639   1.974   .     S
O634   Zn639   1.990   .     S
O635   Zn640   1.990   .     S
O636   Zn640   2.015   .     S
O637   Zn639   2.015   .     S
C641   C662    1.399   .     S
C641   O696    1.286   .     A
C641   O693    1.277   .     A
C642   C644    1.394   .     A
C642   N692    1.438   .     S
C642   C653    1.401   .     A
C643   C666    1.399   .     A
C643   C665    1.416   .     S
C643   C645    1.387   .     A
C644   C646    1.386   .     A
C644   C664    1.416   .     S
C645   H667    1.086   .     S
C645   C647    1.385   .     A
C646   H678    1.085   .     S
C646   C648    1.384   .     A
C647   C649    1.415   .     A
C647   C654    1.405   .     A
C648   C655    1.406   .     A
C648   C650    1.417   .     A
C649   C651    1.418   .     A
C650   C653    1.419   .     A
C650   C73     1.395   1_556 S
C651   C666    1.394   .     A
C651   C661    1.401   .     A
C652   C663    1.399   .     S
C652   O697    1.286   .     A
C652   O695    1.277   .     A
C653   C660    1.403   .     A
C654   O702    1.387   .     S
C655   O694    1.388   .     S
C655   C85     1.395   1_556 S
C656   H672    1.116   .     S
C656   O702    1.412   .     S
C656   C849    1.521   .     S
C656   H863    1.111   .     S
C657   H673    1.111   .     S
C657   H674    1.111   .     S
C657   H675    1.110   .     S
C657   C1040   1.521   1_545 S
C658   O694    1.413   .     S
C658   H676    1.115   .     S
C658   C1043   1.521   1_545 S
C658   H1061   1.111   1_545 S
C659   H679    1.110   .     S
C659   H680    1.111   .     S
C659   H681    1.111   .     S
C659   C850    1.521   .     S
C660   H682    1.081   .     S
C660   C78     1.395   1_556 S
C661   H683    1.082   .     S
C662   C855    1.335   .     S
C662   H876    1.088   .     S
C663   C1046   1.335   1_545 S
C663   H1069   1.088   1_545 S
C664   O698    1.285   .     A
C664   O700    1.285   .     A
C665   O701    1.285   .     A
C665   O699    1.285   .     A
C666   N691    1.438   .     S
H668   N691    1.045   .     S
H669   N692    1.045   .     S
H670   N692    1.045   .     S
H671   C1040   1.111   1_545 S
H677   C850    1.111   .     S
H684   C1046   1.088   1_545 S
H685   C855    1.088   .     S
H687   N754    1.029   .     S
H688   N691    1.046   .     S
N689   Zn704   2.018   .     S
N689   H750    1.029   .     S
N689   N754    1.275   .     S
N690   Zn703   2.018   .     S
O693   Zn703   1.952   .     S
O695   Zn704   1.952   .     S
O696   Zn704   1.974   .     S
O697   Zn703   1.974   .     S
O698   Zn703   1.990   .     S
O699   Zn704   1.990   .     S
O700   Zn704   2.015   .     S
O701   Zn703   2.015   .     S
C705   C726    1.399   .     S
C705   O760    1.286   .     A
C705   O757    1.277   .     A
C706   C708    1.394   .     A
C706   N756    1.438   .     S
C706   C717    1.401   .     A
C707   C730    1.399   .     A
C707   C729    1.416   .     S
C707   C709    1.387   .     A
C708   C710    1.386   .     A
C708   C728    1.416   .     S
C709   H731    1.086   .     S
C709   C711    1.385   .     A
C710   H742    1.085   .     S
C710   C712    1.384   .     A
C711   C713    1.415   .     A
C711   C718    1.405   .     A
C712   C719    1.406   .     A
C712   C714    1.417   .     A
C713   C715    1.418   .     A
C714   C717    1.419   .     A
C714   C137    1.395   1_556 S
C715   C730    1.394   .     A
C715   C725    1.401   .     A
C716   C727    1.399   .     S
C716   O761    1.286   .     A
C716   O759    1.277   .     A
C717   C724    1.403   .     A
C718   O766    1.387   .     S
C719   O758    1.388   .     S
C719   C149    1.395   1_556 S
C720   H736    1.116   .     S
C720   O766    1.412   .     S
C720   C913    1.521   .     S
C720   H927    1.111   .     S
C721   H737    1.111   .     S
C721   H738    1.111   .     S
C721   H739    1.110   .     S
C721   C1104   1.521   1_545 S
C722   O758    1.413   .     S
C722   H740    1.115   .     S
C722   C1107   1.521   1_545 S
C722   H1125   1.111   1_545 S
C723   H743    1.110   .     S
C723   H744    1.111   .     S
C723   H745    1.111   .     S
C723   C914    1.521   .     S
C724   H746    1.081   .     S
C724   C142    1.395   1_556 S
C725   H747    1.082   .     S
C726   C919    1.335   .     S
C726   H940    1.088   .     S
C727   C1110   1.335   1_545 S
C727   H1133   1.088   1_545 S
C728   O762    1.285   .     A
C728   O764    1.285   .     A
C729   O765    1.285   .     A
C729   O763    1.285   .     A
C730   N755    1.438   .     S
H732   N755    1.045   .     S
H733   N756    1.045   .     S
H734   N756    1.045   .     S
H735   C1104   1.111   1_545 S
H741   C914    1.111   .     S
H748   C1110   1.088   1_545 S
H749   C919    1.088   .     S
H751   N626    1.029   1_655 S
H752   N755    1.046   .     S
N753   Zn768   2.018   .     S
N753   H622    1.029   1_655 S
N753   N626    1.275   1_655 S
N754   Zn767   2.018   .     S
O757   Zn767   1.952   .     S
O759   Zn768   1.952   .     S
O760   Zn768   1.974   .     S
O761   Zn767   1.974   .     S
O762   Zn767   1.990   .     S
O763   Zn768   1.990   .     S
O764   Zn768   2.015   .     S
O765   Zn767   2.015   .     S
C769   C790    1.399   .     S
C769   O824    1.286   .     A
C769   O821    1.277   .     A
C770   C772    1.394   .     A
C770   N820    1.438   .     S
C770   C781    1.401   .     A
C771   C794    1.399   .     A
C771   C793    1.416   .     S
C771   C773    1.387   .     A
C772   C774    1.386   .     A
C772   C792    1.416   .     S
C773   H795    1.086   .     S
C773   C775    1.385   .     A
C774   H806    1.085   .     S
C774   C776    1.384   .     A
C775   C777    1.415   .     A
C775   C782    1.405   .     A
C776   C783    1.406   .     A
C776   C778    1.417   .     A
C777   C779    1.418   .     A
C778   C781    1.419   .     A
C778   C201    1.395   1_556 S
C779   C794    1.394   .     A
C779   C789    1.401   .     A
C780   C791    1.399   .     S
C780   O825    1.286   .     A
C780   O823    1.277   .     A
C781   C788    1.403   .     A
C782   O830    1.387   .     S
C783   O822    1.388   .     S
C783   C213    1.395   1_556 S
C784   H800    1.116   .     S
C784   O830    1.412   .     S
C784   C977    1.521   .     S
C784   H991    1.111   .     S
C785   H801    1.111   .     S
C785   H802    1.111   .     S
C785   H803    1.110   .     S
C786   O822    1.413   .     S
C786   H804    1.115   .     S
C787   H807    1.110   .     S
C787   H808    1.111   .     S
C787   H809    1.111   .     S
C787   C978    1.521   .     S
C788   H810    1.081   .     S
C788   C206    1.395   1_556 S
C789   H811    1.082   .     S
C790   C983    1.335   .     S
C790   H1004   1.088   .     S
C792   O826    1.285   .     A
C792   O828    1.285   .     A
C793   O829    1.285   .     A
C793   O827    1.285   .     A
C794   N819    1.438   .     S
H796   N819    1.045   .     S
H797   N820    1.045   .     S
H798   N820    1.045   .     S
H805   C978    1.111   .     S
H813   C983    1.088   .     S
H814   N945    1.029   1_455 S
H815   N882    1.029   .     S
H816   N819    1.046   .     S
N817   Zn832   2.018   .     S
N817   H878    1.029   .     S
N817   N882    1.275   .     S
N818   Zn831   2.018   .     S
N818   N945    1.275   1_455 S
N818   H943    1.029   1_455 S
O821   Zn831   1.952   .     S
O823   Zn832   1.952   .     S
O824   Zn832   1.974   .     S
O825   Zn831   1.974   .     S
O826   Zn831   1.990   .     S
O827   Zn832   1.990   .     S
O828   Zn832   2.015   .     S
O829   Zn831   2.015   .     S
C833   C854    1.399   .     S
C833   O888    1.286   .     A
C833   O885    1.277   .     A
C834   C836    1.394   .     A
C834   N884    1.438   .     S
C834   C845    1.401   .     A
C835   C858    1.399   .     A
C835   C857    1.416   .     S
C835   C837    1.387   .     A
C836   C838    1.386   .     A
C836   C856    1.416   .     S
C837   H859    1.086   .     S
C837   C839    1.385   .     A
C838   H870    1.085   .     S
C838   C840    1.384   .     A
C839   C841    1.415   .     A
C839   C846    1.405   .     A
C840   C847    1.406   .     A
C840   C842    1.417   .     A
C841   C843    1.418   .     A
C842   C845    1.419   .     A
C842   C265    1.395   1_556 S
C843   C858    1.394   .     A
C843   C853    1.401   .     A
C844   C855    1.399   .     S
C844   O889    1.286   .     A
C844   O887    1.277   .     A
C845   C852    1.403   .     A
C846   O894    1.387   .     S
C847   O886    1.388   .     S
C847   C277    1.395   1_556 S
C848   H864    1.116   .     S
C848   O894    1.412   .     S
C848   C1041   1.521   .     S
C848   H1055   1.111   .     S
C849   H865    1.111   .     S
C849   H866    1.111   .     S
C849   H867    1.110   .     S
C850   O886    1.413   .     S
C850   H868    1.115   .     S
C851   H871    1.110   .     S
C851   H872    1.111   .     S
C851   H873    1.111   .     S
C851   C1042   1.521   .     S
C852   H874    1.081   .     S
C852   C270    1.395   1_556 S
C853   H875    1.082   .     S
C854   C1047   1.335   .     S
C854   H1068   1.088   .     S
C856   O890    1.285   .     A
C856   O892    1.285   .     A
C857   O893    1.285   .     A
C857   O891    1.285   .     A
C858   N883    1.438   .     S
H860   N883    1.045   .     S
H861   N884    1.045   .     S
H862   N884    1.045   .     S
H869   C1042   1.111   .     S
H877   C1047   1.088   .     S
H879   N946    1.029   .     S
H880   N883    1.046   .     S
N881   Zn896   2.018   .     S
N881   H942    1.029   .     S
N881   N946    1.275   .     S
N882   Zn895   2.018   .     S
O885   Zn895   1.952   .     S
O887   Zn896   1.952   .     S
O888   Zn896   1.974   .     S
O889   Zn895   1.974   .     S
O890   Zn895   1.990   .     S
O891   Zn896   1.990   .     S
O892   Zn896   2.015   .     S
O893   Zn895   2.015   .     S
C897   C918    1.399   .     S
C897   O952    1.286   .     A
C897   O949    1.277   .     A
C898   C900    1.394   .     A
C898   N948    1.438   .     S
C898   C909    1.401   .     A
C899   C922    1.399   .     A
C899   C921    1.416   .     S
C899   C901    1.387   .     A
C900   C902    1.386   .     A
C900   C920    1.416   .     S
C901   H923    1.086   .     S
C901   C903    1.385   .     A
C902   H934    1.085   .     S
C902   C904    1.384   .     A
C903   C905    1.415   .     A
C903   C910    1.405   .     A
C904   C911    1.406   .     A
C904   C906    1.417   .     A
C905   C907    1.418   .     A
C906   C909    1.419   .     A
C906   C329    1.395   1_556 S
C907   C922    1.394   .     A
C907   C917    1.401   .     A
C908   C919    1.399   .     S
C908   O953    1.286   .     A
C908   O951    1.277   .     A
C909   C916    1.403   .     A
C910   O958    1.387   .     S
C911   O950    1.388   .     S
C911   C341    1.395   1_556 S
C912   H928    1.116   .     S
C912   O958    1.412   .     S
C912   C1105   1.521   .     S
C912   H1119   1.111   .     S
C913   H929    1.111   .     S
C913   H930    1.111   .     S
C913   H931    1.110   .     S
C914   O950    1.413   .     S
C914   H932    1.115   .     S
C915   H935    1.110   .     S
C915   H936    1.111   .     S
C915   H937    1.111   .     S
C915   C1106   1.521   .     S
C916   H938    1.081   .     S
C916   C334    1.395   1_556 S
C917   H939    1.082   .     S
C918   C1111   1.335   .     S
C918   H1132   1.088   .     S
C920   O954    1.285   .     A
C920   O956    1.285   .     A
C921   O957    1.285   .     A
C921   O955    1.285   .     A
C922   N947    1.438   .     S
H924   N947    1.045   .     S
H925   N948    1.045   .     S
H926   N948    1.045   .     S
H933   C1106   1.111   .     S
H941   C1111   1.088   .     S
H943   N818    1.029   1_655 S
H944   N947    1.046   .     S
N945   Zn960   2.018   .     S
N945   H814    1.029   1_655 S
N945   N818    1.275   1_655 S
N946   Zn959   2.018   .     S
O949   Zn959   1.952   .     S
O951   Zn960   1.952   .     S
O952   Zn960   1.974   .     S
O953   Zn959   1.974   .     S
O954   Zn959   1.990   .     S
O955   Zn960   1.990   .     S
O956   Zn960   2.015   .     S
O957   Zn959   2.015   .     S
C961   C982    1.399   .     S
C961   O1016   1.286   .     A
C961   O1013   1.277   .     A
C962   C964    1.394   .     A
C962   N1012   1.438   .     S
C962   C973    1.401   .     A
C963   C986    1.399   .     A
C963   C985    1.416   .     S
C963   C965    1.387   .     A
C964   C966    1.386   .     A
C964   C984    1.416   .     S
C965   H987    1.086   .     S
C965   C967    1.385   .     A
C966   H998    1.085   .     S
C966   C968    1.384   .     A
C967   C969    1.415   .     A
C967   C974    1.405   .     A
C968   C975    1.406   .     A
C968   C970    1.417   .     A
C969   C971    1.418   .     A
C970   C973    1.419   .     A
C970   C393    1.395   1_556 S
C971   C986    1.394   .     A
C971   C981    1.401   .     A
C972   C983    1.399   .     S
C972   O1017   1.286   .     A
C972   O1015   1.277   .     A
C973   C980    1.403   .     A
C974   O1022   1.387   .     S
C975   O1014   1.388   .     S
C975   C405    1.395   1_556 S
C976   H992    1.116   .     S
C976   O1022   1.412   .     S
C976   C593    1.521   1_565 S
C976   H607    1.111   1_565 S
C977   H993    1.111   .     S
C977   H994    1.111   .     S
C977   H995    1.110   .     S
C978   O1014   1.413   .     S
C978   H996    1.115   .     S
C979   H999    1.110   .     S
C979   H1000   1.111   .     S
C979   H1001   1.111   .     S
C979   C594    1.521   1_565 S
C980   H1002   1.081   .     S
C980   C398    1.395   1_556 S
C981   H1003   1.082   .     S
C982   C599    1.335   1_565 S
C982   H620    1.088   1_565 S
C984   O1018   1.285   .     A
C984   O1020   1.285   .     A
C985   O1021   1.285   .     A
C985   O1019   1.285   .     A
C986   N1011   1.438   .     S
H988   N1011   1.045   .     S
H989   N1012   1.045   .     S
H990   N1012   1.045   .     S
H997   C594    1.111   1_565 S
H1005  C599    1.088   1_565 S
H1006  N1137   1.029   1_455 S
H1007  N1074   1.029   .     S
H1008  N1011   1.046   .     S
N1009  Zn1024  2.018   .     S
N1009  H1070   1.029   .     S
N1009  N1074   1.275   .     S
N1010  Zn1023  2.018   .     S
N1010  N1137   1.275   1_455 S
N1010  H1135   1.029   1_455 S
O1013  Zn1023  1.952   .     S
O1015  Zn1024  1.952   .     S
O1016  Zn1024  1.974   .     S
O1017  Zn1023  1.974   .     S
O1018  Zn1023  1.990   .     S
O1019  Zn1024  1.990   .     S
O1020  Zn1024  2.015   .     S
O1021  Zn1023  2.015   .     S
C1025  C1046   1.399   .     S
C1025  O1080   1.286   .     A
C1025  O1077   1.277   .     A
C1026  C1028   1.394   .     A
C1026  N1076   1.438   .     S
C1026  C1037   1.401   .     A
C1027  C1050   1.399   .     A
C1027  C1049   1.416   .     S
C1027  C1029   1.387   .     A
C1028  C1030   1.386   .     A
C1028  C1048   1.416   .     S
C1029  H1051   1.086   .     S
C1029  C1031   1.385   .     A
C1030  H1062   1.085   .     S
C1030  C1032   1.384   .     A
C1031  C1033   1.415   .     A
C1031  C1038   1.405   .     A
C1032  C1039   1.406   .     A
C1032  C1034   1.417   .     A
C1033  C1035   1.418   .     A
C1034  C1037   1.419   .     A
C1034  C457    1.395   1_556 S
C1035  C1050   1.394   .     A
C1035  C1045   1.401   .     A
C1036  C1047   1.399   .     S
C1036  O1081   1.286   .     A
C1036  O1079   1.277   .     A
C1037  C1044   1.403   .     A
C1038  O1086   1.387   .     S
C1039  O1078   1.388   .     S
C1039  C469    1.395   1_556 S
C1040  H1056   1.116   .     S
C1040  O1086   1.412   .     S
C1040  C657    1.521   1_565 S
C1040  H671    1.111   1_565 S
C1041  H1057   1.111   .     S
C1041  H1058   1.111   .     S
C1041  H1059   1.110   .     S
C1042  O1078   1.413   .     S
C1042  H1060   1.115   .     S
C1043  H1063   1.110   .     S
C1043  H1064   1.111   .     S
C1043  H1065   1.111   .     S
C1043  C658    1.521   1_565 S
C1044  H1066   1.081   .     S
C1044  C462    1.395   1_556 S
C1045  H1067   1.082   .     S
C1046  C663    1.335   1_565 S
C1046  H684    1.088   1_565 S
C1048  O1082   1.285   .     A
C1048  O1084   1.285   .     A
C1049  O1085   1.285   .     A
C1049  O1083   1.285   .     A
C1050  N1075   1.438   .     S
H1052  N1075   1.045   .     S
H1053  N1076   1.045   .     S
H1054  N1076   1.045   .     S
H1061  C658    1.111   1_565 S
H1069  C663    1.088   1_565 S
H1071  N1138   1.029   .     S
H1072  N1075   1.046   .     S
N1073  Zn1088  2.018   .     S
N1073  H1134   1.029   .     S
N1073  N1138   1.275   .     S
N1074  Zn1087  2.018   .     S
O1077  Zn1087  1.952   .     S
O1079  Zn1088  1.952   .     S
O1080  Zn1088  1.974   .     S
O1081  Zn1087  1.974   .     S
O1082  Zn1087  1.990   .     S
O1083  Zn1088  1.990   .     S
O1084  Zn1088  2.015   .     S
O1085  Zn1087  2.015   .     S
C1089  C1110   1.399   .     S
C1089  O1144   1.286   .     A
C1089  O1141   1.277   .     A
C1090  C1092   1.394   .     A
C1090  N1140   1.438   .     S
C1090  C1101   1.401   .     A
C1091  C1114   1.399   .     A
C1091  C1113   1.416   .     S
C1091  C1093   1.387   .     A
C1092  C1094   1.386   .     A
C1092  C1112   1.416   .     S
C1093  H1115   1.086   .     S
C1093  C1095   1.385   .     A
C1094  H1126   1.085   .     S
C1094  C1096   1.384   .     A
C1095  C1097   1.415   .     A
C1095  C1102   1.405   .     A
C1096  C1103   1.406   .     A
C1096  C1098   1.417   .     A
C1097  C1099   1.418   .     A
C1098  C1101   1.419   .     A
C1098  C521    1.395   1_556 S
C1099  C1114   1.394   .     A
C1099  C1109   1.401   .     A
C1100  C1111   1.399   .     S
C1100  O1145   1.286   .     A
C1100  O1143   1.277   .     A
C1101  C1108   1.403   .     A
C1102  O1150   1.387   .     S
C1103  O1142   1.388   .     S
C1103  C533    1.395   1_556 S
C1104  H1120   1.116   .     S
C1104  O1150   1.412   .     S
C1104  C721    1.521   1_565 S
C1104  H735    1.111   1_565 S
C1105  H1121   1.111   .     S
C1105  H1122   1.111   .     S
C1105  H1123   1.110   .     S
C1106  O1142   1.413   .     S
C1106  H1124   1.115   .     S
C1107  H1127   1.110   .     S
C1107  H1128   1.111   .     S
C1107  H1129   1.111   .     S
C1107  C722    1.521   1_565 S
C1108  H1130   1.081   .     S
C1108  C526    1.395   1_556 S
C1109  H1131   1.082   .     S
C1110  C727    1.335   1_565 S
C1110  H748    1.088   1_565 S
C1112  O1146   1.285   .     A
C1112  O1148   1.285   .     A
C1113  O1149   1.285   .     A
C1113  O1147   1.285   .     A
C1114  N1139   1.438   .     S
H1116  N1139   1.045   .     S
H1117  N1140   1.045   .     S
H1118  N1140   1.045   .     S
H1125  C722    1.111   1_565 S
H1133  C727    1.088   1_565 S
H1135  N1010   1.029   1_655 S
H1136  N1139   1.046   .     S
N1137  Zn1152  2.018   .     S
N1137  H1006   1.029   1_655 S
N1137  N1010   1.275   1_655 S
N1138  Zn1151  2.018   .     S
O1141  Zn1151  1.952   .     S
O1143  Zn1152  1.952   .     S
O1144  Zn1152  1.974   .     S
O1145  Zn1151  1.974   .     S
O1146  Zn1151  1.990   .     S
O1147  Zn1152  1.990   .     S
O1148  Zn1152  2.015   .     S
O1149  Zn1151  2.015   .     S
