data_str_m1_o5_o17_pcu_sym.99
_audit_creation_date              2020-01-03
_audit_creation_method            'Materials Studio'
_symmetry_space_group_name_H-M    'P1'
_symmetry_Int_Tables_number       1
_symmetry_cell_setting            triclinic
loop_
_symmetry_equiv_pos_as_xyz
  x,y,z
_cell_length_a                    31.7266
_cell_length_b                    31.7729
_cell_length_c                    34.5202
_cell_angle_alpha                 89.9479
_cell_angle_beta                  90.0072
_cell_angle_gamma                 89.9960
loop_
_atom_site_label
_atom_site_type_symbol
_atom_site_fract_x
_atom_site_fract_y
_atom_site_fract_z
_atom_site_U_iso_or_equiv
_atom_site_adp_type
_atom_site_occupancy
C1     C     0.25007   0.49996   0.35591   0.00000  Uiso   1.00
C2     C     0.33003   0.42000   0.75001   0.00000  Uiso   1.00
C3     C     0.46324   0.18269   0.02048   0.00000  Uiso   1.00
C4     C     0.32660   0.00737   0.97964   0.00000  Uiso   1.00
C5     C     0.17314   0.49755   0.02018   0.00000  Uiso   1.00
C6     C     0.46323   0.18267   0.97967   0.00000  Uiso   1.00
C7     C     0.03674   0.31733   0.02034   0.00000  Uiso   1.00
C8     C     0.43779   0.30199   0.40129   0.00000  Uiso   1.00
C9     C     0.46325   0.33916   0.38544   0.00000  Uiso   1.00
C10    C     0.06862   0.29346   0.59756   0.00000  Uiso   1.00
C11    C     0.04821   0.33399   0.61252   0.00000  Uiso   1.00
C12    C     0.17548   0.03082   0.39774   0.00000  Uiso   1.00
C13    C     0.41997   0.17000   0.25000   0.00000  Uiso   1.00
C14    C     0.15333   0.49115   0.38294   0.00000  Uiso   1.00
C15    C     0.32311   0.46843   0.60146   0.00000  Uiso   1.00
C16    C     0.34608   0.00756   0.61643   0.00000  Uiso   1.00
C17    C     0.06219   0.19781   0.40126   0.00000  Uiso   1.00
C18    C     0.03671   0.16070   0.38537   0.00000  Uiso   1.00
C19    C     0.43142   0.20627   0.59774   0.00000  Uiso   1.00
C20    C     0.45187   0.16581   0.61288   0.00000  Uiso   1.00
C21    C     0.32329   0.46715   0.39886   0.00000  Uiso   1.00
C22    C     0.34665   0.00614   0.38406   0.00000  Uiso   1.00
C23    C     0.17508   0.03106   0.60083   0.00000  Uiso   1.00
C24    C     0.08003   0.33000   0.74999   0.00000  Uiso   1.00
C25    C     0.17465   0.06977   0.62728   0.00000  Uiso   1.00
C26    C     0.31271   0.05148   0.90131   0.00000  Uiso   1.00
C27    C     0.28760   0.08888   0.88543   0.00000  Uiso   1.00
C28    C     0.18182   0.04423   0.09768   0.00000  Uiso   1.00
C29    C     0.20263   0.08451   0.11277   0.00000  Uiso   1.00
C30    C     0.43121   0.20785   0.89895   0.00000  Uiso   1.00
C31    C     0.40355   0.24348   0.88323   0.00000  Uiso   1.00
C32    C     0.06881   0.29209   0.10101   0.00000  Uiso   1.00
C33    C     0.09648   0.25640   0.11661   0.00000  Uiso   1.00
C34    C     0.18731   0.44850   0.90138   0.00000  Uiso   1.00
C35    C     0.33002   0.41998   0.24999   0.00000  Uiso   1.00
C36    C     0.21243   0.41110   0.88557   0.00000  Uiso   1.00
C37    C     0.31817   0.45575   0.09777   0.00000  Uiso   1.00
C38    C     0.29735   0.41548   0.11293   0.00000  Uiso   1.00
C39    C     0.06885   0.29203   0.89890   0.00000  Uiso   1.00
C40    C     0.09649   0.25639   0.88323   0.00000  Uiso   1.00
C41    C     0.43113   0.20803   0.10107   0.00000  Uiso   1.00
C42    C     0.40349   0.24374   0.11661   0.00000  Uiso   1.00
C43    C     0.11643   0.24275   0.45902   0.00000  Uiso   1.00
C44    C     0.38399   0.26006   0.54097   0.00000  Uiso   1.00
C45    C     0.30836   0.40069   0.45990   0.00000  Uiso   1.00
C46    C     0.16997   0.08001   0.74999   0.00000  Uiso   1.00
C47    C     0.18295   0.09687   0.53902   0.00000  Uiso   1.00
C48    C     0.38358   0.25679   0.45898   0.00000  Uiso   1.00
C49    C     0.11600   0.23945   0.54101   0.00000  Uiso   1.00
C50    C     0.18785   0.09794   0.45810   0.00000  Uiso   1.00
C51    C     0.30816   0.40132   0.54141   0.00000  Uiso   1.00
C52    C     0.13352   0.49422   0.95899   0.00000  Uiso   1.00
C53    C     0.36612   0.00904   0.04100   0.00000  Uiso   1.00
C54    C     0.04528   0.35643   0.95909   0.00000  Uiso   1.00
C55    C     0.45492   0.14356   0.04094   0.00000  Uiso   1.00
C56    C     0.36649   0.00575   0.95902   0.00000  Uiso   1.00
C57    C     0.08003   0.33001   0.25000   0.00000  Uiso   1.00
C58    C     0.13388   0.49094   0.04098   0.00000  Uiso   1.00
C59    C     0.45477   0.14352   0.95934   0.00000  Uiso   1.00
C60    C     0.04503   0.35649   0.04070   0.00000  Uiso   1.00
C61    C     0.41998   0.16999   0.75000   0.00000  Uiso   1.00
C62    C     0.16999   0.41998   0.75003   0.00000  Uiso   1.00
C63    C     0.33003   0.08000   0.24999   0.00000  Uiso   1.00
C64    C     0.41997   0.33000   0.74999   0.00000  Uiso   1.00
C65    C     0.24917   0.00010   0.64405   0.00000  Uiso   1.00
C66    C     0.08002   0.16999   0.25002   0.00000  Uiso   1.00
C67    C     0.33002   0.08002   0.75001   0.00000  Uiso   1.00
C68    C     0.16997   0.41999   0.25000   0.00000  Uiso   1.00
C69    C     0.08002   0.16998   0.74999   0.00000  Uiso   1.00
C70    C     0.41998   0.33002   0.25001   0.00000  Uiso   1.00
C71    C     0.13833   0.38834   0.24999   0.00000  Uiso   1.00
C72    C     0.36167   0.11167   0.75002   0.00000  Uiso   1.00
C73    C     0.11167   0.13834   0.25003   0.00000  Uiso   1.00
C74    C     0.38832   0.36165   0.74998   0.00000  Uiso   1.00
C75    C     0.36168   0.11165   0.24998   0.00000  Uiso   1.00
C76    C     0.00000   0.24999   0.35606   0.00000  Uiso   1.00
C77    C     0.13833   0.38833   0.75004   0.00000  Uiso   1.00
C78    C     0.38834   0.36167   0.25002   0.00000  Uiso   1.00
C79    C     0.11166   0.13833   0.74997   0.00000  Uiso   1.00
C80    C     0.13832   0.11165   0.74997   0.00000  Uiso   1.00
C81    C     0.36167   0.38834   0.25000   0.00000  Uiso   1.00
C82    C     0.11169   0.36164   0.75000   0.00000  Uiso   1.00
C83    C     0.38832   0.13835   0.25001   0.00000  Uiso   1.00
C84    C     0.36168   0.38835   0.75001   0.00000  Uiso   1.00
C85    C     0.13832   0.11165   0.24999   0.00000  Uiso   1.00
C86    C     0.38833   0.13834   0.75000   0.00000  Uiso   1.00
C87    C    -0.00000   0.24998   0.64385   0.00000  Uiso   1.00
C88    C     0.11167   0.36166   0.25000   0.00000  Uiso   1.00
C89    C     0.46589   0.26806   0.41939   0.00000  Uiso   1.00
C90    C     0.03629   0.26310   0.58017   0.00000  Uiso   1.00
C91    C     0.21698   0.02060   0.41836   0.00000  Uiso   1.00
C92    C     0.28167   0.47961   0.58121   0.00000  Uiso   1.00
C93    C     0.03411   0.23169   0.41939   0.00000  Uiso   1.00
C94    C     0.46373   0.23660   0.58022   0.00000  Uiso   1.00
C95    C     0.28183   0.47857   0.41892   0.00000  Uiso   1.00
C96    C     0.21745   0.02271   0.58122   0.00000  Uiso   1.00
C97    C     0.28430   0.01783   0.91941   0.00000  Uiso   1.00
C98    C     0.00000   0.24998   0.85596   0.00000  Uiso   1.00
C99    C     0.21385   0.01362   0.08021   0.00000  Uiso   1.00
C100   C     0.47099   0.22442   0.91889   0.00000  Uiso   1.00
C101   C     0.02900   0.27557   0.08110   0.00000  Uiso   1.00
C102   C     0.21572   0.48216   0.91943   0.00000  Uiso   1.00
C103   C     0.28614   0.48637   0.08024   0.00000  Uiso   1.00
C104   C     0.02906   0.27549   0.91884   0.00000  Uiso   1.00
C105   C     0.47095   0.22452   0.08114   0.00000  Uiso   1.00
C106   C     0.00001   0.24992   0.39865   0.00000  Uiso   1.00
C107   C     0.00000   0.24990   0.60111   0.00000  Uiso   1.00
C108   C     0.24971   0.49980   0.39831   0.00000  Uiso   1.00
C109   C    -0.00000   0.25002   0.14404   0.00000  Uiso   1.00
C110   C     0.24938   0.00074   0.60157   0.00000  Uiso   1.00
C111   C     0.25001   0.49999   0.89867   0.00000  Uiso   1.00
C112   C     0.25000   0.49999   0.10112   0.00000  Uiso   1.00
C113   C     0.00002   0.24995   0.89843   0.00000  Uiso   1.00
C114   C     0.49998   0.25005   0.10156   0.00000  Uiso   1.00
C115   C     0.03766   0.24135   0.45926   0.00000  Uiso   1.00
C116   C     0.46159   0.24699   0.54042   0.00000  Uiso   1.00
C117   C     0.27621   0.47231   0.45927   0.00000  Uiso   1.00
C118   C     0.22208   0.02835   0.54063   0.00000  Uiso   1.00
C119   C     0.46234   0.25827   0.45925   0.00000  Uiso   1.00
C120   C     0.25000  -0.00000   0.85607   0.00000  Uiso   1.00
C121   C     0.03842   0.25260   0.54041   0.00000  Uiso   1.00
C122   C     0.22201   0.02735   0.45870   0.00000  Uiso   1.00
C123   C     0.27624   0.47305   0.54093   0.00000  Uiso   1.00
C124   C     0.21226   0.49194   0.95928   0.00000  Uiso   1.00
C125   C     0.28839   0.49677   0.04044   0.00000  Uiso   1.00
C126   C     0.02269   0.28124   0.95913   0.00000  Uiso   1.00
C127   C     0.47732   0.21877   0.04086   0.00000  Uiso   1.00
C128   C     0.28774   0.00804   0.95928   0.00000  Uiso   1.00
C129   C     0.21161   0.00321   0.04043   0.00000  Uiso   1.00
C130   C     0.47734   0.21871   0.95919   0.00000  Uiso   1.00
C131   C     0.25000  -0.00000   0.14385   0.00000  Uiso   1.00
C132   C     0.02265   0.28128   0.04080   0.00000  Uiso   1.00
C133   C    -0.00000   0.24980   0.47956   0.00000  Uiso   1.00
C134   C     0.00000   0.24979   0.52008   0.00000  Uiso   1.00
C135   C     0.24919   0.00016   0.47946   0.00000  Uiso   1.00
C136   C     0.24929   0.00068   0.52035   0.00000  Uiso   1.00
C137   C     0.25000   0.49999   0.97958   0.00000  Uiso   1.00
C138   C     0.25000   0.49999   0.02011   0.00000  Uiso   1.00
C139   C     0.00001   0.24999   0.97958   0.00000  Uiso   1.00
C140   C     0.49999   0.25001   0.02040   0.00000  Uiso   1.00
C141   C     0.07652   0.24156   0.47963   0.00000  Uiso   1.00
C142   C     0.16998   0.08000   0.24999   0.00000  Uiso   1.00
C143   C     0.42317   0.25306   0.52017   0.00000  Uiso   1.00
C144   C     0.29504   0.43866   0.47996   0.00000  Uiso   1.00
C145   C     0.20107   0.06060   0.51960   0.00000  Uiso   1.00
C146   C     0.42348   0.25800   0.47961   0.00000  Uiso   1.00
C147   C     0.07683   0.24648   0.52018   0.00000  Uiso   1.00
C148   C     0.20192   0.06057   0.47879   0.00000  Uiso   1.00
C149   C     0.29500   0.43900   0.52076   0.00000  Uiso   1.00
C150   C     0.17340   0.49261   0.97962   0.00000  Uiso   1.00
C151   C     0.32686   0.00243   0.02020   0.00000  Uiso   1.00
C152   C     0.03679   0.31731   0.97952   0.00000  Uiso   1.00
H153   H     0.48151   0.33040   0.35932   0.00000  Uiso   1.00
H154   H     0.09129   0.30432   0.57528   0.00000  Uiso   1.00
H155   H     0.17039   0.47678   0.35830   0.00000  Uiso   1.00
H156   H     0.15035   0.46765   0.40664   0.00000  Uiso   1.00
H157   H     0.12121   0.49943   0.37263   0.00000  Uiso   1.00
H158   H     0.15227   0.04539   0.41750   0.00000  Uiso   1.00
H159   H     0.18089   0.05317   0.37352   0.00000  Uiso   1.00
H160   H     0.34943   0.03116   0.59286   0.00000  Uiso   1.00
H161   H     0.32936   0.02207   0.64119   0.00000  Uiso   1.00
H162   H     0.37807   0.49858   0.62658   0.00000  Uiso   1.00
H163   H     0.31751   0.44593   0.62552   0.00000  Uiso   1.00
H164   H     0.44143   0.36497   0.37713   0.00000  Uiso   1.00
H165   H     0.34582   0.45360   0.58136   0.00000  Uiso   1.00
H166   H     0.01845   0.16955   0.35925   0.00000  Uiso   1.00
H167   H     0.05852   0.13490   0.37702   0.00000  Uiso   1.00
H168   H     0.01479   0.14862   0.40788   0.00000  Uiso   1.00
H169   H     0.08281   0.21127   0.37847   0.00000  Uiso   1.00
H170   H     0.08320   0.18343   0.42323   0.00000  Uiso   1.00
H171   H     0.47194   0.17170   0.63856   0.00000  Uiso   1.00
H172   H     0.42690   0.14319   0.62158   0.00000  Uiso   1.00
H173   H     0.47130   0.15108   0.58980   0.00000  Uiso   1.00
H174   H     0.41250   0.22173   0.62067   0.00000  Uiso   1.00
H175   H     0.48517   0.35117   0.40797   0.00000  Uiso   1.00
H176   H     0.40876   0.19531   0.57550   0.00000  Uiso   1.00
H177   H     0.33014   0.02096   0.35930   0.00000  Uiso   1.00
H178   H     0.35015   0.02958   0.40772   0.00000  Uiso   1.00
H179   H     0.37858   0.49694   0.37396   0.00000  Uiso   1.00
H180   H     0.34581   0.45203   0.41898   0.00000  Uiso   1.00
H181   H     0.31760   0.44481   0.37471   0.00000  Uiso   1.00
H182   H     0.14498   0.08774   0.62300   0.00000  Uiso   1.00
H183   H     0.17533   0.05985   0.65806   0.00000  Uiso   1.00
H184   H     0.20178   0.09095   0.62144   0.00000  Uiso   1.00
H185   H     0.14975   0.03420   0.57879   0.00000  Uiso   1.00
H186   H     0.41718   0.28859   0.37848   0.00000  Uiso   1.00
H187   H     0.16584   0.00289   0.61797   0.00000  Uiso   1.00
H188   H     0.30967   0.11447   0.87709   0.00000  Uiso   1.00
H189   H     0.26924   0.08028   0.85933   0.00000  Uiso   1.00
H190   H     0.26582   0.10114   0.90796   0.00000  Uiso   1.00
H191   H     0.33385   0.06558   0.92330   0.00000  Uiso   1.00
H192   H     0.33323   0.03789   0.87853   0.00000  Uiso   1.00
H193   H     0.17786   0.10736   0.12139   0.00000  Uiso   1.00
H194   H     0.22259   0.07843   0.13850   0.00000  Uiso   1.00
H195   H     0.22223   0.09904   0.08969   0.00000  Uiso   1.00
H196   H     0.15926   0.05540   0.07543   0.00000  Uiso   1.00
H197   H     0.41677   0.31628   0.42327   0.00000  Uiso   1.00
H198   H     0.16277   0.02893   0.12064   0.00000  Uiso   1.00
H199   H     0.39744   0.26710   0.90627   0.00000  Uiso   1.00
H200   H     0.41823   0.25928   0.85801   0.00000  Uiso   1.00
H201   H     0.37285   0.23039   0.87350   0.00000  Uiso   1.00
H202   H     0.43943   0.18555   0.87542   0.00000  Uiso   1.00
H203   H     0.41053   0.19083   0.91948   0.00000  Uiso   1.00
H204   H     0.08178   0.24048   0.14176   0.00000  Uiso   1.00
H205   H     0.10260   0.23287   0.09349   0.00000  Uiso   1.00
H206   H     0.12716   0.26944   0.12639   0.00000  Uiso   1.00
H207   H     0.08945   0.30917   0.08050   0.00000  Uiso   1.00
H208   H     0.02813   0.32820   0.63822   0.00000  Uiso   1.00
H209   H     0.06063   0.31431   0.12461   0.00000  Uiso   1.00
H210   H     0.19037   0.38551   0.87725   0.00000  Uiso   1.00
H211   H     0.23080   0.41971   0.85947   0.00000  Uiso   1.00
H212   H     0.23420   0.39884   0.90813   0.00000  Uiso   1.00
H213   H     0.16617   0.43439   0.92339   0.00000  Uiso   1.00
H214   H     0.16679   0.46209   0.87857   0.00000  Uiso   1.00
H215   H     0.32212   0.39262   0.12159   0.00000  Uiso   1.00
H216   H     0.27740   0.42156   0.13865   0.00000  Uiso   1.00
H217   H     0.27774   0.40095   0.08988   0.00000  Uiso   1.00
H218   H     0.34072   0.44457   0.07554   0.00000  Uiso   1.00
H219   H     0.07319   0.35661   0.62113   0.00000  Uiso   1.00
H220   H     0.33723   0.47104   0.12071   0.00000  Uiso   1.00
H221   H     0.10258   0.23276   0.90631   0.00000  Uiso   1.00
H222   H     0.08178   0.24060   0.85804   0.00000  Uiso   1.00
H223   H     0.12718   0.26945   0.87348   0.00000  Uiso   1.00
H224   H     0.06065   0.31434   0.87533   0.00000  Uiso   1.00
H225   H     0.08954   0.30903   0.91940   0.00000  Uiso   1.00
H226   H     0.41821   0.25964   0.14174   0.00000  Uiso   1.00
H227   H     0.39738   0.26727   0.09345   0.00000  Uiso   1.00
H228   H     0.37280   0.23072   0.12641   0.00000  Uiso   1.00
H229   H     0.41048   0.19096   0.08057   0.00000  Uiso   1.00
H230   H     0.02879   0.34865   0.58936   0.00000  Uiso   1.00
H231   H     0.43929   0.18579   0.12470   0.00000  Uiso   1.00
H232   H     0.08753   0.27805   0.62056   0.00000  Uiso   1.00
N233   N     0.14827   0.24378   0.44268   0.00000  Uiso   1.00
N234   N     0.39741   0.01440   0.05751   0.00000  Uiso   1.00
N235   N     0.05199   0.38764   0.94291   0.00000  Uiso   1.00
N236   N     0.44836   0.11234   0.05716   0.00000  Uiso   1.00
N237   N     0.39831   0.00439   0.94267   0.00000  Uiso   1.00
N238   N     0.10258   0.48557   0.05749   0.00000  Uiso   1.00
N239   N     0.44808   0.11228   0.94323   0.00000  Uiso   1.00
N240   N     0.05157   0.38773   0.05684   0.00000  Uiso   1.00
N241   N     0.35275   0.26574   0.55747   0.00000  Uiso   1.00
N242   N     0.31892   0.37040   0.44403   0.00000  Uiso   1.00
N243   N     0.16849   0.12621   0.55379   0.00000  Uiso   1.00
N244   N     0.35175   0.25574   0.44263   0.00000  Uiso   1.00
N245   N     0.14723   0.23375   0.55755   0.00000  Uiso   1.00
N246   N     0.17670   0.12775   0.44174   0.00000  Uiso   1.00
N247   N     0.31858   0.37126   0.55776   0.00000  Uiso   1.00
N248   N     0.10170   0.49558   0.94263   0.00000  Uiso   1.00
O249   O     0.25000   0.00000   0.25000   0.00000  Uiso   1.00
O250   O     0.25000   0.46539   0.66251   0.00000  Uiso   1.00
O251   O     0.46539   0.25000   0.33749   0.00000  Uiso   1.00
O252   O     0.03462   0.25000   0.66251   0.00000  Uiso   1.00
O253   O     0.00000   0.21539   0.83749   0.00000  Uiso   1.00
O254   O     0.00000   0.28461   0.16251   0.00000  Uiso   1.00
O255   O     0.28462   0.00000   0.83749   0.00000  Uiso   1.00
O256   O     0.21539   0.00000   0.16251   0.00000  Uiso   1.00
O257   O     0.00000   0.28462   0.83749   0.00000  Uiso   1.00
O258   O     0.00000   0.21538   0.16251   0.00000  Uiso   1.00
O259   O     0.21539   0.00000   0.83749   0.00000  Uiso   1.00
O260   O     0.25000   0.00000   0.75000   0.00000  Uiso   1.00
O261   O     0.28462   0.00000   0.16251   0.00000  Uiso   1.00
O262   O     0.20127   0.08332   0.27298   0.00000  Uiso   1.00
O263   O     0.29874   0.41668   0.72702   0.00000  Uiso   1.00
O264   O     0.41668   0.20127   0.27298   0.00000  Uiso   1.00
O265   O     0.08332   0.29874   0.72702   0.00000  Uiso   1.00
O266   O     0.29874   0.41668   0.27298   0.00000  Uiso   1.00
O267   O     0.20127   0.08332   0.72702   0.00000  Uiso   1.00
O268   O     0.08332   0.29874   0.27298   0.00000  Uiso   1.00
O269   O     0.41668   0.20127   0.72702   0.00000  Uiso   1.00
O270   O     0.20127   0.41668   0.72702   0.00000  Uiso   1.00
O271   O     0.00000   0.25000   0.25000   0.00000  Uiso   1.00
O272   O     0.29874   0.08332   0.27298   0.00000  Uiso   1.00
O273   O     0.41668   0.29874   0.72702   0.00000  Uiso   1.00
O274   O     0.08332   0.20127   0.27298   0.00000  Uiso   1.00
O275   O     0.29874   0.08332   0.72702   0.00000  Uiso   1.00
O276   O     0.20127   0.41668   0.27298   0.00000  Uiso   1.00
O277   O     0.08332   0.20127   0.72702   0.00000  Uiso   1.00
O278   O     0.41668   0.29874   0.27298   0.00000  Uiso   1.00
O279   O     0.45127   0.33332   0.77298   0.00000  Uiso   1.00
O280   O     0.04874   0.16668   0.22702   0.00000  Uiso   1.00
O281   O     0.16668   0.45127   0.77298   0.00000  Uiso   1.00
O282   O     0.00000   0.25000   0.75000   0.00000  Uiso   1.00
O283   O     0.33332   0.04874   0.22702   0.00000  Uiso   1.00
O284   O     0.04874   0.16668   0.77298   0.00000  Uiso   1.00
O285   O     0.45127   0.33332   0.22702   0.00000  Uiso   1.00
O286   O     0.33332   0.04874   0.77298   0.00000  Uiso   1.00
O287   O     0.16668   0.45127   0.22702   0.00000  Uiso   1.00
O288   O     0.45127   0.16668   0.22702   0.00000  Uiso   1.00
O289   O     0.04874   0.33332   0.77298   0.00000  Uiso   1.00
O290   O     0.16668   0.04874   0.22702   0.00000  Uiso   1.00
O291   O     0.33332   0.45127   0.77298   0.00000  Uiso   1.00
O292   O     0.04874   0.33332   0.22702   0.00000  Uiso   1.00
O293   O     0.25000   0.46539   0.33749   0.00000  Uiso   1.00
O294   O     0.45127   0.16668   0.77298   0.00000  Uiso   1.00
O295   O     0.33332   0.45127   0.22702   0.00000  Uiso   1.00
O296   O     0.16668   0.04874   0.77298   0.00000  Uiso   1.00
O297   O     0.25000   0.03462   0.66251   0.00000  Uiso   1.00
O298   O     0.03462   0.25000   0.33749   0.00000  Uiso   1.00
O299   O     0.46539   0.25000   0.66251   0.00000  Uiso   1.00
O300   O     0.25000   0.03462   0.33749   0.00000  Uiso   1.00
Zn301  Zn    0.20053   0.00000   0.21730   0.00000  Uiso   1.00
Zn302  Zn    0.04948   0.25000   0.28270   0.00000  Uiso   1.00
Zn303  Zn    0.25000   0.45053   0.71730   0.00000  Uiso   1.00
Zn304  Zn    0.25000   0.04948   0.28270   0.00000  Uiso   1.00
Zn305  Zn    0.04948   0.25000   0.71730   0.00000  Uiso   1.00
Zn306  Zn    0.45053   0.25000   0.28270   0.00000  Uiso   1.00
Zn307  Zn    0.25000   0.04948   0.71730   0.00000  Uiso   1.00
Zn308  Zn    0.25000   0.45053   0.28270   0.00000  Uiso   1.00
Zn309  Zn    0.29948   0.00000   0.78270   0.00000  Uiso   1.00
Zn310  Zn    0.00000   0.20052   0.21730   0.00000  Uiso   1.00
Zn311  Zn    0.00000   0.29948   0.78270   0.00000  Uiso   1.00
Zn312  Zn    0.29948   0.00000   0.21730   0.00000  Uiso   1.00
Zn313  Zn    0.20053   0.00000   0.78270   0.00000  Uiso   1.00
Zn314  Zn    0.00000   0.29947   0.21730   0.00000  Uiso   1.00
Zn315  Zn    0.00000   0.20053   0.78270   0.00000  Uiso   1.00
Zn316  Zn    0.45053   0.25000   0.71730   0.00000  Uiso   1.00
C317   C     0.75007   0.49996   0.35591   0.00000  Uiso   1.00
C318   C     0.83003   0.42000   0.75001   0.00000  Uiso   1.00
C319   C     0.96324   0.18269   0.02048   0.00000  Uiso   1.00
C320   C     0.82660   0.00737   0.97964   0.00000  Uiso   1.00
C321   C     0.67314   0.49755   0.02018   0.00000  Uiso   1.00
C322   C     0.96323   0.18267   0.97967   0.00000  Uiso   1.00
C323   C     0.53674   0.31733   0.02034   0.00000  Uiso   1.00
C324   C     0.93779   0.30199   0.40129   0.00000  Uiso   1.00
C325   C     0.96325   0.33916   0.38544   0.00000  Uiso   1.00
C326   C     0.56862   0.29346   0.59756   0.00000  Uiso   1.00
C327   C     0.54821   0.33399   0.61252   0.00000  Uiso   1.00
C328   C     0.67548   0.03082   0.39774   0.00000  Uiso   1.00
C329   C     0.91997   0.17000   0.25000   0.00000  Uiso   1.00
C330   C     0.65333   0.49115   0.38294   0.00000  Uiso   1.00
C331   C     0.82311   0.46843   0.60146   0.00000  Uiso   1.00
C332   C     0.84608   0.00756   0.61643   0.00000  Uiso   1.00
C333   C     0.56219   0.19781   0.40126   0.00000  Uiso   1.00
C334   C     0.53671   0.16070   0.38537   0.00000  Uiso   1.00
C335   C     0.93142   0.20627   0.59774   0.00000  Uiso   1.00
C336   C     0.95187   0.16581   0.61288   0.00000  Uiso   1.00
C337   C     0.82329   0.46715   0.39886   0.00000  Uiso   1.00
C338   C     0.84665   0.00614   0.38406   0.00000  Uiso   1.00
C339   C     0.67508   0.03106   0.60083   0.00000  Uiso   1.00
C340   C     0.58003   0.33000   0.74999   0.00000  Uiso   1.00
C341   C     0.67465   0.06977   0.62728   0.00000  Uiso   1.00
C342   C     0.81271   0.05148   0.90131   0.00000  Uiso   1.00
C343   C     0.78760   0.08888   0.88543   0.00000  Uiso   1.00
C344   C     0.68182   0.04423   0.09768   0.00000  Uiso   1.00
C345   C     0.70263   0.08451   0.11277   0.00000  Uiso   1.00
C346   C     0.93121   0.20785   0.89895   0.00000  Uiso   1.00
C347   C     0.90355   0.24348   0.88323   0.00000  Uiso   1.00
C348   C     0.56881   0.29209   0.10101   0.00000  Uiso   1.00
C349   C     0.59648   0.25640   0.11661   0.00000  Uiso   1.00
C350   C     0.68731   0.44850   0.90138   0.00000  Uiso   1.00
C351   C     0.83002   0.41998   0.24999   0.00000  Uiso   1.00
C352   C     0.71243   0.41110   0.88557   0.00000  Uiso   1.00
C353   C     0.81817   0.45575   0.09777   0.00000  Uiso   1.00
C354   C     0.79735   0.41548   0.11293   0.00000  Uiso   1.00
C355   C     0.56885   0.29203   0.89890   0.00000  Uiso   1.00
C356   C     0.59649   0.25639   0.88323   0.00000  Uiso   1.00
C357   C     0.93113   0.20803   0.10107   0.00000  Uiso   1.00
C358   C     0.90349   0.24374   0.11661   0.00000  Uiso   1.00
C359   C     0.61643   0.24275   0.45902   0.00000  Uiso   1.00
C360   C     0.88399   0.26006   0.54097   0.00000  Uiso   1.00
C361   C     0.80836   0.40069   0.45990   0.00000  Uiso   1.00
C362   C     0.66997   0.08001   0.74999   0.00000  Uiso   1.00
C363   C     0.68295   0.09687   0.53902   0.00000  Uiso   1.00
C364   C     0.88358   0.25679   0.45898   0.00000  Uiso   1.00
C365   C     0.61600   0.23945   0.54101   0.00000  Uiso   1.00
C366   C     0.68785   0.09794   0.45810   0.00000  Uiso   1.00
C367   C     0.80816   0.40132   0.54141   0.00000  Uiso   1.00
C368   C     0.63352   0.49422   0.95899   0.00000  Uiso   1.00
C369   C     0.86612   0.00904   0.04100   0.00000  Uiso   1.00
C370   C     0.54528   0.35643   0.95909   0.00000  Uiso   1.00
C371   C     0.95492   0.14356   0.04094   0.00000  Uiso   1.00
C372   C     0.86649   0.00575   0.95902   0.00000  Uiso   1.00
C373   C     0.58003   0.33001   0.25000   0.00000  Uiso   1.00
C374   C     0.63388   0.49094   0.04098   0.00000  Uiso   1.00
C375   C     0.95477   0.14352   0.95934   0.00000  Uiso   1.00
C376   C     0.54503   0.35649   0.04070   0.00000  Uiso   1.00
C377   C     0.91998   0.16999   0.75000   0.00000  Uiso   1.00
C378   C     0.66999   0.41998   0.75003   0.00000  Uiso   1.00
C379   C     0.83003   0.08000   0.24999   0.00000  Uiso   1.00
C380   C     0.91997   0.33000   0.74999   0.00000  Uiso   1.00
C381   C     0.74917   0.00010   0.64405   0.00000  Uiso   1.00
C382   C     0.58002   0.16999   0.25002   0.00000  Uiso   1.00
C383   C     0.83002   0.08002   0.75001   0.00000  Uiso   1.00
C384   C     0.66997   0.41999   0.25000   0.00000  Uiso   1.00
C385   C     0.58002   0.16998   0.74999   0.00000  Uiso   1.00
C386   C     0.91998   0.33002   0.25001   0.00000  Uiso   1.00
C387   C     0.63833   0.38834   0.24999   0.00000  Uiso   1.00
C388   C     0.86167   0.11167   0.75002   0.00000  Uiso   1.00
C389   C     0.61167   0.13834   0.25003   0.00000  Uiso   1.00
C390   C     0.88832   0.36165   0.74998   0.00000  Uiso   1.00
C391   C     0.86168   0.11165   0.24998   0.00000  Uiso   1.00
C392   C     0.50000   0.24999   0.35606   0.00000  Uiso   1.00
C393   C     0.63833   0.38833   0.75004   0.00000  Uiso   1.00
C394   C     0.88834   0.36167   0.25002   0.00000  Uiso   1.00
C395   C     0.61166   0.13833   0.74997   0.00000  Uiso   1.00
C396   C     0.63832   0.11165   0.74997   0.00000  Uiso   1.00
C397   C     0.86167   0.38834   0.25000   0.00000  Uiso   1.00
C398   C     0.61169   0.36164   0.75000   0.00000  Uiso   1.00
C399   C     0.88832   0.13835   0.25001   0.00000  Uiso   1.00
C400   C     0.86168   0.38835   0.75001   0.00000  Uiso   1.00
C401   C     0.63832   0.11165   0.24999   0.00000  Uiso   1.00
C402   C     0.88833   0.13834   0.75000   0.00000  Uiso   1.00
C403   C     0.50000   0.24998   0.64385   0.00000  Uiso   1.00
C404   C     0.61167   0.36166   0.25000   0.00000  Uiso   1.00
C405   C     0.96589   0.26806   0.41939   0.00000  Uiso   1.00
C406   C     0.53629   0.26310   0.58017   0.00000  Uiso   1.00
C407   C     0.71698   0.02060   0.41836   0.00000  Uiso   1.00
C408   C     0.78167   0.47961   0.58121   0.00000  Uiso   1.00
C409   C     0.53411   0.23169   0.41939   0.00000  Uiso   1.00
C410   C     0.96373   0.23660   0.58022   0.00000  Uiso   1.00
C411   C     0.78183   0.47857   0.41892   0.00000  Uiso   1.00
C412   C     0.71745   0.02271   0.58122   0.00000  Uiso   1.00
C413   C     0.78430   0.01783   0.91941   0.00000  Uiso   1.00
C414   C     0.50000   0.24998   0.85596   0.00000  Uiso   1.00
C415   C     0.71385   0.01362   0.08021   0.00000  Uiso   1.00
C416   C     0.97099   0.22442   0.91889   0.00000  Uiso   1.00
C417   C     0.52900   0.27557   0.08110   0.00000  Uiso   1.00
C418   C     0.71572   0.48216   0.91943   0.00000  Uiso   1.00
C419   C     0.78614   0.48637   0.08024   0.00000  Uiso   1.00
C420   C     0.52906   0.27549   0.91884   0.00000  Uiso   1.00
C421   C     0.97095   0.22452   0.08114   0.00000  Uiso   1.00
C422   C     0.50001   0.24992   0.39865   0.00000  Uiso   1.00
C423   C     0.50000   0.24990   0.60111   0.00000  Uiso   1.00
C424   C     0.74971   0.49980   0.39831   0.00000  Uiso   1.00
C425   C     0.50000   0.25002   0.14404   0.00000  Uiso   1.00
C426   C     0.74938   0.00074   0.60157   0.00000  Uiso   1.00
C427   C     0.75001   0.49999   0.89867   0.00000  Uiso   1.00
C428   C     0.75000   0.49999   0.10112   0.00000  Uiso   1.00
C429   C     0.50002   0.24995   0.89843   0.00000  Uiso   1.00
C430   C     0.99998   0.25005   0.10156   0.00000  Uiso   1.00
C431   C     0.53766   0.24135   0.45926   0.00000  Uiso   1.00
C432   C     0.96159   0.24699   0.54042   0.00000  Uiso   1.00
C433   C     0.77621   0.47231   0.45927   0.00000  Uiso   1.00
C434   C     0.72208   0.02835   0.54063   0.00000  Uiso   1.00
C435   C     0.96234   0.25827   0.45925   0.00000  Uiso   1.00
C436   C     0.75000  -0.00000   0.85607   0.00000  Uiso   1.00
C437   C     0.53842   0.25260   0.54041   0.00000  Uiso   1.00
C438   C     0.72201   0.02735   0.45870   0.00000  Uiso   1.00
C439   C     0.77624   0.47305   0.54093   0.00000  Uiso   1.00
C440   C     0.71226   0.49194   0.95928   0.00000  Uiso   1.00
C441   C     0.78839   0.49677   0.04044   0.00000  Uiso   1.00
C442   C     0.52269   0.28124   0.95913   0.00000  Uiso   1.00
C443   C     0.97732   0.21877   0.04086   0.00000  Uiso   1.00
C444   C     0.78774   0.00804   0.95928   0.00000  Uiso   1.00
C445   C     0.71161   0.00321   0.04043   0.00000  Uiso   1.00
C446   C     0.97734   0.21871   0.95919   0.00000  Uiso   1.00
C447   C     0.75000  -0.00000   0.14385   0.00000  Uiso   1.00
C448   C     0.52265   0.28128   0.04080   0.00000  Uiso   1.00
C449   C     0.50000   0.24980   0.47956   0.00000  Uiso   1.00
C450   C     0.50000   0.24979   0.52008   0.00000  Uiso   1.00
C451   C     0.74919   0.00016   0.47946   0.00000  Uiso   1.00
C452   C     0.74929   0.00068   0.52035   0.00000  Uiso   1.00
C453   C     0.75000   0.49999   0.97958   0.00000  Uiso   1.00
C454   C     0.75000   0.49999   0.02011   0.00000  Uiso   1.00
C455   C     0.50001   0.24999   0.97958   0.00000  Uiso   1.00
C456   C     0.99999   0.25001   0.02040   0.00000  Uiso   1.00
C457   C     0.57652   0.24156   0.47963   0.00000  Uiso   1.00
C458   C     0.66998   0.08000   0.24999   0.00000  Uiso   1.00
C459   C     0.92317   0.25306   0.52017   0.00000  Uiso   1.00
C460   C     0.79504   0.43866   0.47996   0.00000  Uiso   1.00
C461   C     0.70107   0.06060   0.51960   0.00000  Uiso   1.00
C462   C     0.92348   0.25800   0.47961   0.00000  Uiso   1.00
C463   C     0.57683   0.24648   0.52018   0.00000  Uiso   1.00
C464   C     0.70192   0.06057   0.47879   0.00000  Uiso   1.00
C465   C     0.79500   0.43900   0.52076   0.00000  Uiso   1.00
C466   C     0.67340   0.49261   0.97962   0.00000  Uiso   1.00
C467   C     0.82686   0.00243   0.02020   0.00000  Uiso   1.00
C468   C     0.53679   0.31731   0.97952   0.00000  Uiso   1.00
H469   H     0.98151   0.33040   0.35932   0.00000  Uiso   1.00
H470   H     0.59129   0.30432   0.57528   0.00000  Uiso   1.00
H471   H     0.67039   0.47678   0.35830   0.00000  Uiso   1.00
H472   H     0.65035   0.46765   0.40664   0.00000  Uiso   1.00
H473   H     0.62121   0.49943   0.37263   0.00000  Uiso   1.00
H474   H     0.65227   0.04539   0.41750   0.00000  Uiso   1.00
H475   H     0.68089   0.05317   0.37352   0.00000  Uiso   1.00
H476   H     0.84943   0.03116   0.59286   0.00000  Uiso   1.00
H477   H     0.82936   0.02207   0.64119   0.00000  Uiso   1.00
H478   H     0.87807   0.49858   0.62658   0.00000  Uiso   1.00
H479   H     0.81751   0.44593   0.62552   0.00000  Uiso   1.00
H480   H     0.94143   0.36497   0.37713   0.00000  Uiso   1.00
H481   H     0.84582   0.45360   0.58136   0.00000  Uiso   1.00
H482   H     0.51845   0.16955   0.35925   0.00000  Uiso   1.00
H483   H     0.55852   0.13490   0.37702   0.00000  Uiso   1.00
H484   H     0.51479   0.14862   0.40788   0.00000  Uiso   1.00
H485   H     0.58281   0.21127   0.37847   0.00000  Uiso   1.00
H486   H     0.58320   0.18343   0.42323   0.00000  Uiso   1.00
H487   H     0.97194   0.17170   0.63856   0.00000  Uiso   1.00
H488   H     0.92690   0.14319   0.62158   0.00000  Uiso   1.00
H489   H     0.97130   0.15108   0.58980   0.00000  Uiso   1.00
H490   H     0.91250   0.22173   0.62067   0.00000  Uiso   1.00
H491   H     0.98517   0.35117   0.40797   0.00000  Uiso   1.00
H492   H     0.90876   0.19531   0.57550   0.00000  Uiso   1.00
H493   H     0.83014   0.02096   0.35930   0.00000  Uiso   1.00
H494   H     0.85015   0.02958   0.40772   0.00000  Uiso   1.00
H495   H     0.87858   0.49694   0.37396   0.00000  Uiso   1.00
H496   H     0.84581   0.45203   0.41898   0.00000  Uiso   1.00
H497   H     0.81760   0.44481   0.37471   0.00000  Uiso   1.00
H498   H     0.64498   0.08774   0.62300   0.00000  Uiso   1.00
H499   H     0.67533   0.05985   0.65806   0.00000  Uiso   1.00
H500   H     0.70178   0.09095   0.62144   0.00000  Uiso   1.00
H501   H     0.64975   0.03420   0.57879   0.00000  Uiso   1.00
H502   H     0.91718   0.28859   0.37848   0.00000  Uiso   1.00
H503   H     0.66584   0.00289   0.61797   0.00000  Uiso   1.00
H504   H     0.80967   0.11447   0.87709   0.00000  Uiso   1.00
H505   H     0.76924   0.08028   0.85933   0.00000  Uiso   1.00
H506   H     0.76582   0.10114   0.90796   0.00000  Uiso   1.00
H507   H     0.83385   0.06558   0.92330   0.00000  Uiso   1.00
H508   H     0.83323   0.03789   0.87853   0.00000  Uiso   1.00
H509   H     0.67786   0.10736   0.12139   0.00000  Uiso   1.00
H510   H     0.72259   0.07843   0.13850   0.00000  Uiso   1.00
H511   H     0.72223   0.09904   0.08969   0.00000  Uiso   1.00
H512   H     0.65926   0.05540   0.07543   0.00000  Uiso   1.00
H513   H     0.91677   0.31628   0.42327   0.00000  Uiso   1.00
H514   H     0.66277   0.02893   0.12064   0.00000  Uiso   1.00
H515   H     0.89744   0.26710   0.90627   0.00000  Uiso   1.00
H516   H     0.91823   0.25928   0.85801   0.00000  Uiso   1.00
H517   H     0.87285   0.23039   0.87350   0.00000  Uiso   1.00
H518   H     0.93943   0.18555   0.87542   0.00000  Uiso   1.00
H519   H     0.91053   0.19083   0.91948   0.00000  Uiso   1.00
H520   H     0.58178   0.24048   0.14176   0.00000  Uiso   1.00
H521   H     0.60260   0.23287   0.09349   0.00000  Uiso   1.00
H522   H     0.62716   0.26944   0.12639   0.00000  Uiso   1.00
H523   H     0.58945   0.30917   0.08050   0.00000  Uiso   1.00
H524   H     0.52813   0.32820   0.63822   0.00000  Uiso   1.00
H525   H     0.56063   0.31431   0.12461   0.00000  Uiso   1.00
H526   H     0.69037   0.38551   0.87725   0.00000  Uiso   1.00
H527   H     0.73080   0.41971   0.85947   0.00000  Uiso   1.00
H528   H     0.73420   0.39884   0.90813   0.00000  Uiso   1.00
H529   H     0.66617   0.43439   0.92339   0.00000  Uiso   1.00
H530   H     0.66679   0.46209   0.87857   0.00000  Uiso   1.00
H531   H     0.82212   0.39262   0.12159   0.00000  Uiso   1.00
H532   H     0.77740   0.42156   0.13865   0.00000  Uiso   1.00
H533   H     0.77774   0.40095   0.08988   0.00000  Uiso   1.00
H534   H     0.84072   0.44457   0.07554   0.00000  Uiso   1.00
H535   H     0.57319   0.35661   0.62113   0.00000  Uiso   1.00
H536   H     0.83723   0.47104   0.12071   0.00000  Uiso   1.00
H537   H     0.60258   0.23276   0.90631   0.00000  Uiso   1.00
H538   H     0.58178   0.24060   0.85804   0.00000  Uiso   1.00
H539   H     0.62718   0.26945   0.87348   0.00000  Uiso   1.00
H540   H     0.56065   0.31434   0.87533   0.00000  Uiso   1.00
H541   H     0.58954   0.30903   0.91940   0.00000  Uiso   1.00
H542   H     0.91821   0.25964   0.14174   0.00000  Uiso   1.00
H543   H     0.89738   0.26727   0.09345   0.00000  Uiso   1.00
H544   H     0.87280   0.23072   0.12641   0.00000  Uiso   1.00
H545   H     0.91048   0.19096   0.08057   0.00000  Uiso   1.00
H546   H     0.52879   0.34865   0.58936   0.00000  Uiso   1.00
H547   H     0.93929   0.18579   0.12470   0.00000  Uiso   1.00
H548   H     0.58753   0.27805   0.62056   0.00000  Uiso   1.00
N549   N     0.64827   0.24378   0.44268   0.00000  Uiso   1.00
N550   N     0.89741   0.01440   0.05751   0.00000  Uiso   1.00
N551   N     0.55199   0.38764   0.94291   0.00000  Uiso   1.00
N552   N     0.94836   0.11234   0.05716   0.00000  Uiso   1.00
N553   N     0.89831   0.00439   0.94267   0.00000  Uiso   1.00
N554   N     0.60258   0.48557   0.05749   0.00000  Uiso   1.00
N555   N     0.94808   0.11228   0.94323   0.00000  Uiso   1.00
N556   N     0.55157   0.38773   0.05684   0.00000  Uiso   1.00
N557   N     0.85275   0.26574   0.55747   0.00000  Uiso   1.00
N558   N     0.81892   0.37040   0.44403   0.00000  Uiso   1.00
N559   N     0.66849   0.12621   0.55379   0.00000  Uiso   1.00
N560   N     0.85175   0.25574   0.44263   0.00000  Uiso   1.00
N561   N     0.64723   0.23375   0.55755   0.00000  Uiso   1.00
N562   N     0.67670   0.12775   0.44174   0.00000  Uiso   1.00
N563   N     0.81858   0.37126   0.55776   0.00000  Uiso   1.00
N564   N     0.60170   0.49558   0.94263   0.00000  Uiso   1.00
O565   O     0.75000   0.00000   0.25000   0.00000  Uiso   1.00
O566   O     0.75000   0.46539   0.66251   0.00000  Uiso   1.00
O567   O     0.96539   0.25000   0.33749   0.00000  Uiso   1.00
O568   O     0.53462   0.25000   0.66251   0.00000  Uiso   1.00
O569   O     0.50000   0.21539   0.83749   0.00000  Uiso   1.00
O570   O     0.50000   0.28461   0.16251   0.00000  Uiso   1.00
O571   O     0.78462   0.00000   0.83749   0.00000  Uiso   1.00
O572   O     0.71539   0.00000   0.16251   0.00000  Uiso   1.00
O573   O     0.50000   0.28462   0.83749   0.00000  Uiso   1.00
O574   O     0.50000   0.21538   0.16251   0.00000  Uiso   1.00
O575   O     0.71539   0.00000   0.83749   0.00000  Uiso   1.00
O576   O     0.75000   0.00000   0.75000   0.00000  Uiso   1.00
O577   O     0.78462   0.00000   0.16251   0.00000  Uiso   1.00
O578   O     0.70127   0.08332   0.27298   0.00000  Uiso   1.00
O579   O     0.79874   0.41668   0.72702   0.00000  Uiso   1.00
O580   O     0.91668   0.20127   0.27298   0.00000  Uiso   1.00
O581   O     0.58332   0.29874   0.72702   0.00000  Uiso   1.00
O582   O     0.79874   0.41668   0.27298   0.00000  Uiso   1.00
O583   O     0.70127   0.08332   0.72702   0.00000  Uiso   1.00
O584   O     0.58332   0.29874   0.27298   0.00000  Uiso   1.00
O585   O     0.91668   0.20127   0.72702   0.00000  Uiso   1.00
O586   O     0.70127   0.41668   0.72702   0.00000  Uiso   1.00
O587   O     0.50000   0.25000   0.25000   0.00000  Uiso   1.00
O588   O     0.79874   0.08332   0.27298   0.00000  Uiso   1.00
O589   O     0.91668   0.29874   0.72702   0.00000  Uiso   1.00
O590   O     0.58332   0.20127   0.27298   0.00000  Uiso   1.00
O591   O     0.79874   0.08332   0.72702   0.00000  Uiso   1.00
O592   O     0.70127   0.41668   0.27298   0.00000  Uiso   1.00
O593   O     0.58332   0.20127   0.72702   0.00000  Uiso   1.00
O594   O     0.91668   0.29874   0.27298   0.00000  Uiso   1.00
O595   O     0.95127   0.33332   0.77298   0.00000  Uiso   1.00
O596   O     0.54874   0.16668   0.22702   0.00000  Uiso   1.00
O597   O     0.66668   0.45127   0.77298   0.00000  Uiso   1.00
O598   O     0.50000   0.25000   0.75000   0.00000  Uiso   1.00
O599   O     0.83332   0.04874   0.22702   0.00000  Uiso   1.00
O600   O     0.54874   0.16668   0.77298   0.00000  Uiso   1.00
O601   O     0.95127   0.33332   0.22702   0.00000  Uiso   1.00
O602   O     0.83332   0.04874   0.77298   0.00000  Uiso   1.00
O603   O     0.66668   0.45127   0.22702   0.00000  Uiso   1.00
O604   O     0.95127   0.16668   0.22702   0.00000  Uiso   1.00
O605   O     0.54874   0.33332   0.77298   0.00000  Uiso   1.00
O606   O     0.66668   0.04874   0.22702   0.00000  Uiso   1.00
O607   O     0.83332   0.45127   0.77298   0.00000  Uiso   1.00
O608   O     0.54874   0.33332   0.22702   0.00000  Uiso   1.00
O609   O     0.75000   0.46539   0.33749   0.00000  Uiso   1.00
O610   O     0.95127   0.16668   0.77298   0.00000  Uiso   1.00
O611   O     0.83332   0.45127   0.22702   0.00000  Uiso   1.00
O612   O     0.66668   0.04874   0.77298   0.00000  Uiso   1.00
O613   O     0.75000   0.03462   0.66251   0.00000  Uiso   1.00
O614   O     0.53462   0.25000   0.33749   0.00000  Uiso   1.00
O615   O     0.96539   0.25000   0.66251   0.00000  Uiso   1.00
O616   O     0.75000   0.03462   0.33749   0.00000  Uiso   1.00
Zn617  Zn    0.70053   0.00000   0.21730   0.00000  Uiso   1.00
Zn618  Zn    0.54948   0.25000   0.28270   0.00000  Uiso   1.00
Zn619  Zn    0.75000   0.45053   0.71730   0.00000  Uiso   1.00
Zn620  Zn    0.75000   0.04948   0.28270   0.00000  Uiso   1.00
Zn621  Zn    0.54948   0.25000   0.71730   0.00000  Uiso   1.00
Zn622  Zn    0.95053   0.25000   0.28270   0.00000  Uiso   1.00
Zn623  Zn    0.75000   0.04948   0.71730   0.00000  Uiso   1.00
Zn624  Zn    0.75000   0.45053   0.28270   0.00000  Uiso   1.00
Zn625  Zn    0.79948   0.00000   0.78270   0.00000  Uiso   1.00
Zn626  Zn    0.50000   0.20052   0.21730   0.00000  Uiso   1.00
Zn627  Zn    0.50000   0.29948   0.78270   0.00000  Uiso   1.00
Zn628  Zn    0.79948   0.00000   0.21730   0.00000  Uiso   1.00
Zn629  Zn    0.70053   0.00000   0.78270   0.00000  Uiso   1.00
Zn630  Zn    0.50000   0.29947   0.21730   0.00000  Uiso   1.00
Zn631  Zn    0.50000   0.20053   0.78270   0.00000  Uiso   1.00
Zn632  Zn    0.95053   0.25000   0.71730   0.00000  Uiso   1.00
C633   C     0.25007   0.99996   0.35591   0.00000  Uiso   1.00
C634   C     0.33003   0.92000   0.75001   0.00000  Uiso   1.00
C635   C     0.46324   0.68269   0.02048   0.00000  Uiso   1.00
C636   C     0.32660   0.50737   0.97964   0.00000  Uiso   1.00
C637   C     0.17314   0.99755   0.02018   0.00000  Uiso   1.00
C638   C     0.46323   0.68267   0.97967   0.00000  Uiso   1.00
C639   C     0.03674   0.81733   0.02034   0.00000  Uiso   1.00
C640   C     0.43779   0.80199   0.40129   0.00000  Uiso   1.00
C641   C     0.46325   0.83916   0.38544   0.00000  Uiso   1.00
C642   C     0.06862   0.79346   0.59756   0.00000  Uiso   1.00
C643   C     0.04821   0.83399   0.61252   0.00000  Uiso   1.00
C644   C     0.17548   0.53082   0.39774   0.00000  Uiso   1.00
C645   C     0.41997   0.67000   0.25000   0.00000  Uiso   1.00
C646   C     0.15333   0.99115   0.38294   0.00000  Uiso   1.00
C647   C     0.32311   0.96843   0.60146   0.00000  Uiso   1.00
C648   C     0.34608   0.50756   0.61643   0.00000  Uiso   1.00
C649   C     0.06219   0.69781   0.40126   0.00000  Uiso   1.00
C650   C     0.03671   0.66070   0.38537   0.00000  Uiso   1.00
C651   C     0.43142   0.70627   0.59774   0.00000  Uiso   1.00
C652   C     0.45187   0.66581   0.61288   0.00000  Uiso   1.00
C653   C     0.32329   0.96715   0.39886   0.00000  Uiso   1.00
C654   C     0.34665   0.50614   0.38406   0.00000  Uiso   1.00
C655   C     0.17508   0.53106   0.60083   0.00000  Uiso   1.00
C656   C     0.08003   0.83000   0.74999   0.00000  Uiso   1.00
C657   C     0.17465   0.56977   0.62728   0.00000  Uiso   1.00
C658   C     0.31271   0.55148   0.90131   0.00000  Uiso   1.00
C659   C     0.28760   0.58888   0.88543   0.00000  Uiso   1.00
C660   C     0.18182   0.54423   0.09768   0.00000  Uiso   1.00
C661   C     0.20263   0.58451   0.11277   0.00000  Uiso   1.00
C662   C     0.43121   0.70785   0.89895   0.00000  Uiso   1.00
C663   C     0.40355   0.74348   0.88323   0.00000  Uiso   1.00
C664   C     0.06881   0.79209   0.10101   0.00000  Uiso   1.00
C665   C     0.09648   0.75640   0.11661   0.00000  Uiso   1.00
C666   C     0.18731   0.94850   0.90138   0.00000  Uiso   1.00
C667   C     0.33002   0.91998   0.24999   0.00000  Uiso   1.00
C668   C     0.21243   0.91110   0.88557   0.00000  Uiso   1.00
C669   C     0.31817   0.95575   0.09777   0.00000  Uiso   1.00
C670   C     0.29735   0.91548   0.11293   0.00000  Uiso   1.00
C671   C     0.06885   0.79203   0.89890   0.00000  Uiso   1.00
C672   C     0.09649   0.75639   0.88323   0.00000  Uiso   1.00
C673   C     0.43113   0.70803   0.10107   0.00000  Uiso   1.00
C674   C     0.40349   0.74374   0.11661   0.00000  Uiso   1.00
C675   C     0.11643   0.74275   0.45902   0.00000  Uiso   1.00
C676   C     0.38399   0.76006   0.54097   0.00000  Uiso   1.00
C677   C     0.30836   0.90069   0.45990   0.00000  Uiso   1.00
C678   C     0.16997   0.58001   0.74999   0.00000  Uiso   1.00
C679   C     0.18295   0.59687   0.53902   0.00000  Uiso   1.00
C680   C     0.38358   0.75679   0.45898   0.00000  Uiso   1.00
C681   C     0.11600   0.73945   0.54101   0.00000  Uiso   1.00
C682   C     0.18785   0.59794   0.45810   0.00000  Uiso   1.00
C683   C     0.30816   0.90132   0.54141   0.00000  Uiso   1.00
C684   C     0.13352   0.99422   0.95899   0.00000  Uiso   1.00
C685   C     0.36612   0.50904   0.04100   0.00000  Uiso   1.00
C686   C     0.04528   0.85643   0.95909   0.00000  Uiso   1.00
C687   C     0.45492   0.64356   0.04094   0.00000  Uiso   1.00
C688   C     0.36649   0.50575   0.95902   0.00000  Uiso   1.00
C689   C     0.08003   0.83001   0.25000   0.00000  Uiso   1.00
C690   C     0.13388   0.99094   0.04098   0.00000  Uiso   1.00
C691   C     0.45477   0.64352   0.95934   0.00000  Uiso   1.00
C692   C     0.04503   0.85649   0.04070   0.00000  Uiso   1.00
C693   C     0.41998   0.66999   0.75000   0.00000  Uiso   1.00
C694   C     0.16999   0.91998   0.75003   0.00000  Uiso   1.00
C695   C     0.33003   0.58000   0.24999   0.00000  Uiso   1.00
C696   C     0.41997   0.83000   0.74999   0.00000  Uiso   1.00
C697   C     0.24917   0.50010   0.64405   0.00000  Uiso   1.00
C698   C     0.08002   0.66999   0.25002   0.00000  Uiso   1.00
C699   C     0.33002   0.58002   0.75001   0.00000  Uiso   1.00
C700   C     0.16997   0.91999   0.25000   0.00000  Uiso   1.00
C701   C     0.08002   0.66998   0.74999   0.00000  Uiso   1.00
C702   C     0.41998   0.83002   0.25001   0.00000  Uiso   1.00
C703   C     0.13833   0.88834   0.24999   0.00000  Uiso   1.00
C704   C     0.36167   0.61167   0.75002   0.00000  Uiso   1.00
C705   C     0.11167   0.63834   0.25003   0.00000  Uiso   1.00
C706   C     0.38832   0.86165   0.74998   0.00000  Uiso   1.00
C707   C     0.36168   0.61165   0.24998   0.00000  Uiso   1.00
C708   C     0.00000   0.74999   0.35606   0.00000  Uiso   1.00
C709   C     0.13833   0.88833   0.75004   0.00000  Uiso   1.00
C710   C     0.38834   0.86167   0.25002   0.00000  Uiso   1.00
C711   C     0.11166   0.63833   0.74997   0.00000  Uiso   1.00
C712   C     0.13832   0.61165   0.74997   0.00000  Uiso   1.00
C713   C     0.36167   0.88834   0.25000   0.00000  Uiso   1.00
C714   C     0.11169   0.86164   0.75000   0.00000  Uiso   1.00
C715   C     0.38832   0.63835   0.25001   0.00000  Uiso   1.00
C716   C     0.36168   0.88835   0.75001   0.00000  Uiso   1.00
C717   C     0.13832   0.61165   0.24999   0.00000  Uiso   1.00
C718   C     0.38833   0.63834   0.75000   0.00000  Uiso   1.00
C719   C    -0.00000   0.74998   0.64385   0.00000  Uiso   1.00
C720   C     0.11167   0.86166   0.25000   0.00000  Uiso   1.00
C721   C     0.46589   0.76806   0.41939   0.00000  Uiso   1.00
C722   C     0.03629   0.76310   0.58017   0.00000  Uiso   1.00
C723   C     0.21698   0.52060   0.41836   0.00000  Uiso   1.00
C724   C     0.28167   0.97961   0.58121   0.00000  Uiso   1.00
C725   C     0.03411   0.73169   0.41939   0.00000  Uiso   1.00
C726   C     0.46373   0.73660   0.58022   0.00000  Uiso   1.00
C727   C     0.28183   0.97857   0.41892   0.00000  Uiso   1.00
C728   C     0.21745   0.52271   0.58122   0.00000  Uiso   1.00
C729   C     0.28430   0.51783   0.91941   0.00000  Uiso   1.00
C730   C     0.00000   0.74998   0.85596   0.00000  Uiso   1.00
C731   C     0.21385   0.51362   0.08021   0.00000  Uiso   1.00
C732   C     0.47099   0.72442   0.91889   0.00000  Uiso   1.00
C733   C     0.02900   0.77557   0.08110   0.00000  Uiso   1.00
C734   C     0.21572   0.98216   0.91943   0.00000  Uiso   1.00
C735   C     0.28614   0.98637   0.08024   0.00000  Uiso   1.00
C736   C     0.02906   0.77549   0.91884   0.00000  Uiso   1.00
C737   C     0.47095   0.72452   0.08114   0.00000  Uiso   1.00
C738   C     0.00001   0.74992   0.39865   0.00000  Uiso   1.00
C739   C     0.00000   0.74990   0.60111   0.00000  Uiso   1.00
C740   C     0.24971   0.99980   0.39831   0.00000  Uiso   1.00
C741   C    -0.00000   0.75002   0.14404   0.00000  Uiso   1.00
C742   C     0.24938   0.50074   0.60157   0.00000  Uiso   1.00
C743   C     0.25001   0.99999   0.89867   0.00000  Uiso   1.00
C744   C     0.25000   0.99999   0.10112   0.00000  Uiso   1.00
C745   C     0.00002   0.74995   0.89843   0.00000  Uiso   1.00
C746   C     0.49998   0.75005   0.10156   0.00000  Uiso   1.00
C747   C     0.03766   0.74135   0.45926   0.00000  Uiso   1.00
C748   C     0.46159   0.74699   0.54042   0.00000  Uiso   1.00
C749   C     0.27621   0.97231   0.45927   0.00000  Uiso   1.00
C750   C     0.22208   0.52835   0.54063   0.00000  Uiso   1.00
C751   C     0.46234   0.75827   0.45925   0.00000  Uiso   1.00
C752   C     0.25000   0.50000   0.85607   0.00000  Uiso   1.00
C753   C     0.03842   0.75260   0.54041   0.00000  Uiso   1.00
C754   C     0.22201   0.52735   0.45870   0.00000  Uiso   1.00
C755   C     0.27624   0.97305   0.54093   0.00000  Uiso   1.00
C756   C     0.21226   0.99194   0.95928   0.00000  Uiso   1.00
C757   C     0.28839   0.99677   0.04044   0.00000  Uiso   1.00
C758   C     0.02269   0.78124   0.95913   0.00000  Uiso   1.00
C759   C     0.47732   0.71877   0.04086   0.00000  Uiso   1.00
C760   C     0.28774   0.50804   0.95928   0.00000  Uiso   1.00
C761   C     0.21161   0.50321   0.04043   0.00000  Uiso   1.00
C762   C     0.47734   0.71871   0.95919   0.00000  Uiso   1.00
C763   C     0.25000   0.50000   0.14385   0.00000  Uiso   1.00
C764   C     0.02265   0.78128   0.04080   0.00000  Uiso   1.00
C765   C    -0.00000   0.74980   0.47956   0.00000  Uiso   1.00
C766   C     0.00000   0.74979   0.52008   0.00000  Uiso   1.00
C767   C     0.24919   0.50016   0.47946   0.00000  Uiso   1.00
C768   C     0.24929   0.50068   0.52035   0.00000  Uiso   1.00
C769   C     0.25000   0.99999   0.97958   0.00000  Uiso   1.00
C770   C     0.25000   0.99999   0.02011   0.00000  Uiso   1.00
C771   C     0.00001   0.74999   0.97958   0.00000  Uiso   1.00
C772   C     0.49999   0.75001   0.02040   0.00000  Uiso   1.00
C773   C     0.07652   0.74156   0.47963   0.00000  Uiso   1.00
C774   C     0.16998   0.58000   0.24999   0.00000  Uiso   1.00
C775   C     0.42317   0.75306   0.52017   0.00000  Uiso   1.00
C776   C     0.29504   0.93866   0.47996   0.00000  Uiso   1.00
C777   C     0.20107   0.56060   0.51960   0.00000  Uiso   1.00
C778   C     0.42348   0.75800   0.47961   0.00000  Uiso   1.00
C779   C     0.07683   0.74648   0.52018   0.00000  Uiso   1.00
C780   C     0.20192   0.56057   0.47879   0.00000  Uiso   1.00
C781   C     0.29500   0.93900   0.52076   0.00000  Uiso   1.00
C782   C     0.17340   0.99261   0.97962   0.00000  Uiso   1.00
C783   C     0.32686   0.50243   0.02020   0.00000  Uiso   1.00
C784   C     0.03679   0.81731   0.97952   0.00000  Uiso   1.00
H785   H     0.48151   0.83040   0.35932   0.00000  Uiso   1.00
H786   H     0.09129   0.80432   0.57528   0.00000  Uiso   1.00
H787   H     0.17039   0.97678   0.35830   0.00000  Uiso   1.00
H788   H     0.15035   0.96765   0.40664   0.00000  Uiso   1.00
H789   H     0.12121   0.99943   0.37263   0.00000  Uiso   1.00
H790   H     0.15227   0.54539   0.41750   0.00000  Uiso   1.00
H791   H     0.18089   0.55317   0.37352   0.00000  Uiso   1.00
H792   H     0.34943   0.53116   0.59286   0.00000  Uiso   1.00
H793   H     0.32936   0.52207   0.64119   0.00000  Uiso   1.00
H794   H     0.37807   0.99858   0.62658   0.00000  Uiso   1.00
H795   H     0.31751   0.94593   0.62552   0.00000  Uiso   1.00
H796   H     0.44143   0.86497   0.37713   0.00000  Uiso   1.00
H797   H     0.34582   0.95360   0.58136   0.00000  Uiso   1.00
H798   H     0.01845   0.66955   0.35925   0.00000  Uiso   1.00
H799   H     0.05852   0.63490   0.37702   0.00000  Uiso   1.00
H800   H     0.01479   0.64862   0.40788   0.00000  Uiso   1.00
H801   H     0.08281   0.71127   0.37847   0.00000  Uiso   1.00
H802   H     0.08320   0.68343   0.42323   0.00000  Uiso   1.00
H803   H     0.47194   0.67170   0.63856   0.00000  Uiso   1.00
H804   H     0.42690   0.64319   0.62158   0.00000  Uiso   1.00
H805   H     0.47130   0.65108   0.58980   0.00000  Uiso   1.00
H806   H     0.41250   0.72173   0.62067   0.00000  Uiso   1.00
H807   H     0.48517   0.85117   0.40797   0.00000  Uiso   1.00
H808   H     0.40876   0.69531   0.57550   0.00000  Uiso   1.00
H809   H     0.33014   0.52096   0.35930   0.00000  Uiso   1.00
H810   H     0.35015   0.52958   0.40772   0.00000  Uiso   1.00
H811   H     0.37858   0.99694   0.37396   0.00000  Uiso   1.00
H812   H     0.34581   0.95203   0.41898   0.00000  Uiso   1.00
H813   H     0.31760   0.94481   0.37471   0.00000  Uiso   1.00
H814   H     0.14498   0.58774   0.62300   0.00000  Uiso   1.00
H815   H     0.17533   0.55985   0.65806   0.00000  Uiso   1.00
H816   H     0.20178   0.59095   0.62144   0.00000  Uiso   1.00
H817   H     0.14975   0.53420   0.57879   0.00000  Uiso   1.00
H818   H     0.41718   0.78859   0.37848   0.00000  Uiso   1.00
H819   H     0.16584   0.50289   0.61797   0.00000  Uiso   1.00
H820   H     0.30967   0.61447   0.87709   0.00000  Uiso   1.00
H821   H     0.26924   0.58028   0.85933   0.00000  Uiso   1.00
H822   H     0.26582   0.60114   0.90796   0.00000  Uiso   1.00
H823   H     0.33385   0.56558   0.92330   0.00000  Uiso   1.00
H824   H     0.33323   0.53789   0.87853   0.00000  Uiso   1.00
H825   H     0.17786   0.60736   0.12139   0.00000  Uiso   1.00
H826   H     0.22259   0.57843   0.13850   0.00000  Uiso   1.00
H827   H     0.22223   0.59904   0.08969   0.00000  Uiso   1.00
H828   H     0.15926   0.55540   0.07543   0.00000  Uiso   1.00
H829   H     0.41677   0.81628   0.42327   0.00000  Uiso   1.00
H830   H     0.16277   0.52893   0.12064   0.00000  Uiso   1.00
H831   H     0.39744   0.76710   0.90627   0.00000  Uiso   1.00
H832   H     0.41823   0.75928   0.85801   0.00000  Uiso   1.00
H833   H     0.37285   0.73039   0.87350   0.00000  Uiso   1.00
H834   H     0.43943   0.68555   0.87542   0.00000  Uiso   1.00
H835   H     0.41053   0.69083   0.91948   0.00000  Uiso   1.00
H836   H     0.08178   0.74048   0.14176   0.00000  Uiso   1.00
H837   H     0.10260   0.73287   0.09349   0.00000  Uiso   1.00
H838   H     0.12716   0.76944   0.12639   0.00000  Uiso   1.00
H839   H     0.08945   0.80917   0.08050   0.00000  Uiso   1.00
H840   H     0.02813   0.82820   0.63822   0.00000  Uiso   1.00
H841   H     0.06063   0.81431   0.12461   0.00000  Uiso   1.00
H842   H     0.19037   0.88551   0.87725   0.00000  Uiso   1.00
H843   H     0.23080   0.91971   0.85947   0.00000  Uiso   1.00
H844   H     0.23420   0.89884   0.90813   0.00000  Uiso   1.00
H845   H     0.16617   0.93439   0.92339   0.00000  Uiso   1.00
H846   H     0.16679   0.96209   0.87857   0.00000  Uiso   1.00
H847   H     0.32212   0.89262   0.12159   0.00000  Uiso   1.00
H848   H     0.27740   0.92156   0.13865   0.00000  Uiso   1.00
H849   H     0.27774   0.90095   0.08988   0.00000  Uiso   1.00
H850   H     0.34072   0.94457   0.07554   0.00000  Uiso   1.00
H851   H     0.07319   0.85661   0.62113   0.00000  Uiso   1.00
H852   H     0.33723   0.97104   0.12071   0.00000  Uiso   1.00
H853   H     0.10258   0.73276   0.90631   0.00000  Uiso   1.00
H854   H     0.08178   0.74060   0.85804   0.00000  Uiso   1.00
H855   H     0.12718   0.76945   0.87348   0.00000  Uiso   1.00
H856   H     0.06065   0.81434   0.87533   0.00000  Uiso   1.00
H857   H     0.08954   0.80903   0.91940   0.00000  Uiso   1.00
H858   H     0.41821   0.75964   0.14174   0.00000  Uiso   1.00
H859   H     0.39738   0.76727   0.09345   0.00000  Uiso   1.00
H860   H     0.37280   0.73072   0.12641   0.00000  Uiso   1.00
H861   H     0.41048   0.69096   0.08057   0.00000  Uiso   1.00
H862   H     0.02879   0.84865   0.58936   0.00000  Uiso   1.00
H863   H     0.43929   0.68579   0.12470   0.00000  Uiso   1.00
H864   H     0.08753   0.77805   0.62056   0.00000  Uiso   1.00
N865   N     0.14827   0.74378   0.44268   0.00000  Uiso   1.00
N866   N     0.39741   0.51440   0.05751   0.00000  Uiso   1.00
N867   N     0.05199   0.88764   0.94291   0.00000  Uiso   1.00
N868   N     0.44836   0.61234   0.05716   0.00000  Uiso   1.00
N869   N     0.39831   0.50439   0.94267   0.00000  Uiso   1.00
N870   N     0.10258   0.98557   0.05749   0.00000  Uiso   1.00
N871   N     0.44808   0.61228   0.94323   0.00000  Uiso   1.00
N872   N     0.05157   0.88773   0.05684   0.00000  Uiso   1.00
N873   N     0.35275   0.76574   0.55747   0.00000  Uiso   1.00
N874   N     0.31892   0.87040   0.44403   0.00000  Uiso   1.00
N875   N     0.16849   0.62621   0.55379   0.00000  Uiso   1.00
N876   N     0.35175   0.75574   0.44263   0.00000  Uiso   1.00
N877   N     0.14723   0.73375   0.55755   0.00000  Uiso   1.00
N878   N     0.17670   0.62775   0.44174   0.00000  Uiso   1.00
N879   N     0.31858   0.87126   0.55776   0.00000  Uiso   1.00
N880   N     0.10170   0.99558   0.94263   0.00000  Uiso   1.00
O881   O     0.25000   0.50000   0.25000   0.00000  Uiso   1.00
O882   O     0.25000   0.96539   0.66251   0.00000  Uiso   1.00
O883   O     0.46539   0.75000   0.33749   0.00000  Uiso   1.00
O884   O     0.03462   0.75000   0.66251   0.00000  Uiso   1.00
O885   O     0.00000   0.71539   0.83749   0.00000  Uiso   1.00
O886   O     0.00000   0.78461   0.16251   0.00000  Uiso   1.00
O887   O     0.28462   0.50000   0.83749   0.00000  Uiso   1.00
O888   O     0.21539   0.50000   0.16251   0.00000  Uiso   1.00
O889   O     0.00000   0.78462   0.83749   0.00000  Uiso   1.00
O890   O     0.00000   0.71538   0.16251   0.00000  Uiso   1.00
O891   O     0.21539   0.50000   0.83749   0.00000  Uiso   1.00
O892   O     0.25000   0.50000   0.75000   0.00000  Uiso   1.00
O893   O     0.28462   0.50000   0.16251   0.00000  Uiso   1.00
O894   O     0.20127   0.58332   0.27298   0.00000  Uiso   1.00
O895   O     0.29874   0.91668   0.72702   0.00000  Uiso   1.00
O896   O     0.41668   0.70127   0.27298   0.00000  Uiso   1.00
O897   O     0.08332   0.79874   0.72702   0.00000  Uiso   1.00
O898   O     0.29874   0.91668   0.27298   0.00000  Uiso   1.00
O899   O     0.20127   0.58332   0.72702   0.00000  Uiso   1.00
O900   O     0.08332   0.79874   0.27298   0.00000  Uiso   1.00
O901   O     0.41668   0.70127   0.72702   0.00000  Uiso   1.00
O902   O     0.20127   0.91668   0.72702   0.00000  Uiso   1.00
O903   O     0.00000   0.75000   0.25000   0.00000  Uiso   1.00
O904   O     0.29874   0.58332   0.27298   0.00000  Uiso   1.00
O905   O     0.41668   0.79874   0.72702   0.00000  Uiso   1.00
O906   O     0.08332   0.70127   0.27298   0.00000  Uiso   1.00
O907   O     0.29874   0.58332   0.72702   0.00000  Uiso   1.00
O908   O     0.20127   0.91668   0.27298   0.00000  Uiso   1.00
O909   O     0.08332   0.70127   0.72702   0.00000  Uiso   1.00
O910   O     0.41668   0.79874   0.27298   0.00000  Uiso   1.00
O911   O     0.45127   0.83332   0.77298   0.00000  Uiso   1.00
O912   O     0.04874   0.66668   0.22702   0.00000  Uiso   1.00
O913   O     0.16668   0.95127   0.77298   0.00000  Uiso   1.00
O914   O     0.00000   0.75000   0.75000   0.00000  Uiso   1.00
O915   O     0.33332   0.54874   0.22702   0.00000  Uiso   1.00
O916   O     0.04874   0.66668   0.77298   0.00000  Uiso   1.00
O917   O     0.45127   0.83332   0.22702   0.00000  Uiso   1.00
O918   O     0.33332   0.54874   0.77298   0.00000  Uiso   1.00
O919   O     0.16668   0.95127   0.22702   0.00000  Uiso   1.00
O920   O     0.45127   0.66668   0.22702   0.00000  Uiso   1.00
O921   O     0.04874   0.83332   0.77298   0.00000  Uiso   1.00
O922   O     0.16668   0.54874   0.22702   0.00000  Uiso   1.00
O923   O     0.33332   0.95127   0.77298   0.00000  Uiso   1.00
O924   O     0.04874   0.83332   0.22702   0.00000  Uiso   1.00
O925   O     0.25000   0.96539   0.33749   0.00000  Uiso   1.00
O926   O     0.45127   0.66668   0.77298   0.00000  Uiso   1.00
O927   O     0.33332   0.95127   0.22702   0.00000  Uiso   1.00
O928   O     0.16668   0.54874   0.77298   0.00000  Uiso   1.00
O929   O     0.25000   0.53462   0.66251   0.00000  Uiso   1.00
O930   O     0.03462   0.75000   0.33749   0.00000  Uiso   1.00
O931   O     0.46539   0.75000   0.66251   0.00000  Uiso   1.00
O932   O     0.25000   0.53462   0.33749   0.00000  Uiso   1.00
Zn933  Zn    0.20053   0.50000   0.21730   0.00000  Uiso   1.00
Zn934  Zn    0.04948   0.75000   0.28270   0.00000  Uiso   1.00
Zn935  Zn    0.25000   0.95053   0.71730   0.00000  Uiso   1.00
Zn936  Zn    0.25000   0.54948   0.28270   0.00000  Uiso   1.00
Zn937  Zn    0.04948   0.75000   0.71730   0.00000  Uiso   1.00
Zn938  Zn    0.45053   0.75000   0.28270   0.00000  Uiso   1.00
Zn939  Zn    0.25000   0.54948   0.71730   0.00000  Uiso   1.00
Zn940  Zn    0.25000   0.95053   0.28270   0.00000  Uiso   1.00
Zn941  Zn    0.29948   0.50000   0.78270   0.00000  Uiso   1.00
Zn942  Zn    0.00000   0.70052   0.21730   0.00000  Uiso   1.00
Zn943  Zn    0.00000   0.79948   0.78270   0.00000  Uiso   1.00
Zn944  Zn    0.29948   0.50000   0.21730   0.00000  Uiso   1.00
Zn945  Zn    0.20053   0.50000   0.78270   0.00000  Uiso   1.00
Zn946  Zn    0.00000   0.79947   0.21730   0.00000  Uiso   1.00
Zn947  Zn    0.00000   0.70053   0.78270   0.00000  Uiso   1.00
Zn948  Zn    0.45053   0.75000   0.71730   0.00000  Uiso   1.00
C949   C     0.75007   0.99996   0.35591   0.00000  Uiso   1.00
C950   C     0.83003   0.92000   0.75001   0.00000  Uiso   1.00
C951   C     0.96324   0.68269   0.02048   0.00000  Uiso   1.00
C952   C     0.82660   0.50737   0.97964   0.00000  Uiso   1.00
C953   C     0.67314   0.99755   0.02018   0.00000  Uiso   1.00
C954   C     0.96323   0.68267   0.97967   0.00000  Uiso   1.00
C955   C     0.53674   0.81733   0.02034   0.00000  Uiso   1.00
C956   C     0.93779   0.80199   0.40129   0.00000  Uiso   1.00
C957   C     0.96325   0.83916   0.38544   0.00000  Uiso   1.00
C958   C     0.56862   0.79346   0.59756   0.00000  Uiso   1.00
C959   C     0.54821   0.83399   0.61252   0.00000  Uiso   1.00
C960   C     0.67548   0.53082   0.39774   0.00000  Uiso   1.00
C961   C     0.91997   0.67000   0.25000   0.00000  Uiso   1.00
C962   C     0.65333   0.99115   0.38294   0.00000  Uiso   1.00
C963   C     0.82311   0.96843   0.60146   0.00000  Uiso   1.00
C964   C     0.84608   0.50756   0.61643   0.00000  Uiso   1.00
C965   C     0.56219   0.69781   0.40126   0.00000  Uiso   1.00
C966   C     0.53671   0.66070   0.38537   0.00000  Uiso   1.00
C967   C     0.93142   0.70627   0.59774   0.00000  Uiso   1.00
C968   C     0.95187   0.66581   0.61288   0.00000  Uiso   1.00
C969   C     0.82329   0.96715   0.39886   0.00000  Uiso   1.00
C970   C     0.84665   0.50614   0.38406   0.00000  Uiso   1.00
C971   C     0.67508   0.53106   0.60083   0.00000  Uiso   1.00
C972   C     0.58003   0.83000   0.74999   0.00000  Uiso   1.00
C973   C     0.67465   0.56977   0.62728   0.00000  Uiso   1.00
C974   C     0.81271   0.55148   0.90131   0.00000  Uiso   1.00
C975   C     0.78760   0.58888   0.88543   0.00000  Uiso   1.00
C976   C     0.68182   0.54423   0.09768   0.00000  Uiso   1.00
C977   C     0.70263   0.58451   0.11277   0.00000  Uiso   1.00
C978   C     0.93121   0.70785   0.89895   0.00000  Uiso   1.00
C979   C     0.90355   0.74348   0.88323   0.00000  Uiso   1.00
C980   C     0.56881   0.79209   0.10101   0.00000  Uiso   1.00
C981   C     0.59648   0.75640   0.11661   0.00000  Uiso   1.00
C982   C     0.68731   0.94850   0.90138   0.00000  Uiso   1.00
C983   C     0.83002   0.91998   0.24999   0.00000  Uiso   1.00
C984   C     0.71243   0.91110   0.88557   0.00000  Uiso   1.00
C985   C     0.81817   0.95575   0.09777   0.00000  Uiso   1.00
C986   C     0.79735   0.91548   0.11293   0.00000  Uiso   1.00
C987   C     0.56885   0.79203   0.89890   0.00000  Uiso   1.00
C988   C     0.59649   0.75639   0.88323   0.00000  Uiso   1.00
C989   C     0.93113   0.70803   0.10107   0.00000  Uiso   1.00
C990   C     0.90349   0.74374   0.11661   0.00000  Uiso   1.00
C991   C     0.61643   0.74275   0.45902   0.00000  Uiso   1.00
C992   C     0.88399   0.76006   0.54097   0.00000  Uiso   1.00
C993   C     0.80836   0.90069   0.45990   0.00000  Uiso   1.00
C994   C     0.66997   0.58001   0.74999   0.00000  Uiso   1.00
C995   C     0.68295   0.59687   0.53902   0.00000  Uiso   1.00
C996   C     0.88358   0.75679   0.45898   0.00000  Uiso   1.00
C997   C     0.61600   0.73945   0.54101   0.00000  Uiso   1.00
C998   C     0.68785   0.59794   0.45810   0.00000  Uiso   1.00
C999   C     0.80816   0.90132   0.54141   0.00000  Uiso   1.00
C1000  C     0.63352   0.99422   0.95899   0.00000  Uiso   1.00
C1001  C     0.86612   0.50904   0.04100   0.00000  Uiso   1.00
C1002  C     0.54528   0.85643   0.95909   0.00000  Uiso   1.00
C1003  C     0.95492   0.64356   0.04094   0.00000  Uiso   1.00
C1004  C     0.86649   0.50575   0.95902   0.00000  Uiso   1.00
C1005  C     0.58003   0.83001   0.25000   0.00000  Uiso   1.00
C1006  C     0.63388   0.99094   0.04098   0.00000  Uiso   1.00
C1007  C     0.95477   0.64352   0.95934   0.00000  Uiso   1.00
C1008  C     0.54503   0.85649   0.04070   0.00000  Uiso   1.00
C1009  C     0.91998   0.66999   0.75000   0.00000  Uiso   1.00
C1010  C     0.66999   0.91998   0.75003   0.00000  Uiso   1.00
C1011  C     0.83003   0.58000   0.24999   0.00000  Uiso   1.00
C1012  C     0.91997   0.83000   0.74999   0.00000  Uiso   1.00
C1013  C     0.74917   0.50010   0.64405   0.00000  Uiso   1.00
C1014  C     0.58002   0.66999   0.25002   0.00000  Uiso   1.00
C1015  C     0.83002   0.58002   0.75001   0.00000  Uiso   1.00
C1016  C     0.66997   0.91999   0.25000   0.00000  Uiso   1.00
C1017  C     0.58002   0.66998   0.74999   0.00000  Uiso   1.00
C1018  C     0.91998   0.83002   0.25001   0.00000  Uiso   1.00
C1019  C     0.63833   0.88834   0.24999   0.00000  Uiso   1.00
C1020  C     0.86167   0.61167   0.75002   0.00000  Uiso   1.00
C1021  C     0.61167   0.63834   0.25003   0.00000  Uiso   1.00
C1022  C     0.88832   0.86165   0.74998   0.00000  Uiso   1.00
C1023  C     0.86168   0.61165   0.24998   0.00000  Uiso   1.00
C1024  C     0.50000   0.74999   0.35606   0.00000  Uiso   1.00
C1025  C     0.63833   0.88833   0.75004   0.00000  Uiso   1.00
C1026  C     0.88834   0.86167   0.25002   0.00000  Uiso   1.00
C1027  C     0.61166   0.63833   0.74997   0.00000  Uiso   1.00
C1028  C     0.63832   0.61165   0.74997   0.00000  Uiso   1.00
C1029  C     0.86167   0.88834   0.25000   0.00000  Uiso   1.00
C1030  C     0.61169   0.86164   0.75000   0.00000  Uiso   1.00
C1031  C     0.88832   0.63835   0.25001   0.00000  Uiso   1.00
C1032  C     0.86168   0.88835   0.75001   0.00000  Uiso   1.00
C1033  C     0.63832   0.61165   0.24999   0.00000  Uiso   1.00
C1034  C     0.88833   0.63834   0.75000   0.00000  Uiso   1.00
C1035  C     0.50000   0.74998   0.64385   0.00000  Uiso   1.00
C1036  C     0.61167   0.86166   0.25000   0.00000  Uiso   1.00
C1037  C     0.96589   0.76806   0.41939   0.00000  Uiso   1.00
C1038  C     0.53629   0.76310   0.58017   0.00000  Uiso   1.00
C1039  C     0.71698   0.52060   0.41836   0.00000  Uiso   1.00
C1040  C     0.78167   0.97961   0.58121   0.00000  Uiso   1.00
C1041  C     0.53411   0.73169   0.41939   0.00000  Uiso   1.00
C1042  C     0.96373   0.73660   0.58022   0.00000  Uiso   1.00
C1043  C     0.78183   0.97857   0.41892   0.00000  Uiso   1.00
C1044  C     0.71745   0.52271   0.58122   0.00000  Uiso   1.00
C1045  C     0.78430   0.51783   0.91941   0.00000  Uiso   1.00
C1046  C     0.50000   0.74998   0.85596   0.00000  Uiso   1.00
C1047  C     0.71385   0.51362   0.08021   0.00000  Uiso   1.00
C1048  C     0.97099   0.72442   0.91889   0.00000  Uiso   1.00
C1049  C     0.52900   0.77557   0.08110   0.00000  Uiso   1.00
C1050  C     0.71572   0.98216   0.91943   0.00000  Uiso   1.00
C1051  C     0.78614   0.98637   0.08024   0.00000  Uiso   1.00
C1052  C     0.52906   0.77549   0.91884   0.00000  Uiso   1.00
C1053  C     0.97095   0.72452   0.08114   0.00000  Uiso   1.00
C1054  C     0.50001   0.74992   0.39865   0.00000  Uiso   1.00
C1055  C     0.50000   0.74990   0.60111   0.00000  Uiso   1.00
C1056  C     0.74971   0.99980   0.39831   0.00000  Uiso   1.00
C1057  C     0.50000   0.75002   0.14404   0.00000  Uiso   1.00
C1058  C     0.74938   0.50074   0.60157   0.00000  Uiso   1.00
C1059  C     0.75001   0.99999   0.89867   0.00000  Uiso   1.00
C1060  C     0.75000   0.99999   0.10112   0.00000  Uiso   1.00
C1061  C     0.50002   0.74995   0.89843   0.00000  Uiso   1.00
C1062  C     0.99998   0.75005   0.10156   0.00000  Uiso   1.00
C1063  C     0.53766   0.74135   0.45926   0.00000  Uiso   1.00
C1064  C     0.96159   0.74699   0.54042   0.00000  Uiso   1.00
C1065  C     0.77621   0.97231   0.45927   0.00000  Uiso   1.00
C1066  C     0.72208   0.52835   0.54063   0.00000  Uiso   1.00
C1067  C     0.96234   0.75827   0.45925   0.00000  Uiso   1.00
C1068  C     0.75000   0.50000   0.85607   0.00000  Uiso   1.00
C1069  C     0.53842   0.75260   0.54041   0.00000  Uiso   1.00
C1070  C     0.72201   0.52735   0.45870   0.00000  Uiso   1.00
C1071  C     0.77624   0.97305   0.54093   0.00000  Uiso   1.00
C1072  C     0.71226   0.99194   0.95928   0.00000  Uiso   1.00
C1073  C     0.78839   0.99677   0.04044   0.00000  Uiso   1.00
C1074  C     0.52269   0.78124   0.95913   0.00000  Uiso   1.00
C1075  C     0.97732   0.71877   0.04086   0.00000  Uiso   1.00
C1076  C     0.78774   0.50804   0.95928   0.00000  Uiso   1.00
C1077  C     0.71161   0.50321   0.04043   0.00000  Uiso   1.00
C1078  C     0.97734   0.71871   0.95919   0.00000  Uiso   1.00
C1079  C     0.75000   0.50000   0.14385   0.00000  Uiso   1.00
C1080  C     0.52265   0.78128   0.04080   0.00000  Uiso   1.00
C1081  C     0.50000   0.74980   0.47956   0.00000  Uiso   1.00
C1082  C     0.50000   0.74979   0.52008   0.00000  Uiso   1.00
C1083  C     0.74919   0.50016   0.47946   0.00000  Uiso   1.00
C1084  C     0.74929   0.50068   0.52035   0.00000  Uiso   1.00
C1085  C     0.75000   0.99999   0.97958   0.00000  Uiso   1.00
C1086  C     0.75000   0.99999   0.02011   0.00000  Uiso   1.00
C1087  C     0.50001   0.74999   0.97958   0.00000  Uiso   1.00
C1088  C     0.99999   0.75001   0.02040   0.00000  Uiso   1.00
C1089  C     0.57652   0.74156   0.47963   0.00000  Uiso   1.00
C1090  C     0.66998   0.58000   0.24999   0.00000  Uiso   1.00
C1091  C     0.92317   0.75306   0.52017   0.00000  Uiso   1.00
C1092  C     0.79504   0.93866   0.47996   0.00000  Uiso   1.00
C1093  C     0.70107   0.56060   0.51960   0.00000  Uiso   1.00
C1094  C     0.92348   0.75800   0.47961   0.00000  Uiso   1.00
C1095  C     0.57683   0.74648   0.52018   0.00000  Uiso   1.00
C1096  C     0.70192   0.56057   0.47879   0.00000  Uiso   1.00
C1097  C     0.79500   0.93900   0.52076   0.00000  Uiso   1.00
C1098  C     0.67340   0.99261   0.97962   0.00000  Uiso   1.00
C1099  C     0.82686   0.50243   0.02020   0.00000  Uiso   1.00
C1100  C     0.53679   0.81731   0.97952   0.00000  Uiso   1.00
H1101  H     0.98151   0.83040   0.35932   0.00000  Uiso   1.00
H1102  H     0.59129   0.80432   0.57528   0.00000  Uiso   1.00
H1103  H     0.67039   0.97678   0.35830   0.00000  Uiso   1.00
H1104  H     0.65035   0.96765   0.40664   0.00000  Uiso   1.00
H1105  H     0.62121   0.99943   0.37263   0.00000  Uiso   1.00
H1106  H     0.65227   0.54539   0.41750   0.00000  Uiso   1.00
H1107  H     0.68089   0.55317   0.37352   0.00000  Uiso   1.00
H1108  H     0.84943   0.53116   0.59286   0.00000  Uiso   1.00
H1109  H     0.82936   0.52207   0.64119   0.00000  Uiso   1.00
H1110  H     0.87807   0.99858   0.62658   0.00000  Uiso   1.00
H1111  H     0.81751   0.94593   0.62552   0.00000  Uiso   1.00
H1112  H     0.94143   0.86497   0.37713   0.00000  Uiso   1.00
H1113  H     0.84582   0.95360   0.58136   0.00000  Uiso   1.00
H1114  H     0.51845   0.66955   0.35925   0.00000  Uiso   1.00
H1115  H     0.55852   0.63490   0.37702   0.00000  Uiso   1.00
H1116  H     0.51479   0.64862   0.40788   0.00000  Uiso   1.00
H1117  H     0.58281   0.71127   0.37847   0.00000  Uiso   1.00
H1118  H     0.58320   0.68343   0.42323   0.00000  Uiso   1.00
H1119  H     0.97194   0.67170   0.63856   0.00000  Uiso   1.00
H1120  H     0.92690   0.64319   0.62158   0.00000  Uiso   1.00
H1121  H     0.97130   0.65108   0.58980   0.00000  Uiso   1.00
H1122  H     0.91250   0.72173   0.62067   0.00000  Uiso   1.00
H1123  H     0.98517   0.85117   0.40797   0.00000  Uiso   1.00
H1124  H     0.90876   0.69531   0.57550   0.00000  Uiso   1.00
H1125  H     0.83014   0.52096   0.35930   0.00000  Uiso   1.00
H1126  H     0.85015   0.52958   0.40772   0.00000  Uiso   1.00
H1127  H     0.87858   0.99694   0.37396   0.00000  Uiso   1.00
H1128  H     0.84581   0.95203   0.41898   0.00000  Uiso   1.00
H1129  H     0.81760   0.94481   0.37471   0.00000  Uiso   1.00
H1130  H     0.64498   0.58774   0.62300   0.00000  Uiso   1.00
H1131  H     0.67533   0.55985   0.65806   0.00000  Uiso   1.00
H1132  H     0.70178   0.59095   0.62144   0.00000  Uiso   1.00
H1133  H     0.64975   0.53420   0.57879   0.00000  Uiso   1.00
H1134  H     0.91718   0.78859   0.37848   0.00000  Uiso   1.00
H1135  H     0.66584   0.50289   0.61797   0.00000  Uiso   1.00
H1136  H     0.80967   0.61447   0.87709   0.00000  Uiso   1.00
H1137  H     0.76924   0.58028   0.85933   0.00000  Uiso   1.00
H1138  H     0.76582   0.60114   0.90796   0.00000  Uiso   1.00
H1139  H     0.83385   0.56558   0.92330   0.00000  Uiso   1.00
H1140  H     0.83323   0.53789   0.87853   0.00000  Uiso   1.00
H1141  H     0.67786   0.60736   0.12139   0.00000  Uiso   1.00
H1142  H     0.72259   0.57843   0.13850   0.00000  Uiso   1.00
H1143  H     0.72223   0.59904   0.08969   0.00000  Uiso   1.00
H1144  H     0.65926   0.55540   0.07543   0.00000  Uiso   1.00
H1145  H     0.91677   0.81628   0.42327   0.00000  Uiso   1.00
H1146  H     0.66277   0.52893   0.12064   0.00000  Uiso   1.00
H1147  H     0.89744   0.76710   0.90627   0.00000  Uiso   1.00
H1148  H     0.91823   0.75928   0.85801   0.00000  Uiso   1.00
H1149  H     0.87285   0.73039   0.87350   0.00000  Uiso   1.00
H1150  H     0.93943   0.68555   0.87542   0.00000  Uiso   1.00
H1151  H     0.91053   0.69083   0.91948   0.00000  Uiso   1.00
H1152  H     0.58178   0.74048   0.14176   0.00000  Uiso   1.00
H1153  H     0.60260   0.73287   0.09349   0.00000  Uiso   1.00
H1154  H     0.62716   0.76944   0.12639   0.00000  Uiso   1.00
H1155  H     0.58945   0.80917   0.08050   0.00000  Uiso   1.00
H1156  H     0.52813   0.82820   0.63822   0.00000  Uiso   1.00
H1157  H     0.56063   0.81431   0.12461   0.00000  Uiso   1.00
H1158  H     0.69037   0.88551   0.87725   0.00000  Uiso   1.00
H1159  H     0.73080   0.91971   0.85947   0.00000  Uiso   1.00
H1160  H     0.73420   0.89884   0.90813   0.00000  Uiso   1.00
H1161  H     0.66617   0.93439   0.92339   0.00000  Uiso   1.00
H1162  H     0.66679   0.96209   0.87857   0.00000  Uiso   1.00
H1163  H     0.82212   0.89262   0.12159   0.00000  Uiso   1.00
H1164  H     0.77740   0.92156   0.13865   0.00000  Uiso   1.00
H1165  H     0.77774   0.90095   0.08988   0.00000  Uiso   1.00
H1166  H     0.84072   0.94457   0.07554   0.00000  Uiso   1.00
H1167  H     0.57319   0.85661   0.62113   0.00000  Uiso   1.00
H1168  H     0.83723   0.97104   0.12071   0.00000  Uiso   1.00
H1169  H     0.60258   0.73276   0.90631   0.00000  Uiso   1.00
H1170  H     0.58178   0.74060   0.85804   0.00000  Uiso   1.00
H1171  H     0.62718   0.76945   0.87348   0.00000  Uiso   1.00
H1172  H     0.56065   0.81434   0.87533   0.00000  Uiso   1.00
H1173  H     0.58954   0.80903   0.91940   0.00000  Uiso   1.00
H1174  H     0.91821   0.75964   0.14174   0.00000  Uiso   1.00
H1175  H     0.89738   0.76727   0.09345   0.00000  Uiso   1.00
H1176  H     0.87280   0.73072   0.12641   0.00000  Uiso   1.00
H1177  H     0.91048   0.69096   0.08057   0.00000  Uiso   1.00
H1178  H     0.52879   0.84865   0.58936   0.00000  Uiso   1.00
H1179  H     0.93929   0.68579   0.12470   0.00000  Uiso   1.00
H1180  H     0.58753   0.77805   0.62056   0.00000  Uiso   1.00
N1181  N     0.64827   0.74378   0.44268   0.00000  Uiso   1.00
N1182  N     0.89741   0.51440   0.05751   0.00000  Uiso   1.00
N1183  N     0.55199   0.88764   0.94291   0.00000  Uiso   1.00
N1184  N     0.94836   0.61234   0.05716   0.00000  Uiso   1.00
N1185  N     0.89831   0.50439   0.94267   0.00000  Uiso   1.00
N1186  N     0.60258   0.98557   0.05749   0.00000  Uiso   1.00
N1187  N     0.94808   0.61228   0.94323   0.00000  Uiso   1.00
N1188  N     0.55157   0.88773   0.05684   0.00000  Uiso   1.00
N1189  N     0.85275   0.76574   0.55747   0.00000  Uiso   1.00
N1190  N     0.81892   0.87040   0.44403   0.00000  Uiso   1.00
N1191  N     0.66849   0.62621   0.55379   0.00000  Uiso   1.00
N1192  N     0.85175   0.75574   0.44263   0.00000  Uiso   1.00
N1193  N     0.64723   0.73375   0.55755   0.00000  Uiso   1.00
N1194  N     0.67670   0.62775   0.44174   0.00000  Uiso   1.00
N1195  N     0.81858   0.87126   0.55776   0.00000  Uiso   1.00
N1196  N     0.60170   0.99558   0.94263   0.00000  Uiso   1.00
O1197  O     0.75000   0.50000   0.25000   0.00000  Uiso   1.00
O1198  O     0.75000   0.96539   0.66251   0.00000  Uiso   1.00
O1199  O     0.96539   0.75000   0.33749   0.00000  Uiso   1.00
O1200  O     0.53462   0.75000   0.66251   0.00000  Uiso   1.00
O1201  O     0.50000   0.71539   0.83749   0.00000  Uiso   1.00
O1202  O     0.50000   0.78461   0.16251   0.00000  Uiso   1.00
O1203  O     0.78462   0.50000   0.83749   0.00000  Uiso   1.00
O1204  O     0.71539   0.50000   0.16251   0.00000  Uiso   1.00
O1205  O     0.50000   0.78462   0.83749   0.00000  Uiso   1.00
O1206  O     0.50000   0.71538   0.16251   0.00000  Uiso   1.00
O1207  O     0.71539   0.50000   0.83749   0.00000  Uiso   1.00
O1208  O     0.75000   0.50000   0.75000   0.00000  Uiso   1.00
O1209  O     0.78462   0.50000   0.16251   0.00000  Uiso   1.00
O1210  O     0.70127   0.58332   0.27298   0.00000  Uiso   1.00
O1211  O     0.79874   0.91668   0.72702   0.00000  Uiso   1.00
O1212  O     0.91668   0.70127   0.27298   0.00000  Uiso   1.00
O1213  O     0.58332   0.79874   0.72702   0.00000  Uiso   1.00
O1214  O     0.79874   0.91668   0.27298   0.00000  Uiso   1.00
O1215  O     0.70127   0.58332   0.72702   0.00000  Uiso   1.00
O1216  O     0.58332   0.79874   0.27298   0.00000  Uiso   1.00
O1217  O     0.91668   0.70127   0.72702   0.00000  Uiso   1.00
O1218  O     0.70127   0.91668   0.72702   0.00000  Uiso   1.00
O1219  O     0.50000   0.75000   0.25000   0.00000  Uiso   1.00
O1220  O     0.79874   0.58332   0.27298   0.00000  Uiso   1.00
O1221  O     0.91668   0.79874   0.72702   0.00000  Uiso   1.00
O1222  O     0.58332   0.70127   0.27298   0.00000  Uiso   1.00
O1223  O     0.79874   0.58332   0.72702   0.00000  Uiso   1.00
O1224  O     0.70127   0.91668   0.27298   0.00000  Uiso   1.00
O1225  O     0.58332   0.70127   0.72702   0.00000  Uiso   1.00
O1226  O     0.91668   0.79874   0.27298   0.00000  Uiso   1.00
O1227  O     0.95127   0.83332   0.77298   0.00000  Uiso   1.00
O1228  O     0.54874   0.66668   0.22702   0.00000  Uiso   1.00
O1229  O     0.66668   0.95127   0.77298   0.00000  Uiso   1.00
O1230  O     0.50000   0.75000   0.75000   0.00000  Uiso   1.00
O1231  O     0.83332   0.54874   0.22702   0.00000  Uiso   1.00
O1232  O     0.54874   0.66668   0.77298   0.00000  Uiso   1.00
O1233  O     0.95127   0.83332   0.22702   0.00000  Uiso   1.00
O1234  O     0.83332   0.54874   0.77298   0.00000  Uiso   1.00
O1235  O     0.66668   0.95127   0.22702   0.00000  Uiso   1.00
O1236  O     0.95127   0.66668   0.22702   0.00000  Uiso   1.00
O1237  O     0.54874   0.83332   0.77298   0.00000  Uiso   1.00
O1238  O     0.66668   0.54874   0.22702   0.00000  Uiso   1.00
O1239  O     0.83332   0.95127   0.77298   0.00000  Uiso   1.00
O1240  O     0.54874   0.83332   0.22702   0.00000  Uiso   1.00
O1241  O     0.75000   0.96539   0.33749   0.00000  Uiso   1.00
O1242  O     0.95127   0.66668   0.77298   0.00000  Uiso   1.00
O1243  O     0.83332   0.95127   0.22702   0.00000  Uiso   1.00
O1244  O     0.66668   0.54874   0.77298   0.00000  Uiso   1.00
O1245  O     0.75000   0.53462   0.66251   0.00000  Uiso   1.00
O1246  O     0.53462   0.75000   0.33749   0.00000  Uiso   1.00
O1247  O     0.96539   0.75000   0.66251   0.00000  Uiso   1.00
O1248  O     0.75000   0.53462   0.33749   0.00000  Uiso   1.00
Zn1249 Zn    0.70053   0.50000   0.21730   0.00000  Uiso   1.00
Zn1250 Zn    0.54948   0.75000   0.28270   0.00000  Uiso   1.00
Zn1251 Zn    0.75000   0.95053   0.71730   0.00000  Uiso   1.00
Zn1252 Zn    0.75000   0.54948   0.28270   0.00000  Uiso   1.00
Zn1253 Zn    0.54948   0.75000   0.71730   0.00000  Uiso   1.00
Zn1254 Zn    0.95053   0.75000   0.28270   0.00000  Uiso   1.00
Zn1255 Zn    0.75000   0.54948   0.71730   0.00000  Uiso   1.00
Zn1256 Zn    0.75000   0.95053   0.28270   0.00000  Uiso   1.00
Zn1257 Zn    0.79948   0.50000   0.78270   0.00000  Uiso   1.00
Zn1258 Zn    0.50000   0.70052   0.21730   0.00000  Uiso   1.00
Zn1259 Zn    0.50000   0.79948   0.78270   0.00000  Uiso   1.00
Zn1260 Zn    0.79948   0.50000   0.21730   0.00000  Uiso   1.00
Zn1261 Zn    0.70053   0.50000   0.78270   0.00000  Uiso   1.00
Zn1262 Zn    0.50000   0.79947   0.21730   0.00000  Uiso   1.00
Zn1263 Zn    0.50000   0.70053   0.78270   0.00000  Uiso   1.00
Zn1264 Zn    0.95053   0.75000   0.71730   0.00000  Uiso   1.00
loop_
_geom_bond_atom_site_label_1
_geom_bond_atom_site_label_2
_geom_bond_distance
_geom_bond_site_symmetry_2
_ccdc_geom_bond_type
C1     O293    1.270   .     A
C1     C108    1.464   .     S
C1     O932    1.271   .     S
C2     C84     1.421   .     S
C2     O263    1.275   .     A
C2     O291    1.276   .     A
C3     C55     1.454   .     S
C3     C127    1.418   .     A
C3     C6      1.409   1_554 S
C4     C56     1.453   .     S
C4     C128    1.419   .     A
C4     C151    1.409   1_556 S
C5     C58     1.453   .     S
C5     C761    1.418   .     S
C5     C150    1.409   1_554 S
C6     C130    1.418   .     A
C6     C59     1.454   .     S
C6     C3      1.409   1_556 S
C7     C132    1.418   .     A
C7     C60     1.454   .     S
C7     C152    1.409   1_554 S
C8     H186    1.109   .     S
C8     C89     1.532   .     S
C8     C9      1.532   .     S
C8     H197    1.108   .     S
C9     H164    1.111   .     S
C9     H153    1.108   .     S
C9     H175    1.111   .     S
C10    H154    1.108   .     S
C10    H232    1.109   .     S
C10    C11     1.532   .     S
C10    C90     1.531   .     S
C11    H219    1.111   .     S
C11    H230    1.111   .     S
C11    H208    1.107   .     S
C12    C91     1.531   .     S
C12    H159    1.110   .     S
C12    H158    1.106   .     S
C12    C646    1.531   1_545 S
C13    C83     1.421   .     S
C13    O264    1.276   .     A
C13    O288    1.275   .     A
C14    H157    1.111   .     S
C14    H156    1.111   .     S
C14    H155    1.107   .     S
C14    C644    1.531   .     S
C15    H163    1.110   .     S
C15    H165    1.106   .     S
C15    C92     1.531   .     S
C15    C648    1.531   .     S
C16    H160    1.111   .     S
C16    H161    1.107   .     S
C16    C647    1.531   1_545 S
C16    H794    1.111   1_545 S
C17    H170    1.108   .     S
C17    C18     1.532   .     S
C17    C93     1.531   .     S
C17    H169    1.109   .     S
C18    H166    1.108   .     S
C18    H167    1.111   .     S
C18    H168    1.111   .     S
C19    C20     1.532   .     S
C19    H176    1.108   .     S
C19    C94     1.531   .     S
C19    H174    1.109   .     S
C20    H172    1.111   .     S
C20    H171    1.107   .     S
C20    H173    1.111   .     S
C21    C95     1.530   .     S
C21    H181    1.110   .     S
C21    H180    1.106   .     S
C21    C654    1.531   .     S
C22    H177    1.107   .     S
C22    H178    1.111   .     S
C22    C653    1.531   1_545 S
C22    H811    1.111   1_545 S
C23    H185    1.111   .     S
C23    H187    1.112   .     S
C23    C96     1.528   .     S
C23    C25     1.533   .     S
C24    O265    1.276   .     A
C24    O289    1.275   .     A
C24    C82     1.421   .     S
C25    H182    1.111   .     S
C25    H184    1.111   .     S
C25    H183    1.108   .     S
C26    H191    1.108   .     S
C26    C97     1.532   .     S
C26    C27     1.532   .     S
C26    H192    1.109   .     S
C27    H190    1.111   .     S
C27    H188    1.111   .     S
C27    H189    1.107   .     S
C28    C99     1.531   .     S
C28    H196    1.108   .     S
C28    C29     1.532   .     S
C28    H198    1.109   .     S
C29    H193    1.111   .     S
C29    H195    1.111   .     S
C29    H194    1.107   .     S
C30    H202    1.109   .     S
C30    C100    1.531   .     S
C30    H203    1.106   .     S
C30    C31     1.531   .     S
C31    H200    1.107   .     S
C31    H199    1.111   .     S
C31    H201    1.111   .     S
C32    H209    1.109   .     S
C32    C101    1.531   .     S
C32    C33     1.531   .     S
C32    H207    1.107   .     S
C33    H205    1.111   .     S
C33    H204    1.107   .     S
C33    H206    1.111   .     S
C34    C102    1.532   .     S
C34    H213    1.108   .     S
C34    C36     1.532   .     S
C34    H214    1.109   .     S
C35    O295    1.275   .     A
C35    C81     1.421   .     S
C35    O266    1.275   .     A
C36    H212    1.111   .     S
C36    H211    1.108   .     S
C36    H210    1.111   .     S
C37    H218    1.108   .     S
C37    C38     1.532   .     S
C37    H220    1.109   .     S
C37    C103    1.531   .     S
C38    H215    1.111   .     S
C38    H217    1.111   .     S
C38    H216    1.107   .     S
C39    H224    1.110   .     S
C39    C104    1.531   .     S
C39    C40     1.531   .     S
C39    H225    1.107   .     S
C40    H221    1.111   .     S
C40    H223    1.111   .     S
C40    H222    1.107   .     S
C41    H231    1.109   .     S
C41    H229    1.107   .     S
C41    C105    1.531   .     S
C41    C42     1.531   .     S
C42    H228    1.111   .     S
C42    H226    1.107   .     S
C42    H227    1.111   .     S
C43    N233    1.158   .     T
C43    C141    1.453   .     S
C44    C143    1.453   .     S
C44    N241    1.157   .     T
C45    C144    1.454   .     S
C45    N242    1.158   .     T
C46    O267    1.275   .     A
C46    O296    1.275   .     A
C46    C80     1.421   .     S
C47    N243    1.158   .     T
C47    C145    1.452   .     S
C48    N244    1.157   .     T
C48    C146    1.453   .     S
C49    N245    1.157   .     T
C49    C147    1.453   .     S
C50    N246    1.158   .     T
C50    C148    1.455   .     S
C51    N247    1.158   .     T
C51    C149    1.454   .     S
C52    C150    1.453   .     S
C52    N248    1.158   .     T
C53    N234    1.157   .     T
C53    C151    1.453   .     S
C54    C152    1.454   .     S
C54    N235    1.158   .     T
C55    N236    1.157   .     T
C56    N237    1.157   .     T
C57    O292    1.275   .     A
C57    O268    1.275   .     A
C57    C88     1.421   .     S
C58    N238    1.157   .     T
C59    N239    1.158   .     T
C60    N240    1.157   .     T
C61    O294    1.275   .     A
C61    O269    1.275   .     A
C61    C86     1.421   .     S
C62    C77     1.421   .     S
C62    O270    1.276   .     A
C62    O281    1.276   .     A
C63    C75     1.421   .     S
C63    O283    1.276   .     A
C63    O272    1.275   .     A
C64    O279    1.275   .     A
C64    O273    1.276   .     A
C64    C74     1.421   .     S
C65    O297    1.269   .     A
C65    C110    1.467   .     S
C65    O882    1.274   1_545 S
C66    O280    1.275   .     A
C66    C73     1.421   .     S
C66    O274    1.276   .     A
C67    C72     1.421   .     S
C67    O286    1.275   .     A
C67    O275    1.275   .     A
C68    O287    1.275   .     A
C68    C71     1.421   .     S
C68    O276    1.275   .     A
C69    C79     1.421   .     S
C69    O284    1.275   .     A
C69    O277    1.275   .     A
C70    O278    1.275   .     A
C70    O285    1.275   .     A
C70    C78     1.421   .     S
C71    C88     1.198   .     T
C72    C86     1.198   .     T
C73    C85     1.198   .     T
C74    C84     1.198   .     T
C75    C83     1.198   .     T
C76    C106    1.470   .     S
C76    O298    1.272   .     A
C76    O567    1.272   1_455 S
C77    C82     1.198   .     T
C78    C81     1.197   .     T
C79    C80     1.197   .     T
C85    C142    1.421   .     S
C87    O615    1.273   1_455 A
C87    C107    1.475   .     S
C87    O252    1.273   .     S
C89    C119    1.415   .     A
C89    C422    1.420   .     S
C90    C107    1.422   .     A
C90    C121    1.415   .     A
C91    C122    1.418   .     A
C91    C740    1.413   1_545 S
C92    C123    1.417   .     A
C92    C742    1.413   .     S
C93    C106    1.420   .     A
C93    C115    1.415   .     A
C94    C116    1.415   .     A
C94    C423    1.422   .     S
C95    C108    1.414   .     A
C95    C117    1.418   .     A
C96    C110    1.416   .     A
C96    C118    1.420   .     A
C97    C128    1.415   .     A
C97    C743    1.420   1_545 S
C98    C113    1.466   .     S
C98    O253    1.271   .     S
C98    O257    1.271   .     S
C99    C129    1.415   .     A
C99    C744    1.422   1_545 S
C100   C130    1.417   .     A
C100   C429    1.416   .     S
C101   C132    1.417   .     A
C101   C430    1.416   1_455 S
C102   C111    1.420   .     A
C102   C124    1.415   .     A
C103   C112    1.422   .     A
C103   C125    1.415   .     A
C104   C113    1.416   .     A
C104   C126    1.417   .     A
C105   C127    1.417   .     A
C105   C114    1.416   .     A
C106   C405    1.420   1_455 S
C107   C410    1.422   1_455 S
C108   C723    1.413   .     S
C109   C430    1.467   1_455 S
C109   O254    1.271   .     S
C109   O258    1.271   .     S
C110   C724    1.413   1_545 S
C111   C752    1.470   .     S
C111   C729    1.420   .     S
C112   C763    1.475   .     S
C112   C731    1.422   .     S
C113   C416    1.416   1_455 S
C114   C425    1.467   .     S
C114   C417    1.416   .     S
C115   C141    1.419   .     A
C115   C133    1.411   .     S
C116   C143    1.418   .     A
C116   C450    1.409   .     S
C117   C144    1.417   .     A
C117   C767    1.416   .     S
C118   C136    1.418   .     A
C118   C145    1.421   .     A
C119   C146    1.419   .     A
C119   C449    1.411   .     A
C120   C743    1.470   1_545 S
C120   O255    1.272   .     S
C120   O259    1.272   .     S
C121   C147    1.418   .     A
C121   C134    1.409   .     A
C122   C148    1.415   .     A
C122   C135    1.415   .     A
C123   C149    1.418   .     A
C123   C768    1.416   .     S
C124   C137    1.411   .     A
C124   C150    1.419   .     A
C125   C138    1.409   .     A
C125   C783    1.418   .     S
C126   C152    1.418   .     A
C126   C139    1.415   .     A
C127   C140    1.414   .     A
C128   C769    1.411   1_545 S
C129   C637    1.418   1_545 S
C129   C770    1.409   1_545 S
C130   C455    1.415   .     S
C131   C744    1.475   1_545 S
C131   O261    1.273   .     A
C131   O256    1.273   .     A
C132   C456    1.414   1_455 S
C133   C435    1.411   1_455 A
C133   C134    1.399   .     S
C134   C432    1.409   1_455 S
C135   C136    1.411   .     A
C135   C749    1.416   1_545 S
C136   C755    1.416   1_545 S
C137   C760    1.411   .     S
C137   C138    1.399   1_556 S
C138   C761    1.409   .     S
C138   C137    1.399   1_554 S
C139   C446    1.415   1_455 S
C139   C456    1.409   1_456 S
C140   C448    1.414   .     S
C140   C455    1.409   1_554 S
C141   C147    1.409   .     A
C142   O290    1.276   .     A
C142   O262    1.275   .     A
C143   C146    1.409   .     A
C144   C149    1.409   .     A
C145   C148    1.409   .     A
C150   C5      1.409   1_556 S
C151   C757    1.418   1_545 S
C151   C4      1.409   1_554 S
C152   C7      1.409   1_556 S
H162   C648    1.111   .     S
H179   C654    1.111   .     S
O249   Zn301   1.933   .     S
O249   Zn312   1.934   .     S
O249   Zn304   1.936   .     S
O249   Zn940   1.934   1_545 S
O250   Zn303   1.949   .     S
O250   C697    1.274   .     S
O251   Zn306   1.949   .     S
O251   C392    1.272   .     S
O252   Zn305   1.949   .     S
O253   Zn315   1.950   .     S
O254   Zn314   1.950   .     S
O255   Zn309   1.949   .     S
O256   Zn301   1.949   .     S
O257   Zn311   1.949   .     S
O258   Zn310   1.949   .     S
O259   Zn313   1.949   .     S
O260   Zn313   1.934   .     S
O260   Zn309   1.933   .     S
O260   Zn307   1.934   .     S
O260   Zn935   1.936   1_545 S
O261   Zn312   1.949   .     S
O262   Zn304   1.913   .     S
O263   Zn303   1.913   .     S
O264   Zn306   1.914   .     S
O265   Zn305   1.914   .     S
O266   Zn308   1.913   .     S
O267   Zn307   1.913   .     S
O268   Zn302   1.914   .     S
O269   Zn316   1.914   .     S
O270   Zn303   1.913   .     S
O271   Zn310   1.936   .     S
O271   Zn314   1.934   .     S
O271   Zn302   1.933   .     S
O271   Zn622   1.934   1_455 S
O272   Zn304   1.913   .     S
O273   Zn316   1.914   .     S
O274   Zn302   1.914   .     S
O275   Zn307   1.913   .     S
O276   Zn308   1.913   .     S
O277   Zn305   1.914   .     S
O278   Zn306   1.914   .     S
O279   Zn627   1.913   .     S
O280   Zn310   1.913   .     S
O281   Zn945   1.914   .     S
O282   Zn305   1.934   .     S
O282   Zn311   1.936   .     S
O282   Zn315   1.934   .     S
O282   Zn632   1.933   1_455 S
O283   Zn312   1.914   .     S
O284   Zn315   1.913   .     S
O285   Zn630   1.913   .     S
O286   Zn309   1.914   .     S
O287   Zn933   1.914   .     S
O288   Zn626   1.913   .     S
O289   Zn311   1.913   .     S
O290   Zn301   1.914   .     S
O291   Zn941   1.914   .     S
O292   Zn314   1.913   .     S
O293   Zn308   1.950   .     S
O294   Zn631   1.913   .     S
O295   Zn944   1.914   .     S
O296   Zn313   1.914   .     S
O297   Zn307   1.950   .     S
O298   Zn302   1.949   .     S
O299   Zn316   1.949   .     S
O299   C403    1.273   .     A
O300   Zn304   1.949   .     S
O300   C633    1.271   1_545 S
Zn301  O919    1.914   1_545 S
Zn303  O892    1.936   .     S
Zn306  O587    1.934   .     S
Zn308  O881    1.934   .     S
Zn309  O923    1.914   1_545 S
Zn310  O604    1.913   1_455 S
Zn311  O595    1.913   1_455 S
Zn312  O927    1.914   1_545 S
Zn313  O913    1.914   1_545 S
Zn314  O601    1.913   1_455 S
Zn315  O610    1.913   1_455 S
Zn316  O598    1.933   .     S
C317   O609    1.270   .     A
C317   C424    1.464   .     S
C317   O1248   1.271   .     S
C318   C400    1.421   .     S
C318   O579    1.275   .     A
C318   O607    1.276   .     A
C319   C371    1.454   .     S
C319   C443    1.418   .     A
C319   C322    1.409   1_554 S
C320   C372    1.453   .     S
C320   C444    1.419   .     A
C320   C467    1.409   1_556 S
C321   C374    1.453   .     S
C321   C1077   1.418   .     S
C321   C466    1.409   1_554 S
C322   C446    1.418   .     A
C322   C375    1.454   .     S
C322   C319    1.409   1_556 S
C323   C448    1.418   .     A
C323   C376    1.454   .     S
C323   C468    1.409   1_554 S
C324   H502    1.109   .     S
C324   C405    1.532   .     S
C324   C325    1.532   .     S
C324   H513    1.108   .     S
C325   H480    1.111   .     S
C325   H469    1.108   .     S
C325   H491    1.111   .     S
C326   H470    1.108   .     S
C326   H548    1.109   .     S
C326   C327    1.532   .     S
C326   C406    1.531   .     S
C327   H535    1.111   .     S
C327   H546    1.111   .     S
C327   H524    1.107   .     S
C328   C407    1.531   .     S
C328   H475    1.110   .     S
C328   H474    1.106   .     S
C328   C962    1.531   1_545 S
C329   C399    1.421   .     S
C329   O580    1.276   .     A
C329   O604    1.275   .     A
C330   H473    1.111   .     S
C330   H472    1.111   .     S
C330   H471    1.107   .     S
C330   C960    1.531   .     S
C331   H479    1.110   .     S
C331   H481    1.106   .     S
C331   C408    1.531   .     S
C331   C964    1.531   .     S
C332   H476    1.111   .     S
C332   H477    1.107   .     S
C332   C963    1.531   1_545 S
C332   H1110   1.111   1_545 S
C333   H486    1.108   .     S
C333   C334    1.532   .     S
C333   C409    1.531   .     S
C333   H485    1.109   .     S
C334   H482    1.108   .     S
C334   H483    1.111   .     S
C334   H484    1.111   .     S
C335   C336    1.532   .     S
C335   H492    1.108   .     S
C335   C410    1.531   .     S
C335   H490    1.109   .     S
C336   H488    1.111   .     S
C336   H487    1.107   .     S
C336   H489    1.111   .     S
C337   C411    1.530   .     S
C337   H497    1.110   .     S
C337   H496    1.106   .     S
C337   C970    1.531   .     S
C338   H493    1.107   .     S
C338   H494    1.111   .     S
C338   C969    1.531   1_545 S
C338   H1127   1.111   1_545 S
C339   H501    1.111   .     S
C339   H503    1.112   .     S
C339   C412    1.528   .     S
C339   C341    1.533   .     S
C340   O581    1.276   .     A
C340   O605    1.275   .     A
C340   C398    1.421   .     S
C341   H498    1.111   .     S
C341   H500    1.111   .     S
C341   H499    1.108   .     S
C342   H507    1.108   .     S
C342   C413    1.532   .     S
C342   C343    1.532   .     S
C342   H508    1.109   .     S
C343   H506    1.111   .     S
C343   H504    1.111   .     S
C343   H505    1.107   .     S
C344   C415    1.531   .     S
C344   H512    1.108   .     S
C344   C345    1.532   .     S
C344   H514    1.109   .     S
C345   H509    1.111   .     S
C345   H511    1.111   .     S
C345   H510    1.107   .     S
C346   H518    1.109   .     S
C346   C416    1.531   .     S
C346   H519    1.106   .     S
C346   C347    1.531   .     S
C347   H516    1.107   .     S
C347   H515    1.111   .     S
C347   H517    1.111   .     S
C348   H525    1.109   .     S
C348   C417    1.531   .     S
C348   C349    1.531   .     S
C348   H523    1.107   .     S
C349   H521    1.111   .     S
C349   H520    1.107   .     S
C349   H522    1.111   .     S
C350   C418    1.532   .     S
C350   H529    1.108   .     S
C350   C352    1.532   .     S
C350   H530    1.109   .     S
C351   O611    1.275   .     A
C351   C397    1.421   .     S
C351   O582    1.275   .     A
C352   H528    1.111   .     S
C352   H527    1.108   .     S
C352   H526    1.111   .     S
C353   H534    1.108   .     S
C353   C354    1.532   .     S
C353   H536    1.109   .     S
C353   C419    1.531   .     S
C354   H531    1.111   .     S
C354   H533    1.111   .     S
C354   H532    1.107   .     S
C355   H540    1.110   .     S
C355   C420    1.531   .     S
C355   C356    1.531   .     S
C355   H541    1.107   .     S
C356   H537    1.111   .     S
C356   H539    1.111   .     S
C356   H538    1.107   .     S
C357   H547    1.109   .     S
C357   H545    1.107   .     S
C357   C421    1.531   .     S
C357   C358    1.531   .     S
C358   H544    1.111   .     S
C358   H542    1.107   .     S
C358   H543    1.111   .     S
C359   N549    1.158   .     T
C359   C457    1.453   .     S
C360   C459    1.453   .     S
C360   N557    1.157   .     T
C361   C460    1.454   .     S
C361   N558    1.158   .     T
C362   O583    1.275   .     A
C362   O612    1.275   .     A
C362   C396    1.421   .     S
C363   N559    1.158   .     T
C363   C461    1.452   .     S
C364   N560    1.157   .     T
C364   C462    1.453   .     S
C365   N561    1.157   .     T
C365   C463    1.453   .     S
C366   N562    1.158   .     T
C366   C464    1.455   .     S
C367   N563    1.158   .     T
C367   C465    1.454   .     S
C368   C466    1.453   .     S
C368   N564    1.158   .     T
C369   N550    1.157   .     T
C369   C467    1.453   .     S
C370   C468    1.454   .     S
C370   N551    1.158   .     T
C371   N552    1.157   .     T
C372   N553    1.157   .     T
C373   O608    1.275   .     A
C373   O584    1.275   .     A
C373   C404    1.421   .     S
C374   N554    1.157   .     T
C375   N555    1.158   .     T
C376   N556    1.157   .     T
C377   O610    1.275   .     A
C377   O585    1.275   .     A
C377   C402    1.421   .     S
C378   C393    1.421   .     S
C378   O586    1.276   .     A
C378   O597    1.276   .     A
C379   C391    1.421   .     S
C379   O599    1.276   .     A
C379   O588    1.275   .     A
C380   O595    1.275   .     A
C380   O589    1.276   .     A
C380   C390    1.421   .     S
C381   O613    1.269   .     A
C381   C426    1.467   .     S
C381   O1198   1.274   1_545 S
C382   O596    1.275   .     A
C382   C389    1.421   .     S
C382   O590    1.276   .     A
C383   C388    1.421   .     S
C383   O602    1.275   .     A
C383   O591    1.275   .     A
C384   O603    1.275   .     A
C384   C387    1.421   .     S
C384   O592    1.275   .     A
C385   C395    1.421   .     S
C385   O600    1.275   .     A
C385   O593    1.275   .     A
C386   O594    1.275   .     A
C386   O601    1.275   .     A
C386   C394    1.421   .     S
C387   C404    1.198   .     T
C388   C402    1.198   .     T
C389   C401    1.198   .     T
C390   C400    1.198   .     T
C391   C399    1.198   .     T
C392   C422    1.470   .     S
C392   O614    1.272   .     A
C393   C398    1.198   .     T
C394   C397    1.197   .     T
C395   C396    1.197   .     T
C401   C458    1.421   .     S
C403   C423    1.475   .     S
C403   O568    1.273   .     S
C405   C435    1.415   .     A
C405   C106    1.420   1_655 S
C406   C423    1.422   .     A
C406   C437    1.415   .     A
C407   C438    1.418   .     A
C407   C1056   1.413   1_545 S
C408   C439    1.417   .     A
C408   C1058   1.413   .     S
C409   C422    1.420   .     A
C409   C431    1.415   .     A
C410   C432    1.415   .     A
C410   C107    1.422   1_655 S
C411   C424    1.414   .     A
C411   C433    1.418   .     A
C412   C426    1.416   .     A
C412   C434    1.420   .     A
C413   C444    1.415   .     A
C413   C1059   1.420   1_545 S
C414   C429    1.466   .     S
C414   O569    1.271   .     S
C414   O573    1.271   .     S
C415   C445    1.415   .     A
C415   C1060   1.422   1_545 S
C416   C446    1.417   .     A
C416   C113    1.416   1_655 S
C417   C448    1.417   .     A
C418   C427    1.420   .     A
C418   C440    1.415   .     A
C419   C428    1.422   .     A
C419   C441    1.415   .     A
C420   C429    1.416   .     A
C420   C442    1.417   .     A
C421   C443    1.417   .     A
C421   C430    1.416   .     A
C424   C1039   1.413   .     S
C425   O570    1.271   .     S
C425   O574    1.271   .     S
C426   C1040   1.413   1_545 S
C427   C1068   1.470   .     S
C427   C1045   1.420   .     S
C428   C1079   1.475   .     S
C428   C1047   1.422   .     S
C430   C109    1.467   1_655 S
C430   C101    1.416   1_655 S
C431   C457    1.419   .     A
C431   C449    1.411   .     S
C432   C459    1.418   .     A
C432   C134    1.409   1_655 S
C433   C460    1.417   .     A
C433   C1083   1.416   .     S
C434   C452    1.418   .     A
C434   C461    1.421   .     A
C435   C462    1.419   .     A
C435   C133    1.411   1_655 A
C436   C1059   1.470   1_545 S
C436   O571    1.272   .     S
C436   O575    1.272   .     S
C437   C463    1.418   .     A
C437   C450    1.409   .     A
C438   C464    1.415   .     A
C438   C451    1.415   .     A
C439   C465    1.418   .     A
C439   C1084   1.416   .     S
C440   C453    1.411   .     A
C440   C466    1.419   .     A
C441   C454    1.409   .     A
C441   C1099   1.418   .     S
C442   C468    1.418   .     A
C442   C455    1.415   .     A
C443   C456    1.414   .     A
C444   C1085   1.411   1_545 S
C445   C953    1.418   1_545 S
C445   C1086   1.409   1_545 S
C446   C139    1.415   1_655 S
C447   C1060   1.475   1_545 S
C447   O577    1.273   .     A
C447   O572    1.273   .     A
C449   C450    1.399   .     S
C451   C452    1.411   .     A
C451   C1065   1.416   1_545 S
C452   C1071   1.416   1_545 S
C453   C1076   1.411   .     S
C453   C454    1.399   1_556 S
C454   C1077   1.409   .     S
C454   C453    1.399   1_554 S
C455   C140    1.409   1_556 S
C456   C132    1.414   1_655 S
C456   C139    1.409   1_654 S
C457   C463    1.409   .     A
C458   O606    1.276   .     A
C458   O578    1.275   .     A
C459   C462    1.409   .     A
C460   C465    1.409   .     A
C461   C464    1.409   .     A
C466   C321    1.409   1_556 S
C467   C1073   1.418   1_545 S
C467   C320    1.409   1_554 S
C468   C323    1.409   1_556 S
H478   C964    1.111   .     S
H495   C970    1.111   .     S
O565   Zn617   1.933   .     S
O565   Zn628   1.934   .     S
O565   Zn620   1.936   .     S
O565   Zn1256  1.934   1_545 S
O566   Zn619   1.949   .     S
O566   C1013   1.274   .     S
O567   Zn622   1.949   .     S
O567   C76     1.272   1_655 S
O568   Zn621   1.949   .     S
O569   Zn631   1.950   .     S
O570   Zn630   1.950   .     S
O571   Zn625   1.949   .     S
O572   Zn617   1.949   .     S
O573   Zn627   1.949   .     S
O574   Zn626   1.949   .     S
O575   Zn629   1.949   .     S
O576   Zn629   1.934   .     S
O576   Zn625   1.933   .     S
O576   Zn623   1.934   .     S
O576   Zn1251  1.936   1_545 S
O577   Zn628   1.949   .     S
O578   Zn620   1.913   .     S
O579   Zn619   1.913   .     S
O580   Zn622   1.914   .     S
O581   Zn621   1.914   .     S
O582   Zn624   1.913   .     S
O583   Zn623   1.913   .     S
O584   Zn618   1.914   .     S
O585   Zn632   1.914   .     S
O586   Zn619   1.913   .     S
O587   Zn626   1.936   .     S
O587   Zn630   1.934   .     S
O587   Zn618   1.933   .     S
O588   Zn620   1.913   .     S
O589   Zn632   1.914   .     S
O590   Zn618   1.914   .     S
O591   Zn623   1.913   .     S
O592   Zn624   1.913   .     S
O593   Zn621   1.914   .     S
O594   Zn622   1.914   .     S
O595   Zn311   1.913   1_655 S
O596   Zn626   1.913   .     S
O597   Zn1261  1.914   .     S
O598   Zn621   1.934   .     S
O598   Zn627   1.936   .     S
O598   Zn631   1.934   .     S
O599   Zn628   1.914   .     S
O600   Zn631   1.913   .     S
O601   Zn314   1.913   1_655 S
O602   Zn625   1.914   .     S
O603   Zn1249  1.914   .     S
O604   Zn310   1.913   1_655 S
O605   Zn627   1.913   .     S
O606   Zn617   1.914   .     S
O607   Zn1257  1.914   .     S
O608   Zn630   1.913   .     S
O609   Zn624   1.950   .     S
O610   Zn315   1.913   1_655 S
O611   Zn1260  1.914   .     S
O612   Zn629   1.914   .     S
O613   Zn623   1.950   .     S
O614   Zn618   1.949   .     S
O615   Zn632   1.949   .     S
O615   C87     1.273   1_655 A
O616   Zn620   1.949   .     S
O616   C949    1.271   1_545 S
Zn617  O1235   1.914   1_545 S
Zn619  O1208   1.936   .     S
Zn622  O271    1.934   1_655 S
Zn624  O1197   1.934   .     S
Zn625  O1239   1.914   1_545 S
Zn628  O1243   1.914   1_545 S
Zn629  O1229   1.914   1_545 S
Zn632  O282    1.933   1_655 S
C633   O925    1.270   .     A
C633   C740    1.464   .     S
C633   O300    1.271   1_565 S
C634   C716    1.421   .     S
C634   O895    1.275   .     A
C634   O923    1.276   .     A
C635   C687    1.454   .     S
C635   C759    1.418   .     A
C635   C638    1.409   1_554 S
C636   C688    1.453   .     S
C636   C760    1.419   .     A
C636   C783    1.409   1_556 S
C637   C690    1.453   .     S
C637   C129    1.418   1_565 S
C637   C782    1.409   1_554 S
C638   C762    1.418   .     A
C638   C691    1.454   .     S
C638   C635    1.409   1_556 S
C639   C764    1.418   .     A
C639   C692    1.454   .     S
C639   C784    1.409   1_554 S
C640   H818    1.109   .     S
C640   C721    1.532   .     S
C640   C641    1.532   .     S
C640   H829    1.108   .     S
C641   H796    1.111   .     S
C641   H785    1.108   .     S
C641   H807    1.111   .     S
C642   H786    1.108   .     S
C642   H864    1.109   .     S
C642   C643    1.532   .     S
C642   C722    1.531   .     S
C643   H851    1.111   .     S
C643   H862    1.111   .     S
C643   H840    1.107   .     S
C644   C723    1.531   .     S
C644   H791    1.110   .     S
C644   H790    1.106   .     S
C645   C715    1.421   .     S
C645   O896    1.276   .     A
C645   O920    1.275   .     A
C646   H789    1.111   .     S
C646   H788    1.111   .     S
C646   H787    1.107   .     S
C646   C12     1.531   1_565 S
C647   H795    1.110   .     S
C647   H797    1.106   .     S
C647   C724    1.531   .     S
C647   C16     1.531   1_565 S
C648   H792    1.111   .     S
C648   H793    1.107   .     S
C649   H802    1.108   .     S
C649   C650    1.532   .     S
C649   C725    1.531   .     S
C649   H801    1.109   .     S
C650   H798    1.108   .     S
C650   H799    1.111   .     S
C650   H800    1.111   .     S
C651   C652    1.532   .     S
C651   H808    1.108   .     S
C651   C726    1.531   .     S
C651   H806    1.109   .     S
C652   H804    1.111   .     S
C652   H803    1.107   .     S
C652   H805    1.111   .     S
C653   C727    1.530   .     S
C653   H813    1.110   .     S
C653   H812    1.106   .     S
C653   C22     1.531   1_565 S
C654   H809    1.107   .     S
C654   H810    1.111   .     S
C655   H817    1.111   .     S
C655   H819    1.112   .     S
C655   C728    1.528   .     S
C655   C657    1.533   .     S
C656   O897    1.276   .     A
C656   O921    1.275   .     A
C656   C714    1.421   .     S
C657   H814    1.111   .     S
C657   H816    1.111   .     S
C657   H815    1.108   .     S
C658   H823    1.108   .     S
C658   C729    1.532   .     S
C658   C659    1.532   .     S
C658   H824    1.109   .     S
C659   H822    1.111   .     S
C659   H820    1.111   .     S
C659   H821    1.107   .     S
C660   C731    1.531   .     S
C660   H828    1.108   .     S
C660   C661    1.532   .     S
C660   H830    1.109   .     S
C661   H825    1.111   .     S
C661   H827    1.111   .     S
C661   H826    1.107   .     S
C662   H834    1.109   .     S
C662   C732    1.531   .     S
C662   H835    1.106   .     S
C662   C663    1.531   .     S
C663   H832    1.107   .     S
C663   H831    1.111   .     S
C663   H833    1.111   .     S
C664   H841    1.109   .     S
C664   C733    1.531   .     S
C664   C665    1.531   .     S
C664   H839    1.107   .     S
C665   H837    1.111   .     S
C665   H836    1.107   .     S
C665   H838    1.111   .     S
C666   C734    1.532   .     S
C666   H845    1.108   .     S
C666   C668    1.532   .     S
C666   H846    1.109   .     S
C667   O927    1.275   .     A
C667   C713    1.421   .     S
C667   O898    1.275   .     A
C668   H844    1.111   .     S
C668   H843    1.108   .     S
C668   H842    1.111   .     S
C669   H850    1.108   .     S
C669   C670    1.532   .     S
C669   H852    1.109   .     S
C669   C735    1.531   .     S
C670   H847    1.111   .     S
C670   H849    1.111   .     S
C670   H848    1.107   .     S
C671   H856    1.110   .     S
C671   C736    1.531   .     S
C671   C672    1.531   .     S
C671   H857    1.107   .     S
C672   H853    1.111   .     S
C672   H855    1.111   .     S
C672   H854    1.107   .     S
C673   H863    1.109   .     S
C673   H861    1.107   .     S
C673   C737    1.531   .     S
C673   C674    1.531   .     S
C674   H860    1.111   .     S
C674   H858    1.107   .     S
C674   H859    1.111   .     S
C675   N865    1.158   .     T
C675   C773    1.453   .     S
C676   C775    1.453   .     S
C676   N873    1.157   .     T
C677   C776    1.454   .     S
C677   N874    1.158   .     T
C678   O899    1.275   .     A
C678   O928    1.275   .     A
C678   C712    1.421   .     S
C679   N875    1.158   .     T
C679   C777    1.452   .     S
C680   N876    1.157   .     T
C680   C778    1.453   .     S
C681   N877    1.157   .     T
C681   C779    1.453   .     S
C682   N878    1.158   .     T
C682   C780    1.455   .     S
C683   N879    1.158   .     T
C683   C781    1.454   .     S
C684   C782    1.453   .     S
C684   N880    1.158   .     T
C685   N866    1.157   .     T
C685   C783    1.453   .     S
C686   C784    1.454   .     S
C686   N867    1.158   .     T
C687   N868    1.157   .     T
C688   N869    1.157   .     T
C689   O924    1.275   .     A
C689   O900    1.275   .     A
C689   C720    1.421   .     S
C690   N870    1.157   .     T
C691   N871    1.158   .     T
C692   N872    1.157   .     T
C693   O926    1.275   .     A
C693   O901    1.275   .     A
C693   C718    1.421   .     S
C694   C709    1.421   .     S
C694   O902    1.276   .     A
C694   O913    1.276   .     A
C695   C707    1.421   .     S
C695   O915    1.276   .     A
C695   O904    1.275   .     A
C696   O911    1.275   .     A
C696   O905    1.276   .     A
C696   C706    1.421   .     S
C697   O929    1.269   .     A
C697   C742    1.467   .     S
C698   O912    1.275   .     A
C698   C705    1.421   .     S
C698   O906    1.276   .     A
C699   C704    1.421   .     S
C699   O918    1.275   .     A
C699   O907    1.275   .     A
C700   O919    1.275   .     A
C700   C703    1.421   .     S
C700   O908    1.275   .     A
C701   C711    1.421   .     S
C701   O916    1.275   .     A
C701   O909    1.275   .     A
C702   O910    1.275   .     A
C702   O917    1.275   .     A
C702   C710    1.421   .     S
C703   C720    1.198   .     T
C704   C718    1.198   .     T
C705   C717    1.198   .     T
C706   C716    1.198   .     T
C707   C715    1.198   .     T
C708   C738    1.470   .     S
C708   O930    1.272   .     A
C708   O1199   1.272   1_455 S
C709   C714    1.198   .     T
C710   C713    1.197   .     T
C711   C712    1.197   .     T
C717   C774    1.421   .     S
C719   O1247   1.273   1_455 A
C719   C739    1.475   .     S
C719   O884    1.273   .     S
C721   C751    1.415   .     A
C721   C1054   1.420   .     S
C722   C739    1.422   .     A
C722   C753    1.415   .     A
C723   C754    1.418   .     A
C724   C755    1.417   .     A
C724   C110    1.413   1_565 S
C725   C738    1.420   .     A
C725   C747    1.415   .     A
C726   C748    1.415   .     A
C726   C1055   1.422   .     S
C727   C740    1.414   .     A
C727   C749    1.418   .     A
C728   C742    1.416   .     A
C728   C750    1.420   .     A
C729   C760    1.415   .     A
C730   C745    1.466   .     S
C730   O885    1.271   .     S
C730   O889    1.271   .     S
C731   C761    1.415   .     A
C732   C762    1.417   .     A
C732   C1061   1.416   .     S
C733   C764    1.417   .     A
C733   C1062   1.416   1_455 S
C734   C743    1.420   .     A
C734   C756    1.415   .     A
C735   C744    1.422   .     A
C735   C757    1.415   .     A
C736   C745    1.416   .     A
C736   C758    1.417   .     A
C737   C759    1.417   .     A
C737   C746    1.416   .     A
C738   C1037   1.420   1_455 S
C739   C1042   1.422   1_455 S
C740   C91     1.413   1_565 S
C741   C1062   1.467   1_455 S
C741   O886    1.271   .     S
C741   O890    1.271   .     S
C743   C120    1.470   1_565 S
C743   C97     1.420   1_565 S
C744   C131    1.475   1_565 S
C744   C99     1.422   1_565 S
C745   C1048   1.416   1_455 S
C746   C1057   1.467   .     S
C746   C1049   1.416   .     S
C747   C773    1.419   .     A
C747   C765    1.411   .     S
C748   C775    1.418   .     A
C748   C1082   1.409   .     S
C749   C776    1.417   .     A
C749   C135    1.416   1_565 S
C750   C768    1.418   .     A
C750   C777    1.421   .     A
C751   C778    1.419   .     A
C751   C1081   1.411   .     A
C752   O887    1.272   .     S
C752   O891    1.272   .     S
C753   C779    1.418   .     A
C753   C766    1.409   .     A
C754   C780    1.415   .     A
C754   C767    1.415   .     A
C755   C781    1.418   .     A
C755   C136    1.416   1_565 S
C756   C769    1.411   .     A
C756   C782    1.419   .     A
C757   C770    1.409   .     A
C757   C151    1.418   1_565 S
C758   C784    1.418   .     A
C758   C771    1.415   .     A
C759   C772    1.414   .     A
C762   C1087   1.415   .     S
C763   O893    1.273   .     A
C763   O888    1.273   .     A
C764   C1088   1.414   1_455 S
C765   C1067   1.411   1_455 A
C765   C766    1.399   .     S
C766   C1064   1.409   1_455 S
C767   C768    1.411   .     A
C769   C128    1.411   1_565 S
C769   C770    1.399   1_556 S
C770   C129    1.409   1_565 S
C770   C769    1.399   1_554 S
C771   C1078   1.415   1_455 S
C771   C1088   1.409   1_456 S
C772   C1080   1.414   .     S
C772   C1087   1.409   1_554 S
C773   C779    1.409   .     A
C774   O922    1.276   .     A
C774   O894    1.275   .     A
C775   C778    1.409   .     A
C776   C781    1.409   .     A
C777   C780    1.409   .     A
C782   C637    1.409   1_556 S
C783   C636    1.409   1_554 S
C784   C639    1.409   1_556 S
H794   C16     1.111   1_565 S
H811   C22     1.111   1_565 S
O881   Zn933   1.933   .     S
O881   Zn944   1.934   .     S
O881   Zn936   1.936   .     S
O882   Zn935   1.949   .     S
O882   C65     1.274   1_565 S
O883   Zn938   1.949   .     S
O883   C1024   1.272   .     S
O884   Zn937   1.949   .     S
O885   Zn947   1.950   .     S
O886   Zn946   1.950   .     S
O887   Zn941   1.949   .     S
O888   Zn933   1.949   .     S
O889   Zn943   1.949   .     S
O890   Zn942   1.949   .     S
O891   Zn945   1.949   .     S
O892   Zn945   1.934   .     S
O892   Zn941   1.933   .     S
O892   Zn939   1.934   .     S
O893   Zn944   1.949   .     S
O894   Zn936   1.913   .     S
O895   Zn935   1.913   .     S
O896   Zn938   1.914   .     S
O897   Zn937   1.914   .     S
O898   Zn940   1.913   .     S
O899   Zn939   1.913   .     S
O900   Zn934   1.914   .     S
O901   Zn948   1.914   .     S
O902   Zn935   1.913   .     S
O903   Zn942   1.936   .     S
O903   Zn946   1.934   .     S
O903   Zn934   1.933   .     S
O903   Zn1254  1.934   1_455 S
O904   Zn936   1.913   .     S
O905   Zn948   1.914   .     S
O906   Zn934   1.914   .     S
O907   Zn939   1.913   .     S
O908   Zn940   1.913   .     S
O909   Zn937   1.914   .     S
O910   Zn938   1.914   .     S
O911   Zn1259  1.913   .     S
O912   Zn942   1.913   .     S
O913   Zn313   1.914   1_565 S
O914   Zn937   1.934   .     S
O914   Zn943   1.936   .     S
O914   Zn947   1.934   .     S
O914   Zn1264  1.933   1_455 S
O915   Zn944   1.914   .     S
O916   Zn947   1.913   .     S
O917   Zn1262  1.913   .     S
O918   Zn941   1.914   .     S
O919   Zn301   1.914   1_565 S
O920   Zn1258  1.913   .     S
O921   Zn943   1.913   .     S
O922   Zn933   1.914   .     S
O923   Zn309   1.914   1_565 S
O924   Zn946   1.913   .     S
O925   Zn940   1.950   .     S
O926   Zn1263  1.913   .     S
O927   Zn312   1.914   1_565 S
O928   Zn945   1.914   .     S
O929   Zn939   1.950   .     S
O930   Zn934   1.949   .     S
O931   Zn948   1.949   .     S
O931   C1035   1.273   .     A
O932   Zn936   1.949   .     S
Zn935  O260    1.936   1_565 S
Zn938  O1219   1.934   .     S
Zn940  O249    1.934   1_565 S
Zn942  O1236   1.913   1_455 S
Zn943  O1227   1.913   1_455 S
Zn946  O1233   1.913   1_455 S
Zn947  O1242   1.913   1_455 S
Zn948  O1230   1.933   .     S
C949   O1241   1.270   .     A
C949   C1056   1.464   .     S
C949   O616    1.271   1_565 S
C950   C1032   1.421   .     S
C950   O1211   1.275   .     A
C950   O1239   1.276   .     A
C951   C1003   1.454   .     S
C951   C1075   1.418   .     A
C951   C954    1.409   1_554 S
C952   C1004   1.453   .     S
C952   C1076   1.419   .     A
C952   C1099   1.409   1_556 S
C953   C1006   1.453   .     S
C953   C445    1.418   1_565 S
C953   C1098   1.409   1_554 S
C954   C1078   1.418   .     A
C954   C1007   1.454   .     S
C954   C951    1.409   1_556 S
C955   C1080   1.418   .     A
C955   C1008   1.454   .     S
C955   C1100   1.409   1_554 S
C956   H1134   1.109   .     S
C956   C1037   1.532   .     S
C956   C957    1.532   .     S
C956   H1145   1.108   .     S
C957   H1112   1.111   .     S
C957   H1101   1.108   .     S
C957   H1123   1.111   .     S
C958   H1102   1.108   .     S
C958   H1180   1.109   .     S
C958   C959    1.532   .     S
C958   C1038   1.531   .     S
C959   H1167   1.111   .     S
C959   H1178   1.111   .     S
C959   H1156   1.107   .     S
C960   C1039   1.531   .     S
C960   H1107   1.110   .     S
C960   H1106   1.106   .     S
C961   C1031   1.421   .     S
C961   O1212   1.276   .     A
C961   O1236   1.275   .     A
C962   H1105   1.111   .     S
C962   H1104   1.111   .     S
C962   H1103   1.107   .     S
C962   C328    1.531   1_565 S
C963   H1111   1.110   .     S
C963   H1113   1.106   .     S
C963   C1040   1.531   .     S
C963   C332    1.531   1_565 S
C964   H1108   1.111   .     S
C964   H1109   1.107   .     S
C965   H1118   1.108   .     S
C965   C966    1.532   .     S
C965   C1041   1.531   .     S
C965   H1117   1.109   .     S
C966   H1114   1.108   .     S
C966   H1115   1.111   .     S
C966   H1116   1.111   .     S
C967   C968    1.532   .     S
C967   H1124   1.108   .     S
C967   C1042   1.531   .     S
C967   H1122   1.109   .     S
C968   H1120   1.111   .     S
C968   H1119   1.107   .     S
C968   H1121   1.111   .     S
C969   C1043   1.530   .     S
C969   H1129   1.110   .     S
C969   H1128   1.106   .     S
C969   C338    1.531   1_565 S
C970   H1125   1.107   .     S
C970   H1126   1.111   .     S
C971   H1133   1.111   .     S
C971   H1135   1.112   .     S
C971   C1044   1.528   .     S
C971   C973    1.533   .     S
C972   O1213   1.276   .     A
C972   O1237   1.275   .     A
C972   C1030   1.421   .     S
C973   H1130   1.111   .     S
C973   H1132   1.111   .     S
C973   H1131   1.108   .     S
C974   H1139   1.108   .     S
C974   C1045   1.532   .     S
C974   C975    1.532   .     S
C974   H1140   1.109   .     S
C975   H1138   1.111   .     S
C975   H1136   1.111   .     S
C975   H1137   1.107   .     S
C976   C1047   1.531   .     S
C976   H1144   1.108   .     S
C976   C977    1.532   .     S
C976   H1146   1.109   .     S
C977   H1141   1.111   .     S
C977   H1143   1.111   .     S
C977   H1142   1.107   .     S
C978   H1150   1.109   .     S
C978   C1048   1.531   .     S
C978   H1151   1.106   .     S
C978   C979    1.531   .     S
C979   H1148   1.107   .     S
C979   H1147   1.111   .     S
C979   H1149   1.111   .     S
C980   H1157   1.109   .     S
C980   C1049   1.531   .     S
C980   C981    1.531   .     S
C980   H1155   1.107   .     S
C981   H1153   1.111   .     S
C981   H1152   1.107   .     S
C981   H1154   1.111   .     S
C982   C1050   1.532   .     S
C982   H1161   1.108   .     S
C982   C984    1.532   .     S
C982   H1162   1.109   .     S
C983   O1243   1.275   .     A
C983   C1029   1.421   .     S
C983   O1214   1.275   .     A
C984   H1160   1.111   .     S
C984   H1159   1.108   .     S
C984   H1158   1.111   .     S
C985   H1166   1.108   .     S
C985   C986    1.532   .     S
C985   H1168   1.109   .     S
C985   C1051   1.531   .     S
C986   H1163   1.111   .     S
C986   H1165   1.111   .     S
C986   H1164   1.107   .     S
C987   H1172   1.110   .     S
C987   C1052   1.531   .     S
C987   C988    1.531   .     S
C987   H1173   1.107   .     S
C988   H1169   1.111   .     S
C988   H1171   1.111   .     S
C988   H1170   1.107   .     S
C989   H1179   1.109   .     S
C989   H1177   1.107   .     S
C989   C1053   1.531   .     S
C989   C990    1.531   .     S
C990   H1176   1.111   .     S
C990   H1174   1.107   .     S
C990   H1175   1.111   .     S
C991   N1181   1.158   .     T
C991   C1089   1.453   .     S
C992   C1091   1.453   .     S
C992   N1189   1.157   .     T
C993   C1092   1.454   .     S
C993   N1190   1.158   .     T
C994   O1215   1.275   .     A
C994   O1244   1.275   .     A
C994   C1028   1.421   .     S
C995   N1191   1.158   .     T
C995   C1093   1.452   .     S
C996   N1192   1.157   .     T
C996   C1094   1.453   .     S
C997   N1193   1.157   .     T
C997   C1095   1.453   .     S
C998   N1194   1.158   .     T
C998   C1096   1.455   .     S
C999   N1195   1.158   .     T
C999   C1097   1.454   .     S
C1000  C1098   1.453   .     S
C1000  N1196   1.158   .     T
C1001  N1182   1.157   .     T
C1001  C1099   1.453   .     S
C1002  C1100   1.454   .     S
C1002  N1183   1.158   .     T
C1003  N1184   1.157   .     T
C1004  N1185   1.157   .     T
C1005  O1240   1.275   .     A
C1005  O1216   1.275   .     A
C1005  C1036   1.421   .     S
C1006  N1186   1.157   .     T
C1007  N1187   1.158   .     T
C1008  N1188   1.157   .     T
C1009  O1242   1.275   .     A
C1009  O1217   1.275   .     A
C1009  C1034   1.421   .     S
C1010  C1025   1.421   .     S
C1010  O1218   1.276   .     A
C1010  O1229   1.276   .     A
C1011  C1023   1.421   .     S
C1011  O1231   1.276   .     A
C1011  O1220   1.275   .     A
C1012  O1227   1.275   .     A
C1012  O1221   1.276   .     A
C1012  C1022   1.421   .     S
C1013  O1245   1.269   .     A
C1013  C1058   1.467   .     S
C1014  O1228   1.275   .     A
C1014  C1021   1.421   .     S
C1014  O1222   1.276   .     A
C1015  C1020   1.421   .     S
C1015  O1234   1.275   .     A
C1015  O1223   1.275   .     A
C1016  O1235   1.275   .     A
C1016  C1019   1.421   .     S
C1016  O1224   1.275   .     A
C1017  C1027   1.421   .     S
C1017  O1232   1.275   .     A
C1017  O1225   1.275   .     A
C1018  O1226   1.275   .     A
C1018  O1233   1.275   .     A
C1018  C1026   1.421   .     S
C1019  C1036   1.198   .     T
C1020  C1034   1.198   .     T
C1021  C1033   1.198   .     T
C1022  C1032   1.198   .     T
C1023  C1031   1.198   .     T
C1024  C1054   1.470   .     S
C1024  O1246   1.272   .     A
C1025  C1030   1.198   .     T
C1026  C1029   1.197   .     T
C1027  C1028   1.197   .     T
C1033  C1090   1.421   .     S
C1035  C1055   1.475   .     S
C1035  O1200   1.273   .     S
C1037  C1067   1.415   .     A
C1037  C738    1.420   1_655 S
C1038  C1055   1.422   .     A
C1038  C1069   1.415   .     A
C1039  C1070   1.418   .     A
C1040  C1071   1.417   .     A
C1040  C426    1.413   1_565 S
C1041  C1054   1.420   .     A
C1041  C1063   1.415   .     A
C1042  C1064   1.415   .     A
C1042  C739    1.422   1_655 S
C1043  C1056   1.414   .     A
C1043  C1065   1.418   .     A
C1044  C1058   1.416   .     A
C1044  C1066   1.420   .     A
C1045  C1076   1.415   .     A
C1046  C1061   1.466   .     S
C1046  O1201   1.271   .     S
C1046  O1205   1.271   .     S
C1047  C1077   1.415   .     A
C1048  C1078   1.417   .     A
C1048  C745    1.416   1_655 S
C1049  C1080   1.417   .     A
C1050  C1059   1.420   .     A
C1050  C1072   1.415   .     A
C1051  C1060   1.422   .     A
C1051  C1073   1.415   .     A
C1052  C1061   1.416   .     A
C1052  C1074   1.417   .     A
C1053  C1075   1.417   .     A
C1053  C1062   1.416   .     A
C1056  C407    1.413   1_565 S
C1057  O1202   1.271   .     S
C1057  O1206   1.271   .     S
C1059  C436    1.470   1_565 S
C1059  C413    1.420   1_565 S
C1060  C447    1.475   1_565 S
C1060  C415    1.422   1_565 S
C1062  C741    1.467   1_655 S
C1062  C733    1.416   1_655 S
C1063  C1089   1.419   .     A
C1063  C1081   1.411   .     S
C1064  C1091   1.418   .     A
C1064  C766    1.409   1_655 S
C1065  C1092   1.417   .     A
C1065  C451    1.416   1_565 S
C1066  C1084   1.418   .     A
C1066  C1093   1.421   .     A
C1067  C1094   1.419   .     A
C1067  C765    1.411   1_655 A
C1068  O1203   1.272   .     S
C1068  O1207   1.272   .     S
C1069  C1095   1.418   .     A
C1069  C1082   1.409   .     A
C1070  C1096   1.415   .     A
C1070  C1083   1.415   .     A
C1071  C1097   1.418   .     A
C1071  C452    1.416   1_565 S
C1072  C1085   1.411   .     A
C1072  C1098   1.419   .     A
C1073  C1086   1.409   .     A
C1073  C467    1.418   1_565 S
C1074  C1100   1.418   .     A
C1074  C1087   1.415   .     A
C1075  C1088   1.414   .     A
C1078  C771    1.415   1_655 S
C1079  O1209   1.273   .     A
C1079  O1204   1.273   .     A
C1081  C1082   1.399   .     S
C1083  C1084   1.411   .     A
C1085  C444    1.411   1_565 S
C1085  C1086   1.399   1_556 S
C1086  C445    1.409   1_565 S
C1086  C1085   1.399   1_554 S
C1087  C772    1.409   1_556 S
C1088  C764    1.414   1_655 S
C1088  C771    1.409   1_654 S
C1089  C1095   1.409   .     A
C1090  O1238   1.276   .     A
C1090  O1210   1.275   .     A
C1091  C1094   1.409   .     A
C1092  C1097   1.409   .     A
C1093  C1096   1.409   .     A
C1098  C953    1.409   1_556 S
C1099  C952    1.409   1_554 S
C1100  C955    1.409   1_556 S
H1110  C332    1.111   1_565 S
H1127  C338    1.111   1_565 S
O1197  Zn1249  1.933   .     S
O1197  Zn1260  1.934   .     S
O1197  Zn1252  1.936   .     S
O1198  Zn1251  1.949   .     S
O1198  C381    1.274   1_565 S
O1199  Zn1254  1.949   .     S
O1199  C708    1.272   1_655 S
O1200  Zn1253  1.949   .     S
O1201  Zn1263  1.950   .     S
O1202  Zn1262  1.950   .     S
O1203  Zn1257  1.949   .     S
O1204  Zn1249  1.949   .     S
O1205  Zn1259  1.949   .     S
O1206  Zn1258  1.949   .     S
O1207  Zn1261  1.949   .     S
O1208  Zn1261  1.934   .     S
O1208  Zn1257  1.933   .     S
O1208  Zn1255  1.934   .     S
O1209  Zn1260  1.949   .     S
O1210  Zn1252  1.913   .     S
O1211  Zn1251  1.913   .     S
O1212  Zn1254  1.914   .     S
O1213  Zn1253  1.914   .     S
O1214  Zn1256  1.913   .     S
O1215  Zn1255  1.913   .     S
O1216  Zn1250  1.914   .     S
O1217  Zn1264  1.914   .     S
O1218  Zn1251  1.913   .     S
O1219  Zn1258  1.936   .     S
O1219  Zn1262  1.934   .     S
O1219  Zn1250  1.933   .     S
O1220  Zn1252  1.913   .     S
O1221  Zn1264  1.914   .     S
O1222  Zn1250  1.914   .     S
O1223  Zn1255  1.913   .     S
O1224  Zn1256  1.913   .     S
O1225  Zn1253  1.914   .     S
O1226  Zn1254  1.914   .     S
O1227  Zn943   1.913   1_655 S
O1228  Zn1258  1.913   .     S
O1229  Zn629   1.914   1_565 S
O1230  Zn1253  1.934   .     S
O1230  Zn1259  1.936   .     S
O1230  Zn1263  1.934   .     S
O1231  Zn1260  1.914   .     S
O1232  Zn1263  1.913   .     S
O1233  Zn946   1.913   1_655 S
O1234  Zn1257  1.914   .     S
O1235  Zn617   1.914   1_565 S
O1236  Zn942   1.913   1_655 S
O1237  Zn1259  1.913   .     S
O1238  Zn1249  1.914   .     S
O1239  Zn625   1.914   1_565 S
O1240  Zn1262  1.913   .     S
O1241  Zn1256  1.950   .     S
O1242  Zn947   1.913   1_655 S
O1243  Zn628   1.914   1_565 S
O1244  Zn1261  1.914   .     S
O1245  Zn1255  1.950   .     S
O1246  Zn1250  1.949   .     S
O1247  Zn1264  1.949   .     S
O1247  C719    1.273   1_655 A
O1248  Zn1252  1.949   .     S
Zn1251 O576    1.936   1_565 S
Zn1254 O903    1.934   1_655 S
Zn1256 O565    1.934   1_565 S
Zn1264 O914    1.933   1_655 S
