data_str_m2_o1_o2_pcu_sym.149
_audit_creation_date              2020-01-03
_audit_creation_method            'Materials Studio'
_symmetry_space_group_name_H-M    'P1'
_symmetry_Int_Tables_number       1
_symmetry_cell_setting            triclinic
loop_
_symmetry_equiv_pos_as_xyz
  x,y,z
_cell_length_a                    32.5807
_cell_length_b                    28.5711
_cell_length_c                    30.2722
_cell_angle_alpha                 89.6664
_cell_angle_beta                  89.7910
_cell_angle_gamma                 89.8143
loop_
_atom_site_label
_atom_site_type_symbol
_atom_site_fract_x
_atom_site_fract_y
_atom_site_fract_z
_atom_site_U_iso_or_equiv
_atom_site_adp_type
_atom_site_occupancy
C1     C     0.08748   0.16657   0.24993   0.00000  Uiso   1.00
C2     C     0.24598   0.16663   0.25034   0.00000  Uiso   1.00
C3     C     0.16590   0.16685   0.16482   0.00000  Uiso   1.00
C4     C     0.16659   0.16668   0.33485   0.00000  Uiso   1.00
C5     C     0.13855   0.02509   0.22593   0.00000  Uiso   1.00
C6     C     0.19430   0.30825   0.27472   0.00000  Uiso   1.00
C7     C     0.19414   0.02445   0.27484   0.00000  Uiso   1.00
C8     C     0.13876   0.30886   0.22564   0.00000  Uiso   1.00
C9     C     0.02170   0.13498   0.27790   0.00000  Uiso   1.00
C10    C     0.31223   0.19713   0.22180   0.00000  Uiso   1.00
C11    C     0.31222   0.13537   0.27826   0.00000  Uiso   1.00
C12    C     0.02169   0.19576   0.22053   0.00000  Uiso   1.00
C13    C     0.18466   0.20151   0.04573   0.00000  Uiso   1.00
C14    C     0.12587   0.16807   0.45134   0.00000  Uiso   1.00
C15    C     0.20022   0.16660   0.45300   0.00000  Uiso   1.00
C16    C     0.13911   0.13496   0.04716   0.00000  Uiso   1.00
C17    C     0.18514   0.20241   0.09178   0.00000  Uiso   1.00
C18    C     0.12632   0.16936   0.40487   0.00000  Uiso   1.00
C19    C     0.20168   0.16711   0.40704   0.00000  Uiso   1.00
C20    C     0.14065   0.13371   0.09333   0.00000  Uiso   1.00
C21    C     0.16400   0.16751   0.11616   0.00000  Uiso   1.00
C22    C     0.16478   0.16731   0.38293   0.00000  Uiso   1.00
C23    C     0.16187   0.16793   0.02343   0.00000  Uiso   1.00
C24    C     0.16257   0.16704   0.47512   0.00000  Uiso   1.00
C25    C     0.29072   0.16660   0.25039   0.00000  Uiso   1.00
C26    C     0.04299   0.16598   0.24966   0.00000  Uiso   1.00
Cu27   Cu    0.16667   0.21355   0.25000   0.00000  Uiso   1.00
Cu28   Cu    0.16667   0.11978   0.25000   0.00000  Uiso   1.00
H29    H     0.11570   0.04405   0.20719   0.00000  Uiso   1.00
H30    H     0.21648   0.28943   0.29455   0.00000  Uiso   1.00
H31    H     0.21570   0.04271   0.29524   0.00000  Uiso   1.00
H32    H     0.11653   0.29055   0.20595   0.00000  Uiso   1.00
H33    H     0.20173   0.22766   0.02726   0.00000  Uiso   1.00
H34    H     0.09730   0.16922   0.46960   0.00000  Uiso   1.00
H35    H     0.22861   0.16609   0.47157   0.00000  Uiso   1.00
H36    H     0.12100   0.10928   0.02972   0.00000  Uiso   1.00
N37    N     0.16667   0.28402   0.25000   0.00000  Uiso   1.00
N38    N     0.16667   0.04931   0.25000   0.00000  Uiso   1.00
O39    O     0.10655   0.20625   0.24999   0.00000  Uiso   1.00
O40    O     0.22679   0.12709   0.25000   0.00000  Uiso   1.00
O41    O     0.22679   0.20625   0.25000   0.00000  Uiso   1.00
O42    O     0.10655   0.12709   0.24999   0.00000  Uiso   1.00
O43    O     0.16666   0.20626   0.18573   0.00000  Uiso   1.00
O44    O     0.16667   0.12707   0.31427   0.00000  Uiso   1.00
O45    O     0.16667   0.20626   0.31427   0.00000  Uiso   1.00
O46    O     0.16666   0.12707   0.18573   0.00000  Uiso   1.00
N47    N     0.20820   0.23767   0.11319   0.00000  Uiso   1.00
H48    H     0.23707   0.24172   0.09962   0.00000  Uiso   1.00
C49    C     0.18707   0.28211   0.11649   0.00000  Uiso   1.00
H50    H     0.18370   0.29829   0.08323   0.00000  Uiso   1.00
H51    H     0.20505   0.30602   0.13770   0.00000  Uiso   1.00
H52    H     0.15619   0.27751   0.13153   0.00000  Uiso   1.00
N53    N     0.08909   0.17274   0.37980   0.00000  Uiso   1.00
H54    H     0.09151   0.18881   0.34934   0.00000  Uiso   1.00
C55    C     0.05034   0.18177   0.40188   0.00000  Uiso   1.00
H56    H     0.05162   0.21552   0.41987   0.00000  Uiso   1.00
H57    H     0.04277   0.15257   0.42485   0.00000  Uiso   1.00
H58    H     0.02540   0.18397   0.37703   0.00000  Uiso   1.00
N59    N     0.24043   0.16727   0.38525   0.00000  Uiso   1.00
H60    H     0.26235   0.14758   0.40147   0.00000  Uiso   1.00
C61    C     0.25564   0.21344   0.37436   0.00000  Uiso   1.00
H62    H     0.26248   0.23312   0.40501   0.00000  Uiso   1.00
H63    H     0.23286   0.23328   0.35453   0.00000  Uiso   1.00
H64    H     0.28425   0.21020   0.35455   0.00000  Uiso   1.00
N65    N     0.11726   0.09950   0.11650   0.00000  Uiso   1.00
H66    H     0.08658   0.10063   0.10826   0.00000  Uiso   1.00
C67    C     0.13379   0.05257   0.11322   0.00000  Uiso   1.00
H68    H     0.13530   0.04125   0.07820   0.00000  Uiso   1.00
H69    H     0.11362   0.02774   0.13130   0.00000  Uiso   1.00
H70    H     0.16498   0.05111   0.12786   0.00000  Uiso   1.00
Br71   Br    0.05045   0.09161   0.31653   0.00000  Uiso   1.00
Br72   Br    0.28398   0.24009   0.18289   0.00000  Uiso   1.00
Br73   Br    0.28403   0.09441   0.31910   0.00000  Uiso   1.00
Br74   Br    0.05061   0.23092   0.17535   0.00000  Uiso   1.00
C75    C     0.42081   0.16657   0.24993   0.00000  Uiso   1.00
C76    C     0.57932   0.16663   0.25034   0.00000  Uiso   1.00
C77    C     0.49923   0.16685   0.16482   0.00000  Uiso   1.00
C78    C     0.49993   0.16668   0.33485   0.00000  Uiso   1.00
C79    C     0.47189   0.02509   0.22593   0.00000  Uiso   1.00
C80    C     0.52764   0.30825   0.27472   0.00000  Uiso   1.00
C81    C     0.52748   0.02445   0.27484   0.00000  Uiso   1.00
C82    C     0.47209   0.30886   0.22564   0.00000  Uiso   1.00
C83    C     0.35503   0.13498   0.27790   0.00000  Uiso   1.00
C84    C     0.64556   0.19713   0.22180   0.00000  Uiso   1.00
C85    C     0.64555   0.13537   0.27826   0.00000  Uiso   1.00
C86    C     0.35502   0.19576   0.22053   0.00000  Uiso   1.00
C87    C     0.51800   0.20151   0.04573   0.00000  Uiso   1.00
C88    C     0.45920   0.16807   0.45134   0.00000  Uiso   1.00
C89    C     0.53355   0.16660   0.45300   0.00000  Uiso   1.00
C90    C     0.47245   0.13496   0.04716   0.00000  Uiso   1.00
C91    C     0.51847   0.20241   0.09178   0.00000  Uiso   1.00
C92    C     0.45966   0.16936   0.40487   0.00000  Uiso   1.00
C93    C     0.53501   0.16711   0.40704   0.00000  Uiso   1.00
C94    C     0.47398   0.13371   0.09333   0.00000  Uiso   1.00
C95    C     0.49734   0.16751   0.11616   0.00000  Uiso   1.00
C96    C     0.49812   0.16731   0.38293   0.00000  Uiso   1.00
C97    C     0.49521   0.16793   0.02343   0.00000  Uiso   1.00
C98    C     0.49591   0.16704   0.47512   0.00000  Uiso   1.00
C99    C     0.62405   0.16660   0.25039   0.00000  Uiso   1.00
C100   C     0.37632   0.16598   0.24966   0.00000  Uiso   1.00
Cu101  Cu    0.50000   0.21355   0.25000   0.00000  Uiso   1.00
Cu102  Cu    0.50000   0.11978   0.25000   0.00000  Uiso   1.00
H103   H     0.44903   0.04405   0.20719   0.00000  Uiso   1.00
H104   H     0.54981   0.28943   0.29455   0.00000  Uiso   1.00
H105   H     0.54903   0.04271   0.29524   0.00000  Uiso   1.00
H106   H     0.44987   0.29055   0.20595   0.00000  Uiso   1.00
H107   H     0.53507   0.22766   0.02726   0.00000  Uiso   1.00
H108   H     0.43064   0.16922   0.46960   0.00000  Uiso   1.00
H109   H     0.56195   0.16609   0.47157   0.00000  Uiso   1.00
H110   H     0.45434   0.10928   0.02972   0.00000  Uiso   1.00
N111   N     0.50000   0.28402   0.25000   0.00000  Uiso   1.00
N112   N     0.50000   0.04931   0.25000   0.00000  Uiso   1.00
O113   O     0.43988   0.20625   0.24999   0.00000  Uiso   1.00
O114   O     0.56012   0.12709   0.25000   0.00000  Uiso   1.00
O115   O     0.56012   0.20625   0.25000   0.00000  Uiso   1.00
O116   O     0.43988   0.12709   0.24999   0.00000  Uiso   1.00
O117   O     0.50000   0.20626   0.18573   0.00000  Uiso   1.00
O118   O     0.50000   0.12707   0.31427   0.00000  Uiso   1.00
O119   O     0.50000   0.20626   0.31427   0.00000  Uiso   1.00
O120   O     0.50000   0.12707   0.18573   0.00000  Uiso   1.00
N121   N     0.54153   0.23767   0.11319   0.00000  Uiso   1.00
H122   H     0.57040   0.24172   0.09962   0.00000  Uiso   1.00
C123   C     0.52040   0.28211   0.11649   0.00000  Uiso   1.00
H124   H     0.51703   0.29829   0.08323   0.00000  Uiso   1.00
H125   H     0.53839   0.30602   0.13770   0.00000  Uiso   1.00
H126   H     0.48952   0.27751   0.13153   0.00000  Uiso   1.00
N127   N     0.42242   0.17274   0.37980   0.00000  Uiso   1.00
H128   H     0.42485   0.18881   0.34934   0.00000  Uiso   1.00
C129   C     0.38368   0.18177   0.40188   0.00000  Uiso   1.00
H130   H     0.38495   0.21552   0.41987   0.00000  Uiso   1.00
H131   H     0.37610   0.15257   0.42485   0.00000  Uiso   1.00
H132   H     0.35874   0.18397   0.37703   0.00000  Uiso   1.00
N133   N     0.57376   0.16727   0.38525   0.00000  Uiso   1.00
H134   H     0.59569   0.14758   0.40147   0.00000  Uiso   1.00
C135   C     0.58897   0.21344   0.37436   0.00000  Uiso   1.00
H136   H     0.59581   0.23312   0.40501   0.00000  Uiso   1.00
H137   H     0.56620   0.23328   0.35453   0.00000  Uiso   1.00
H138   H     0.61758   0.21020   0.35455   0.00000  Uiso   1.00
N139   N     0.45060   0.09950   0.11650   0.00000  Uiso   1.00
H140   H     0.41991   0.10063   0.10826   0.00000  Uiso   1.00
C141   C     0.46712   0.05257   0.11322   0.00000  Uiso   1.00
H142   H     0.46863   0.04125   0.07820   0.00000  Uiso   1.00
H143   H     0.44695   0.02774   0.13130   0.00000  Uiso   1.00
H144   H     0.49832   0.05111   0.12786   0.00000  Uiso   1.00
Br145  Br    0.38379   0.09161   0.31653   0.00000  Uiso   1.00
Br146  Br    0.61731   0.24009   0.18289   0.00000  Uiso   1.00
Br147  Br    0.61736   0.09441   0.31910   0.00000  Uiso   1.00
Br148  Br    0.38394   0.23092   0.17535   0.00000  Uiso   1.00
C149   C     0.75414   0.16657   0.24993   0.00000  Uiso   1.00
C150   C     0.91265   0.16663   0.25034   0.00000  Uiso   1.00
C151   C     0.83256   0.16685   0.16482   0.00000  Uiso   1.00
C152   C     0.83326   0.16668   0.33485   0.00000  Uiso   1.00
C153   C     0.80522   0.02509   0.22593   0.00000  Uiso   1.00
C154   C     0.86097   0.30825   0.27472   0.00000  Uiso   1.00
C155   C     0.86081   0.02445   0.27484   0.00000  Uiso   1.00
C156   C     0.80543   0.30886   0.22564   0.00000  Uiso   1.00
C157   C     0.68837   0.13498   0.27790   0.00000  Uiso   1.00
C158   C     0.97889   0.19713   0.22180   0.00000  Uiso   1.00
C159   C     0.97888   0.13537   0.27826   0.00000  Uiso   1.00
C160   C     0.68835   0.19576   0.22053   0.00000  Uiso   1.00
C161   C     0.85133   0.20151   0.04573   0.00000  Uiso   1.00
C162   C     0.79254   0.16807   0.45134   0.00000  Uiso   1.00
C163   C     0.86689   0.16660   0.45300   0.00000  Uiso   1.00
C164   C     0.80578   0.13496   0.04716   0.00000  Uiso   1.00
C165   C     0.85180   0.20241   0.09178   0.00000  Uiso   1.00
C166   C     0.79299   0.16936   0.40487   0.00000  Uiso   1.00
C167   C     0.86835   0.16711   0.40704   0.00000  Uiso   1.00
C168   C     0.80732   0.13371   0.09333   0.00000  Uiso   1.00
C169   C     0.83067   0.16751   0.11616   0.00000  Uiso   1.00
C170   C     0.83145   0.16731   0.38293   0.00000  Uiso   1.00
C171   C     0.82854   0.16793   0.02343   0.00000  Uiso   1.00
C172   C     0.82924   0.16704   0.47512   0.00000  Uiso   1.00
C173   C     0.95739   0.16660   0.25039   0.00000  Uiso   1.00
C174   C     0.70965   0.16598   0.24966   0.00000  Uiso   1.00
Cu175  Cu    0.83333   0.21355   0.25000   0.00000  Uiso   1.00
Cu176  Cu    0.83333   0.11978   0.25000   0.00000  Uiso   1.00
H177   H     0.78236   0.04405   0.20719   0.00000  Uiso   1.00
H178   H     0.88314   0.28943   0.29455   0.00000  Uiso   1.00
H179   H     0.88236   0.04271   0.29524   0.00000  Uiso   1.00
H180   H     0.78320   0.29055   0.20595   0.00000  Uiso   1.00
H181   H     0.86840   0.22766   0.02726   0.00000  Uiso   1.00
H182   H     0.76397   0.16922   0.46960   0.00000  Uiso   1.00
H183   H     0.89528   0.16609   0.47157   0.00000  Uiso   1.00
H184   H     0.78767   0.10928   0.02972   0.00000  Uiso   1.00
N185   N     0.83333   0.28402   0.25000   0.00000  Uiso   1.00
N186   N     0.83333   0.04931   0.25000   0.00000  Uiso   1.00
O187   O     0.77321   0.20625   0.24999   0.00000  Uiso   1.00
O188   O     0.89345   0.12709   0.25000   0.00000  Uiso   1.00
O189   O     0.89345   0.20625   0.25000   0.00000  Uiso   1.00
O190   O     0.77321   0.12709   0.24999   0.00000  Uiso   1.00
O191   O     0.83333   0.20626   0.18573   0.00000  Uiso   1.00
O192   O     0.83334   0.12707   0.31427   0.00000  Uiso   1.00
O193   O     0.83334   0.20626   0.31427   0.00000  Uiso   1.00
O194   O     0.83333   0.12707   0.18573   0.00000  Uiso   1.00
N195   N     0.87487   0.23767   0.11319   0.00000  Uiso   1.00
H196   H     0.90374   0.24172   0.09962   0.00000  Uiso   1.00
C197   C     0.85374   0.28211   0.11649   0.00000  Uiso   1.00
H198   H     0.85037   0.29829   0.08323   0.00000  Uiso   1.00
H199   H     0.87172   0.30602   0.13770   0.00000  Uiso   1.00
H200   H     0.82285   0.27751   0.13153   0.00000  Uiso   1.00
N201   N     0.75575   0.17274   0.37980   0.00000  Uiso   1.00
H202   H     0.75818   0.18881   0.34934   0.00000  Uiso   1.00
C203   C     0.71701   0.18177   0.40188   0.00000  Uiso   1.00
H204   H     0.71828   0.21552   0.41987   0.00000  Uiso   1.00
H205   H     0.70943   0.15257   0.42485   0.00000  Uiso   1.00
H206   H     0.69207   0.18397   0.37703   0.00000  Uiso   1.00
N207   N     0.90709   0.16727   0.38525   0.00000  Uiso   1.00
H208   H     0.92902   0.14758   0.40147   0.00000  Uiso   1.00
C209   C     0.92230   0.21344   0.37436   0.00000  Uiso   1.00
H210   H     0.92915   0.23312   0.40501   0.00000  Uiso   1.00
H211   H     0.89953   0.23328   0.35453   0.00000  Uiso   1.00
H212   H     0.95091   0.21020   0.35455   0.00000  Uiso   1.00
N213   N     0.78393   0.09950   0.11650   0.00000  Uiso   1.00
H214   H     0.75325   0.10063   0.10826   0.00000  Uiso   1.00
C215   C     0.80046   0.05257   0.11322   0.00000  Uiso   1.00
H216   H     0.80197   0.04125   0.07820   0.00000  Uiso   1.00
H217   H     0.78029   0.02774   0.13130   0.00000  Uiso   1.00
H218   H     0.83165   0.05111   0.12786   0.00000  Uiso   1.00
Br219  Br    0.71712   0.09161   0.31653   0.00000  Uiso   1.00
Br220  Br    0.95065   0.24009   0.18289   0.00000  Uiso   1.00
Br221  Br    0.95069   0.09441   0.31910   0.00000  Uiso   1.00
Br222  Br    0.71728   0.23092   0.17535   0.00000  Uiso   1.00
C223   C     0.08748   0.49990   0.24993   0.00000  Uiso   1.00
C224   C     0.24598   0.49997   0.25034   0.00000  Uiso   1.00
C225   C     0.16590   0.50018   0.16482   0.00000  Uiso   1.00
C226   C     0.16659   0.50002   0.33485   0.00000  Uiso   1.00
C227   C     0.13855   0.35843   0.22593   0.00000  Uiso   1.00
C228   C     0.19430   0.64158   0.27472   0.00000  Uiso   1.00
C229   C     0.19414   0.35778   0.27484   0.00000  Uiso   1.00
C230   C     0.13876   0.64220   0.22564   0.00000  Uiso   1.00
C231   C     0.02170   0.46832   0.27790   0.00000  Uiso   1.00
C232   C     0.31223   0.53046   0.22180   0.00000  Uiso   1.00
C233   C     0.31222   0.46870   0.27826   0.00000  Uiso   1.00
C234   C     0.02169   0.52910   0.22053   0.00000  Uiso   1.00
C235   C     0.18466   0.53485   0.04573   0.00000  Uiso   1.00
C236   C     0.12587   0.50141   0.45134   0.00000  Uiso   1.00
C237   C     0.20022   0.49994   0.45300   0.00000  Uiso   1.00
C238   C     0.13911   0.46830   0.04716   0.00000  Uiso   1.00
C239   C     0.18514   0.53574   0.09178   0.00000  Uiso   1.00
C240   C     0.12632   0.50269   0.40487   0.00000  Uiso   1.00
C241   C     0.20168   0.50045   0.40704   0.00000  Uiso   1.00
C242   C     0.14065   0.46704   0.09333   0.00000  Uiso   1.00
C243   C     0.16400   0.50085   0.11616   0.00000  Uiso   1.00
C244   C     0.16478   0.50064   0.38293   0.00000  Uiso   1.00
C245   C     0.16187   0.50126   0.02343   0.00000  Uiso   1.00
C246   C     0.16257   0.50038   0.47512   0.00000  Uiso   1.00
C247   C     0.29072   0.49993   0.25039   0.00000  Uiso   1.00
C248   C     0.04299   0.49932   0.24966   0.00000  Uiso   1.00
Cu249  Cu    0.16667   0.54689   0.25000   0.00000  Uiso   1.00
Cu250  Cu    0.16667   0.45311   0.25000   0.00000  Uiso   1.00
H251   H     0.11570   0.37738   0.20719   0.00000  Uiso   1.00
H252   H     0.21648   0.62276   0.29455   0.00000  Uiso   1.00
H253   H     0.21570   0.37605   0.29524   0.00000  Uiso   1.00
H254   H     0.11653   0.62388   0.20595   0.00000  Uiso   1.00
H255   H     0.20173   0.56100   0.02726   0.00000  Uiso   1.00
H256   H     0.09730   0.50256   0.46960   0.00000  Uiso   1.00
H257   H     0.22861   0.49942   0.47157   0.00000  Uiso   1.00
H258   H     0.12100   0.44261   0.02972   0.00000  Uiso   1.00
N259   N     0.16667   0.61736   0.25000   0.00000  Uiso   1.00
N260   N     0.16667   0.38264   0.25000   0.00000  Uiso   1.00
O261   O     0.10655   0.53958   0.24999   0.00000  Uiso   1.00
O262   O     0.22679   0.46042   0.25000   0.00000  Uiso   1.00
O263   O     0.22679   0.53958   0.25000   0.00000  Uiso   1.00
O264   O     0.10655   0.46042   0.24999   0.00000  Uiso   1.00
O265   O     0.16666   0.53959   0.18573   0.00000  Uiso   1.00
O266   O     0.16667   0.46041   0.31427   0.00000  Uiso   1.00
O267   O     0.16667   0.53959   0.31427   0.00000  Uiso   1.00
O268   O     0.16666   0.46041   0.18573   0.00000  Uiso   1.00
N269   N     0.20820   0.57100   0.11319   0.00000  Uiso   1.00
H270   H     0.23707   0.57506   0.09962   0.00000  Uiso   1.00
C271   C     0.18707   0.61544   0.11649   0.00000  Uiso   1.00
H272   H     0.18370   0.63163   0.08323   0.00000  Uiso   1.00
H273   H     0.20505   0.63935   0.13770   0.00000  Uiso   1.00
H274   H     0.15619   0.61084   0.13153   0.00000  Uiso   1.00
N275   N     0.08909   0.50607   0.37980   0.00000  Uiso   1.00
H276   H     0.09151   0.52214   0.34934   0.00000  Uiso   1.00
C277   C     0.05034   0.51510   0.40188   0.00000  Uiso   1.00
H278   H     0.05162   0.54885   0.41987   0.00000  Uiso   1.00
H279   H     0.04277   0.48590   0.42485   0.00000  Uiso   1.00
H280   H     0.02540   0.51731   0.37703   0.00000  Uiso   1.00
N281   N     0.24043   0.50061   0.38525   0.00000  Uiso   1.00
H282   H     0.26235   0.48091   0.40147   0.00000  Uiso   1.00
C283   C     0.25564   0.54677   0.37436   0.00000  Uiso   1.00
H284   H     0.26248   0.56645   0.40501   0.00000  Uiso   1.00
H285   H     0.23286   0.56661   0.35453   0.00000  Uiso   1.00
H286   H     0.28425   0.54354   0.35455   0.00000  Uiso   1.00
N287   N     0.11726   0.43283   0.11650   0.00000  Uiso   1.00
H288   H     0.08658   0.43397   0.10826   0.00000  Uiso   1.00
C289   C     0.13379   0.38591   0.11322   0.00000  Uiso   1.00
H290   H     0.13530   0.37459   0.07820   0.00000  Uiso   1.00
H291   H     0.11362   0.36107   0.13130   0.00000  Uiso   1.00
H292   H     0.16498   0.38444   0.12786   0.00000  Uiso   1.00
Br293  Br    0.05045   0.42494   0.31653   0.00000  Uiso   1.00
Br294  Br    0.28398   0.57342   0.18289   0.00000  Uiso   1.00
Br295  Br    0.28403   0.42774   0.31910   0.00000  Uiso   1.00
Br296  Br    0.05061   0.56426   0.17535   0.00000  Uiso   1.00
C297   C     0.42081   0.49990   0.24993   0.00000  Uiso   1.00
C298   C     0.57932   0.49997   0.25034   0.00000  Uiso   1.00
C299   C     0.49923   0.50018   0.16482   0.00000  Uiso   1.00
C300   C     0.49993   0.50002   0.33485   0.00000  Uiso   1.00
C301   C     0.47189   0.35843   0.22593   0.00000  Uiso   1.00
C302   C     0.52764   0.64158   0.27472   0.00000  Uiso   1.00
C303   C     0.52748   0.35778   0.27484   0.00000  Uiso   1.00
C304   C     0.47209   0.64220   0.22564   0.00000  Uiso   1.00
C305   C     0.35503   0.46832   0.27790   0.00000  Uiso   1.00
C306   C     0.64556   0.53046   0.22180   0.00000  Uiso   1.00
C307   C     0.64555   0.46870   0.27826   0.00000  Uiso   1.00
C308   C     0.35502   0.52910   0.22053   0.00000  Uiso   1.00
C309   C     0.51800   0.53485   0.04573   0.00000  Uiso   1.00
C310   C     0.45920   0.50141   0.45134   0.00000  Uiso   1.00
C311   C     0.53355   0.49994   0.45300   0.00000  Uiso   1.00
C312   C     0.47245   0.46830   0.04716   0.00000  Uiso   1.00
C313   C     0.51847   0.53574   0.09178   0.00000  Uiso   1.00
C314   C     0.45966   0.50269   0.40487   0.00000  Uiso   1.00
C315   C     0.53501   0.50045   0.40704   0.00000  Uiso   1.00
C316   C     0.47398   0.46704   0.09333   0.00000  Uiso   1.00
C317   C     0.49734   0.50085   0.11616   0.00000  Uiso   1.00
C318   C     0.49812   0.50064   0.38293   0.00000  Uiso   1.00
C319   C     0.49521   0.50126   0.02343   0.00000  Uiso   1.00
C320   C     0.49591   0.50038   0.47512   0.00000  Uiso   1.00
C321   C     0.62405   0.49993   0.25039   0.00000  Uiso   1.00
C322   C     0.37632   0.49932   0.24966   0.00000  Uiso   1.00
Cu323  Cu    0.50000   0.54689   0.25000   0.00000  Uiso   1.00
Cu324  Cu    0.50000   0.45311   0.25000   0.00000  Uiso   1.00
H325   H     0.44903   0.37738   0.20719   0.00000  Uiso   1.00
H326   H     0.54981   0.62276   0.29455   0.00000  Uiso   1.00
H327   H     0.54903   0.37605   0.29524   0.00000  Uiso   1.00
H328   H     0.44987   0.62388   0.20595   0.00000  Uiso   1.00
H329   H     0.53507   0.56100   0.02726   0.00000  Uiso   1.00
H330   H     0.43064   0.50256   0.46960   0.00000  Uiso   1.00
H331   H     0.56195   0.49942   0.47157   0.00000  Uiso   1.00
H332   H     0.45434   0.44261   0.02972   0.00000  Uiso   1.00
N333   N     0.50000   0.61736   0.25000   0.00000  Uiso   1.00
N334   N     0.50000   0.38264   0.25000   0.00000  Uiso   1.00
O335   O     0.43988   0.53958   0.24999   0.00000  Uiso   1.00
O336   O     0.56012   0.46042   0.25000   0.00000  Uiso   1.00
O337   O     0.56012   0.53958   0.25000   0.00000  Uiso   1.00
O338   O     0.43988   0.46042   0.24999   0.00000  Uiso   1.00
O339   O     0.50000   0.53959   0.18573   0.00000  Uiso   1.00
O340   O     0.50000   0.46041   0.31427   0.00000  Uiso   1.00
O341   O     0.50000   0.53959   0.31427   0.00000  Uiso   1.00
O342   O     0.50000   0.46041   0.18573   0.00000  Uiso   1.00
N343   N     0.54153   0.57100   0.11319   0.00000  Uiso   1.00
H344   H     0.57040   0.57506   0.09962   0.00000  Uiso   1.00
C345   C     0.52040   0.61544   0.11649   0.00000  Uiso   1.00
H346   H     0.51703   0.63163   0.08323   0.00000  Uiso   1.00
H347   H     0.53839   0.63935   0.13770   0.00000  Uiso   1.00
H348   H     0.48952   0.61084   0.13153   0.00000  Uiso   1.00
N349   N     0.42242   0.50607   0.37980   0.00000  Uiso   1.00
H350   H     0.42485   0.52214   0.34934   0.00000  Uiso   1.00
C351   C     0.38368   0.51510   0.40188   0.00000  Uiso   1.00
H352   H     0.38495   0.54885   0.41987   0.00000  Uiso   1.00
H353   H     0.37610   0.48590   0.42485   0.00000  Uiso   1.00
H354   H     0.35874   0.51731   0.37703   0.00000  Uiso   1.00
N355   N     0.57376   0.50061   0.38525   0.00000  Uiso   1.00
H356   H     0.59569   0.48091   0.40147   0.00000  Uiso   1.00
C357   C     0.58897   0.54677   0.37436   0.00000  Uiso   1.00
H358   H     0.59581   0.56645   0.40501   0.00000  Uiso   1.00
H359   H     0.56620   0.56661   0.35453   0.00000  Uiso   1.00
H360   H     0.61758   0.54354   0.35455   0.00000  Uiso   1.00
N361   N     0.45060   0.43283   0.11650   0.00000  Uiso   1.00
H362   H     0.41991   0.43397   0.10826   0.00000  Uiso   1.00
C363   C     0.46712   0.38591   0.11322   0.00000  Uiso   1.00
H364   H     0.46863   0.37459   0.07820   0.00000  Uiso   1.00
H365   H     0.44695   0.36107   0.13130   0.00000  Uiso   1.00
H366   H     0.49832   0.38444   0.12786   0.00000  Uiso   1.00
Br367  Br    0.38379   0.42494   0.31653   0.00000  Uiso   1.00
Br368  Br    0.61731   0.57342   0.18289   0.00000  Uiso   1.00
Br369  Br    0.61736   0.42774   0.31910   0.00000  Uiso   1.00
Br370  Br    0.38394   0.56426   0.17535   0.00000  Uiso   1.00
C371   C     0.75414   0.49990   0.24993   0.00000  Uiso   1.00
C372   C     0.91265   0.49997   0.25034   0.00000  Uiso   1.00
C373   C     0.83256   0.50018   0.16482   0.00000  Uiso   1.00
C374   C     0.83326   0.50002   0.33485   0.00000  Uiso   1.00
C375   C     0.80522   0.35843   0.22593   0.00000  Uiso   1.00
C376   C     0.86097   0.64158   0.27472   0.00000  Uiso   1.00
C377   C     0.86081   0.35778   0.27484   0.00000  Uiso   1.00
C378   C     0.80543   0.64220   0.22564   0.00000  Uiso   1.00
C379   C     0.68837   0.46832   0.27790   0.00000  Uiso   1.00
C380   C     0.97889   0.53046   0.22180   0.00000  Uiso   1.00
C381   C     0.97888   0.46870   0.27826   0.00000  Uiso   1.00
C382   C     0.68835   0.52910   0.22053   0.00000  Uiso   1.00
C383   C     0.85133   0.53485   0.04573   0.00000  Uiso   1.00
C384   C     0.79254   0.50141   0.45134   0.00000  Uiso   1.00
C385   C     0.86689   0.49994   0.45300   0.00000  Uiso   1.00
C386   C     0.80578   0.46830   0.04716   0.00000  Uiso   1.00
C387   C     0.85180   0.53574   0.09178   0.00000  Uiso   1.00
C388   C     0.79299   0.50269   0.40487   0.00000  Uiso   1.00
C389   C     0.86835   0.50045   0.40704   0.00000  Uiso   1.00
C390   C     0.80732   0.46704   0.09333   0.00000  Uiso   1.00
C391   C     0.83067   0.50085   0.11616   0.00000  Uiso   1.00
C392   C     0.83145   0.50064   0.38293   0.00000  Uiso   1.00
C393   C     0.82854   0.50126   0.02343   0.00000  Uiso   1.00
C394   C     0.82924   0.50038   0.47512   0.00000  Uiso   1.00
C395   C     0.95739   0.49993   0.25039   0.00000  Uiso   1.00
C396   C     0.70965   0.49932   0.24966   0.00000  Uiso   1.00
Cu397  Cu    0.83333   0.54689   0.25000   0.00000  Uiso   1.00
Cu398  Cu    0.83333   0.45311   0.25000   0.00000  Uiso   1.00
H399   H     0.78236   0.37738   0.20719   0.00000  Uiso   1.00
H400   H     0.88314   0.62276   0.29455   0.00000  Uiso   1.00
H401   H     0.88236   0.37605   0.29524   0.00000  Uiso   1.00
H402   H     0.78320   0.62388   0.20595   0.00000  Uiso   1.00
H403   H     0.86840   0.56100   0.02726   0.00000  Uiso   1.00
H404   H     0.76397   0.50256   0.46960   0.00000  Uiso   1.00
H405   H     0.89528   0.49942   0.47157   0.00000  Uiso   1.00
H406   H     0.78767   0.44261   0.02972   0.00000  Uiso   1.00
N407   N     0.83333   0.61736   0.25000   0.00000  Uiso   1.00
N408   N     0.83333   0.38264   0.25000   0.00000  Uiso   1.00
O409   O     0.77321   0.53958   0.24999   0.00000  Uiso   1.00
O410   O     0.89345   0.46042   0.25000   0.00000  Uiso   1.00
O411   O     0.89345   0.53958   0.25000   0.00000  Uiso   1.00
O412   O     0.77321   0.46042   0.24999   0.00000  Uiso   1.00
O413   O     0.83333   0.53959   0.18573   0.00000  Uiso   1.00
O414   O     0.83334   0.46041   0.31427   0.00000  Uiso   1.00
O415   O     0.83334   0.53959   0.31427   0.00000  Uiso   1.00
O416   O     0.83333   0.46041   0.18573   0.00000  Uiso   1.00
N417   N     0.87487   0.57100   0.11319   0.00000  Uiso   1.00
H418   H     0.90374   0.57506   0.09962   0.00000  Uiso   1.00
C419   C     0.85374   0.61544   0.11649   0.00000  Uiso   1.00
H420   H     0.85037   0.63163   0.08323   0.00000  Uiso   1.00
H421   H     0.87172   0.63935   0.13770   0.00000  Uiso   1.00
H422   H     0.82285   0.61084   0.13153   0.00000  Uiso   1.00
N423   N     0.75575   0.50607   0.37980   0.00000  Uiso   1.00
H424   H     0.75818   0.52214   0.34934   0.00000  Uiso   1.00
C425   C     0.71701   0.51510   0.40188   0.00000  Uiso   1.00
H426   H     0.71828   0.54885   0.41987   0.00000  Uiso   1.00
H427   H     0.70943   0.48590   0.42485   0.00000  Uiso   1.00
H428   H     0.69207   0.51731   0.37703   0.00000  Uiso   1.00
N429   N     0.90709   0.50061   0.38525   0.00000  Uiso   1.00
H430   H     0.92902   0.48091   0.40147   0.00000  Uiso   1.00
C431   C     0.92230   0.54677   0.37436   0.00000  Uiso   1.00
H432   H     0.92915   0.56645   0.40501   0.00000  Uiso   1.00
H433   H     0.89953   0.56661   0.35453   0.00000  Uiso   1.00
H434   H     0.95091   0.54354   0.35455   0.00000  Uiso   1.00
N435   N     0.78393   0.43283   0.11650   0.00000  Uiso   1.00
H436   H     0.75325   0.43397   0.10826   0.00000  Uiso   1.00
C437   C     0.80046   0.38591   0.11322   0.00000  Uiso   1.00
H438   H     0.80197   0.37459   0.07820   0.00000  Uiso   1.00
H439   H     0.78029   0.36107   0.13130   0.00000  Uiso   1.00
H440   H     0.83165   0.38444   0.12786   0.00000  Uiso   1.00
Br441  Br    0.71712   0.42494   0.31653   0.00000  Uiso   1.00
Br442  Br    0.95065   0.57342   0.18289   0.00000  Uiso   1.00
Br443  Br    0.95069   0.42774   0.31910   0.00000  Uiso   1.00
Br444  Br    0.71728   0.56426   0.17535   0.00000  Uiso   1.00
C445   C     0.08748   0.83323   0.24993   0.00000  Uiso   1.00
C446   C     0.24598   0.83330   0.25034   0.00000  Uiso   1.00
C447   C     0.16590   0.83352   0.16482   0.00000  Uiso   1.00
C448   C     0.16659   0.83335   0.33485   0.00000  Uiso   1.00
C449   C     0.13855   0.69176   0.22593   0.00000  Uiso   1.00
C450   C     0.19430   0.97491   0.27472   0.00000  Uiso   1.00
C451   C     0.19414   0.69111   0.27484   0.00000  Uiso   1.00
C452   C     0.13876   0.97553   0.22564   0.00000  Uiso   1.00
C453   C     0.02170   0.80165   0.27790   0.00000  Uiso   1.00
C454   C     0.31223   0.86380   0.22180   0.00000  Uiso   1.00
C455   C     0.31222   0.80203   0.27826   0.00000  Uiso   1.00
C456   C     0.02169   0.86243   0.22053   0.00000  Uiso   1.00
C457   C     0.18466   0.86818   0.04573   0.00000  Uiso   1.00
C458   C     0.12587   0.83474   0.45134   0.00000  Uiso   1.00
C459   C     0.20022   0.83327   0.45300   0.00000  Uiso   1.00
C460   C     0.13911   0.80163   0.04716   0.00000  Uiso   1.00
C461   C     0.18514   0.86907   0.09178   0.00000  Uiso   1.00
C462   C     0.12632   0.83603   0.40487   0.00000  Uiso   1.00
C463   C     0.20168   0.83378   0.40704   0.00000  Uiso   1.00
C464   C     0.14065   0.80038   0.09333   0.00000  Uiso   1.00
C465   C     0.16400   0.83418   0.11616   0.00000  Uiso   1.00
C466   C     0.16478   0.83398   0.38293   0.00000  Uiso   1.00
C467   C     0.16187   0.83460   0.02343   0.00000  Uiso   1.00
C468   C     0.16257   0.83371   0.47512   0.00000  Uiso   1.00
C469   C     0.29072   0.83326   0.25039   0.00000  Uiso   1.00
C470   C     0.04299   0.83265   0.24966   0.00000  Uiso   1.00
Cu471  Cu    0.16667   0.88022   0.25000   0.00000  Uiso   1.00
Cu472  Cu    0.16667   0.78645   0.25000   0.00000  Uiso   1.00
H473   H     0.11570   0.71071   0.20719   0.00000  Uiso   1.00
H474   H     0.21648   0.95609   0.29455   0.00000  Uiso   1.00
H475   H     0.21570   0.70938   0.29524   0.00000  Uiso   1.00
H476   H     0.11653   0.95722   0.20595   0.00000  Uiso   1.00
H477   H     0.20173   0.89433   0.02726   0.00000  Uiso   1.00
H478   H     0.09730   0.83589   0.46960   0.00000  Uiso   1.00
H479   H     0.22861   0.83276   0.47157   0.00000  Uiso   1.00
H480   H     0.12100   0.77595   0.02972   0.00000  Uiso   1.00
N481   N     0.16667   0.95069   0.25000   0.00000  Uiso   1.00
N482   N     0.16667   0.71598   0.25000   0.00000  Uiso   1.00
O483   O     0.10655   0.87291   0.24999   0.00000  Uiso   1.00
O484   O     0.22679   0.79375   0.25000   0.00000  Uiso   1.00
O485   O     0.22679   0.87291   0.25000   0.00000  Uiso   1.00
O486   O     0.10655   0.79375   0.24999   0.00000  Uiso   1.00
O487   O     0.16666   0.87293   0.18573   0.00000  Uiso   1.00
O488   O     0.16667   0.79374   0.31427   0.00000  Uiso   1.00
O489   O     0.16667   0.87293   0.31427   0.00000  Uiso   1.00
O490   O     0.16666   0.79374   0.18573   0.00000  Uiso   1.00
N491   N     0.20820   0.90433   0.11319   0.00000  Uiso   1.00
H492   H     0.23707   0.90839   0.09962   0.00000  Uiso   1.00
C493   C     0.18707   0.94877   0.11649   0.00000  Uiso   1.00
H494   H     0.18370   0.96496   0.08323   0.00000  Uiso   1.00
H495   H     0.20505   0.97269   0.13770   0.00000  Uiso   1.00
H496   H     0.15619   0.94417   0.13153   0.00000  Uiso   1.00
N497   N     0.08909   0.83941   0.37980   0.00000  Uiso   1.00
H498   H     0.09151   0.85548   0.34934   0.00000  Uiso   1.00
C499   C     0.05034   0.84844   0.40188   0.00000  Uiso   1.00
H500   H     0.05162   0.88218   0.41987   0.00000  Uiso   1.00
H501   H     0.04277   0.81923   0.42485   0.00000  Uiso   1.00
H502   H     0.02540   0.85064   0.37703   0.00000  Uiso   1.00
N503   N     0.24043   0.83394   0.38525   0.00000  Uiso   1.00
H504   H     0.26235   0.81424   0.40147   0.00000  Uiso   1.00
C505   C     0.25564   0.88011   0.37436   0.00000  Uiso   1.00
H506   H     0.26248   0.89978   0.40501   0.00000  Uiso   1.00
H507   H     0.23286   0.89994   0.35453   0.00000  Uiso   1.00
H508   H     0.28425   0.87687   0.35455   0.00000  Uiso   1.00
N509   N     0.11726   0.76616   0.11650   0.00000  Uiso   1.00
H510   H     0.08658   0.76730   0.10826   0.00000  Uiso   1.00
C511   C     0.13379   0.71924   0.11322   0.00000  Uiso   1.00
H512   H     0.13530   0.70792   0.07820   0.00000  Uiso   1.00
H513   H     0.11362   0.69440   0.13130   0.00000  Uiso   1.00
H514   H     0.16498   0.71778   0.12786   0.00000  Uiso   1.00
Br515  Br    0.05045   0.75828   0.31653   0.00000  Uiso   1.00
Br516  Br    0.28398   0.90675   0.18289   0.00000  Uiso   1.00
Br517  Br    0.28403   0.76108   0.31910   0.00000  Uiso   1.00
Br518  Br    0.05061   0.89759   0.17535   0.00000  Uiso   1.00
C519   C     0.42081   0.83323   0.24993   0.00000  Uiso   1.00
C520   C     0.57932   0.83330   0.25034   0.00000  Uiso   1.00
C521   C     0.49923   0.83352   0.16482   0.00000  Uiso   1.00
C522   C     0.49993   0.83335   0.33485   0.00000  Uiso   1.00
C523   C     0.47189   0.69176   0.22593   0.00000  Uiso   1.00
C524   C     0.52764   0.97491   0.27472   0.00000  Uiso   1.00
C525   C     0.52748   0.69111   0.27484   0.00000  Uiso   1.00
C526   C     0.47209   0.97553   0.22564   0.00000  Uiso   1.00
C527   C     0.35503   0.80165   0.27790   0.00000  Uiso   1.00
C528   C     0.64556   0.86380   0.22180   0.00000  Uiso   1.00
C529   C     0.64555   0.80203   0.27826   0.00000  Uiso   1.00
C530   C     0.35502   0.86243   0.22053   0.00000  Uiso   1.00
C531   C     0.51800   0.86818   0.04573   0.00000  Uiso   1.00
C532   C     0.45920   0.83474   0.45134   0.00000  Uiso   1.00
C533   C     0.53355   0.83327   0.45300   0.00000  Uiso   1.00
C534   C     0.47245   0.80163   0.04716   0.00000  Uiso   1.00
C535   C     0.51847   0.86907   0.09178   0.00000  Uiso   1.00
C536   C     0.45966   0.83603   0.40487   0.00000  Uiso   1.00
C537   C     0.53501   0.83378   0.40704   0.00000  Uiso   1.00
C538   C     0.47398   0.80038   0.09333   0.00000  Uiso   1.00
C539   C     0.49734   0.83418   0.11616   0.00000  Uiso   1.00
C540   C     0.49812   0.83398   0.38293   0.00000  Uiso   1.00
C541   C     0.49521   0.83460   0.02343   0.00000  Uiso   1.00
C542   C     0.49591   0.83371   0.47512   0.00000  Uiso   1.00
C543   C     0.62405   0.83326   0.25039   0.00000  Uiso   1.00
C544   C     0.37632   0.83265   0.24966   0.00000  Uiso   1.00
Cu545  Cu    0.50000   0.88022   0.25000   0.00000  Uiso   1.00
Cu546  Cu    0.50000   0.78645   0.25000   0.00000  Uiso   1.00
H547   H     0.44903   0.71071   0.20719   0.00000  Uiso   1.00
H548   H     0.54981   0.95609   0.29455   0.00000  Uiso   1.00
H549   H     0.54903   0.70938   0.29524   0.00000  Uiso   1.00
H550   H     0.44987   0.95722   0.20595   0.00000  Uiso   1.00
H551   H     0.53507   0.89433   0.02726   0.00000  Uiso   1.00
H552   H     0.43064   0.83589   0.46960   0.00000  Uiso   1.00
H553   H     0.56195   0.83276   0.47157   0.00000  Uiso   1.00
H554   H     0.45434   0.77595   0.02972   0.00000  Uiso   1.00
N555   N     0.50000   0.95069   0.25000   0.00000  Uiso   1.00
N556   N     0.50000   0.71598   0.25000   0.00000  Uiso   1.00
O557   O     0.43988   0.87291   0.24999   0.00000  Uiso   1.00
O558   O     0.56012   0.79375   0.25000   0.00000  Uiso   1.00
O559   O     0.56012   0.87291   0.25000   0.00000  Uiso   1.00
O560   O     0.43988   0.79375   0.24999   0.00000  Uiso   1.00
O561   O     0.50000   0.87293   0.18573   0.00000  Uiso   1.00
O562   O     0.50000   0.79374   0.31427   0.00000  Uiso   1.00
O563   O     0.50000   0.87293   0.31427   0.00000  Uiso   1.00
O564   O     0.50000   0.79374   0.18573   0.00000  Uiso   1.00
N565   N     0.54153   0.90433   0.11319   0.00000  Uiso   1.00
H566   H     0.57040   0.90839   0.09962   0.00000  Uiso   1.00
C567   C     0.52040   0.94877   0.11649   0.00000  Uiso   1.00
H568   H     0.51703   0.96496   0.08323   0.00000  Uiso   1.00
H569   H     0.53839   0.97269   0.13770   0.00000  Uiso   1.00
H570   H     0.48952   0.94417   0.13153   0.00000  Uiso   1.00
N571   N     0.42242   0.83941   0.37980   0.00000  Uiso   1.00
H572   H     0.42485   0.85548   0.34934   0.00000  Uiso   1.00
C573   C     0.38368   0.84844   0.40188   0.00000  Uiso   1.00
H574   H     0.38495   0.88218   0.41987   0.00000  Uiso   1.00
H575   H     0.37610   0.81923   0.42485   0.00000  Uiso   1.00
H576   H     0.35874   0.85064   0.37703   0.00000  Uiso   1.00
N577   N     0.57376   0.83394   0.38525   0.00000  Uiso   1.00
H578   H     0.59569   0.81424   0.40147   0.00000  Uiso   1.00
C579   C     0.58897   0.88011   0.37436   0.00000  Uiso   1.00
H580   H     0.59581   0.89978   0.40501   0.00000  Uiso   1.00
H581   H     0.56620   0.89994   0.35453   0.00000  Uiso   1.00
H582   H     0.61758   0.87687   0.35455   0.00000  Uiso   1.00
N583   N     0.45060   0.76616   0.11650   0.00000  Uiso   1.00
H584   H     0.41991   0.76730   0.10826   0.00000  Uiso   1.00
C585   C     0.46712   0.71924   0.11322   0.00000  Uiso   1.00
H586   H     0.46863   0.70792   0.07820   0.00000  Uiso   1.00
H587   H     0.44695   0.69440   0.13130   0.00000  Uiso   1.00
H588   H     0.49832   0.71778   0.12786   0.00000  Uiso   1.00
Br589  Br    0.38379   0.75828   0.31653   0.00000  Uiso   1.00
Br590  Br    0.61731   0.90675   0.18289   0.00000  Uiso   1.00
Br591  Br    0.61736   0.76108   0.31910   0.00000  Uiso   1.00
Br592  Br    0.38394   0.89759   0.17535   0.00000  Uiso   1.00
C593   C     0.75414   0.83323   0.24993   0.00000  Uiso   1.00
C594   C     0.91265   0.83330   0.25034   0.00000  Uiso   1.00
C595   C     0.83256   0.83352   0.16482   0.00000  Uiso   1.00
C596   C     0.83326   0.83335   0.33485   0.00000  Uiso   1.00
C597   C     0.80522   0.69176   0.22593   0.00000  Uiso   1.00
C598   C     0.86097   0.97491   0.27472   0.00000  Uiso   1.00
C599   C     0.86081   0.69111   0.27484   0.00000  Uiso   1.00
C600   C     0.80543   0.97553   0.22564   0.00000  Uiso   1.00
C601   C     0.68837   0.80165   0.27790   0.00000  Uiso   1.00
C602   C     0.97889   0.86380   0.22180   0.00000  Uiso   1.00
C603   C     0.97888   0.80203   0.27826   0.00000  Uiso   1.00
C604   C     0.68835   0.86243   0.22053   0.00000  Uiso   1.00
C605   C     0.85133   0.86818   0.04573   0.00000  Uiso   1.00
C606   C     0.79254   0.83474   0.45134   0.00000  Uiso   1.00
C607   C     0.86689   0.83327   0.45300   0.00000  Uiso   1.00
C608   C     0.80578   0.80163   0.04716   0.00000  Uiso   1.00
C609   C     0.85180   0.86907   0.09178   0.00000  Uiso   1.00
C610   C     0.79299   0.83603   0.40487   0.00000  Uiso   1.00
C611   C     0.86835   0.83378   0.40704   0.00000  Uiso   1.00
C612   C     0.80732   0.80038   0.09333   0.00000  Uiso   1.00
C613   C     0.83067   0.83418   0.11616   0.00000  Uiso   1.00
C614   C     0.83145   0.83398   0.38293   0.00000  Uiso   1.00
C615   C     0.82854   0.83460   0.02343   0.00000  Uiso   1.00
C616   C     0.82924   0.83371   0.47512   0.00000  Uiso   1.00
C617   C     0.95739   0.83326   0.25039   0.00000  Uiso   1.00
C618   C     0.70965   0.83265   0.24966   0.00000  Uiso   1.00
Cu619  Cu    0.83333   0.88022   0.25000   0.00000  Uiso   1.00
Cu620  Cu    0.83333   0.78645   0.25000   0.00000  Uiso   1.00
H621   H     0.78236   0.71071   0.20719   0.00000  Uiso   1.00
H622   H     0.88314   0.95609   0.29455   0.00000  Uiso   1.00
H623   H     0.88236   0.70938   0.29524   0.00000  Uiso   1.00
H624   H     0.78320   0.95722   0.20595   0.00000  Uiso   1.00
H625   H     0.86840   0.89433   0.02726   0.00000  Uiso   1.00
H626   H     0.76397   0.83589   0.46960   0.00000  Uiso   1.00
H627   H     0.89528   0.83276   0.47157   0.00000  Uiso   1.00
H628   H     0.78767   0.77595   0.02972   0.00000  Uiso   1.00
N629   N     0.83333   0.95069   0.25000   0.00000  Uiso   1.00
N630   N     0.83333   0.71598   0.25000   0.00000  Uiso   1.00
O631   O     0.77321   0.87291   0.24999   0.00000  Uiso   1.00
O632   O     0.89345   0.79375   0.25000   0.00000  Uiso   1.00
O633   O     0.89345   0.87291   0.25000   0.00000  Uiso   1.00
O634   O     0.77321   0.79375   0.24999   0.00000  Uiso   1.00
O635   O     0.83333   0.87293   0.18573   0.00000  Uiso   1.00
O636   O     0.83334   0.79374   0.31427   0.00000  Uiso   1.00
O637   O     0.83334   0.87293   0.31427   0.00000  Uiso   1.00
O638   O     0.83333   0.79374   0.18573   0.00000  Uiso   1.00
N639   N     0.87487   0.90433   0.11319   0.00000  Uiso   1.00
H640   H     0.90374   0.90839   0.09962   0.00000  Uiso   1.00
C641   C     0.85374   0.94877   0.11649   0.00000  Uiso   1.00
H642   H     0.85037   0.96496   0.08323   0.00000  Uiso   1.00
H643   H     0.87172   0.97269   0.13770   0.00000  Uiso   1.00
H644   H     0.82285   0.94417   0.13153   0.00000  Uiso   1.00
N645   N     0.75575   0.83941   0.37980   0.00000  Uiso   1.00
H646   H     0.75818   0.85548   0.34934   0.00000  Uiso   1.00
C647   C     0.71701   0.84844   0.40188   0.00000  Uiso   1.00
H648   H     0.71828   0.88218   0.41987   0.00000  Uiso   1.00
H649   H     0.70943   0.81923   0.42485   0.00000  Uiso   1.00
H650   H     0.69207   0.85064   0.37703   0.00000  Uiso   1.00
N651   N     0.90709   0.83394   0.38525   0.00000  Uiso   1.00
H652   H     0.92902   0.81424   0.40147   0.00000  Uiso   1.00
C653   C     0.92230   0.88011   0.37436   0.00000  Uiso   1.00
H654   H     0.92915   0.89978   0.40501   0.00000  Uiso   1.00
H655   H     0.89953   0.89994   0.35453   0.00000  Uiso   1.00
H656   H     0.95091   0.87687   0.35455   0.00000  Uiso   1.00
N657   N     0.78393   0.76616   0.11650   0.00000  Uiso   1.00
H658   H     0.75325   0.76730   0.10826   0.00000  Uiso   1.00
C659   C     0.80046   0.71924   0.11322   0.00000  Uiso   1.00
H660   H     0.80197   0.70792   0.07820   0.00000  Uiso   1.00
H661   H     0.78029   0.69440   0.13130   0.00000  Uiso   1.00
H662   H     0.83165   0.71778   0.12786   0.00000  Uiso   1.00
Br663  Br    0.71712   0.75828   0.31653   0.00000  Uiso   1.00
Br664  Br    0.95065   0.90675   0.18289   0.00000  Uiso   1.00
Br665  Br    0.95069   0.76108   0.31910   0.00000  Uiso   1.00
Br666  Br    0.71728   0.89759   0.17535   0.00000  Uiso   1.00
C667   C     0.08748   0.16657   0.74993   0.00000  Uiso   1.00
C668   C     0.24598   0.16663   0.75034   0.00000  Uiso   1.00
C669   C     0.16590   0.16685   0.66482   0.00000  Uiso   1.00
C670   C     0.16659   0.16668   0.83485   0.00000  Uiso   1.00
C671   C     0.13855   0.02509   0.72593   0.00000  Uiso   1.00
C672   C     0.19430   0.30825   0.77472   0.00000  Uiso   1.00
C673   C     0.19414   0.02445   0.77484   0.00000  Uiso   1.00
C674   C     0.13876   0.30886   0.72564   0.00000  Uiso   1.00
C675   C     0.02170   0.13498   0.77790   0.00000  Uiso   1.00
C676   C     0.31223   0.19713   0.72180   0.00000  Uiso   1.00
C677   C     0.31222   0.13537   0.77826   0.00000  Uiso   1.00
C678   C     0.02169   0.19576   0.72053   0.00000  Uiso   1.00
C679   C     0.18466   0.20151   0.54573   0.00000  Uiso   1.00
C680   C     0.12587   0.16807   0.95134   0.00000  Uiso   1.00
C681   C     0.20022   0.16660   0.95300   0.00000  Uiso   1.00
C682   C     0.13911   0.13496   0.54716   0.00000  Uiso   1.00
C683   C     0.18514   0.20241   0.59178   0.00000  Uiso   1.00
C684   C     0.12632   0.16936   0.90487   0.00000  Uiso   1.00
C685   C     0.20168   0.16711   0.90704   0.00000  Uiso   1.00
C686   C     0.14065   0.13371   0.59333   0.00000  Uiso   1.00
C687   C     0.16400   0.16751   0.61616   0.00000  Uiso   1.00
C688   C     0.16478   0.16731   0.88293   0.00000  Uiso   1.00
C689   C     0.16187   0.16793   0.52343   0.00000  Uiso   1.00
C690   C     0.16257   0.16704   0.97512   0.00000  Uiso   1.00
C691   C     0.29072   0.16660   0.75039   0.00000  Uiso   1.00
C692   C     0.04299   0.16598   0.74966   0.00000  Uiso   1.00
Cu693  Cu    0.16667   0.21355   0.75000   0.00000  Uiso   1.00
Cu694  Cu    0.16667   0.11978   0.75000   0.00000  Uiso   1.00
H695   H     0.11570   0.04405   0.70719   0.00000  Uiso   1.00
H696   H     0.21648   0.28943   0.79455   0.00000  Uiso   1.00
H697   H     0.21570   0.04271   0.79524   0.00000  Uiso   1.00
H698   H     0.11653   0.29055   0.70595   0.00000  Uiso   1.00
H699   H     0.20173   0.22766   0.52726   0.00000  Uiso   1.00
H700   H     0.09730   0.16922   0.96960   0.00000  Uiso   1.00
H701   H     0.22861   0.16609   0.97157   0.00000  Uiso   1.00
H702   H     0.12100   0.10928   0.52972   0.00000  Uiso   1.00
N703   N     0.16667   0.28402   0.75000   0.00000  Uiso   1.00
N704   N     0.16667   0.04931   0.75000   0.00000  Uiso   1.00
O705   O     0.10655   0.20625   0.74999   0.00000  Uiso   1.00
O706   O     0.22679   0.12709   0.75000   0.00000  Uiso   1.00
O707   O     0.22679   0.20625   0.75000   0.00000  Uiso   1.00
O708   O     0.10655   0.12709   0.74999   0.00000  Uiso   1.00
O709   O     0.16666   0.20626   0.68573   0.00000  Uiso   1.00
O710   O     0.16667   0.12707   0.81427   0.00000  Uiso   1.00
O711   O     0.16667   0.20626   0.81427   0.00000  Uiso   1.00
O712   O     0.16666   0.12707   0.68573   0.00000  Uiso   1.00
N713   N     0.20820   0.23767   0.61319   0.00000  Uiso   1.00
H714   H     0.23707   0.24172   0.59962   0.00000  Uiso   1.00
C715   C     0.18707   0.28211   0.61649   0.00000  Uiso   1.00
H716   H     0.18370   0.29829   0.58323   0.00000  Uiso   1.00
H717   H     0.20505   0.30602   0.63770   0.00000  Uiso   1.00
H718   H     0.15619   0.27751   0.63153   0.00000  Uiso   1.00
N719   N     0.08909   0.17274   0.87980   0.00000  Uiso   1.00
H720   H     0.09151   0.18881   0.84934   0.00000  Uiso   1.00
C721   C     0.05034   0.18177   0.90188   0.00000  Uiso   1.00
H722   H     0.05162   0.21552   0.91987   0.00000  Uiso   1.00
H723   H     0.04277   0.15257   0.92485   0.00000  Uiso   1.00
H724   H     0.02540   0.18397   0.87703   0.00000  Uiso   1.00
N725   N     0.24043   0.16727   0.88525   0.00000  Uiso   1.00
H726   H     0.26235   0.14758   0.90147   0.00000  Uiso   1.00
C727   C     0.25564   0.21344   0.87436   0.00000  Uiso   1.00
H728   H     0.26248   0.23312   0.90501   0.00000  Uiso   1.00
H729   H     0.23286   0.23328   0.85453   0.00000  Uiso   1.00
H730   H     0.28425   0.21020   0.85455   0.00000  Uiso   1.00
N731   N     0.11726   0.09950   0.61650   0.00000  Uiso   1.00
H732   H     0.08658   0.10063   0.60826   0.00000  Uiso   1.00
C733   C     0.13379   0.05257   0.61322   0.00000  Uiso   1.00
H734   H     0.13530   0.04125   0.57820   0.00000  Uiso   1.00
H735   H     0.11362   0.02774   0.63130   0.00000  Uiso   1.00
H736   H     0.16498   0.05111   0.62786   0.00000  Uiso   1.00
Br737  Br    0.05045   0.09161   0.81653   0.00000  Uiso   1.00
Br738  Br    0.28398   0.24009   0.68289   0.00000  Uiso   1.00
Br739  Br    0.28403   0.09441   0.81910   0.00000  Uiso   1.00
Br740  Br    0.05061   0.23092   0.67535   0.00000  Uiso   1.00
C741   C     0.42081   0.16657   0.74993   0.00000  Uiso   1.00
C742   C     0.57932   0.16663   0.75034   0.00000  Uiso   1.00
C743   C     0.49923   0.16685   0.66482   0.00000  Uiso   1.00
C744   C     0.49993   0.16668   0.83485   0.00000  Uiso   1.00
C745   C     0.47189   0.02509   0.72593   0.00000  Uiso   1.00
C746   C     0.52764   0.30825   0.77472   0.00000  Uiso   1.00
C747   C     0.52748   0.02445   0.77484   0.00000  Uiso   1.00
C748   C     0.47209   0.30886   0.72564   0.00000  Uiso   1.00
C749   C     0.35503   0.13498   0.77790   0.00000  Uiso   1.00
C750   C     0.64556   0.19713   0.72180   0.00000  Uiso   1.00
C751   C     0.64555   0.13537   0.77826   0.00000  Uiso   1.00
C752   C     0.35502   0.19576   0.72053   0.00000  Uiso   1.00
C753   C     0.51800   0.20151   0.54573   0.00000  Uiso   1.00
C754   C     0.45920   0.16807   0.95134   0.00000  Uiso   1.00
C755   C     0.53355   0.16660   0.95300   0.00000  Uiso   1.00
C756   C     0.47245   0.13496   0.54716   0.00000  Uiso   1.00
C757   C     0.51847   0.20241   0.59178   0.00000  Uiso   1.00
C758   C     0.45966   0.16936   0.90487   0.00000  Uiso   1.00
C759   C     0.53501   0.16711   0.90704   0.00000  Uiso   1.00
C760   C     0.47398   0.13371   0.59333   0.00000  Uiso   1.00
C761   C     0.49734   0.16751   0.61616   0.00000  Uiso   1.00
C762   C     0.49812   0.16731   0.88293   0.00000  Uiso   1.00
C763   C     0.49521   0.16793   0.52343   0.00000  Uiso   1.00
C764   C     0.49591   0.16704   0.97512   0.00000  Uiso   1.00
C765   C     0.62405   0.16660   0.75039   0.00000  Uiso   1.00
C766   C     0.37632   0.16598   0.74966   0.00000  Uiso   1.00
Cu767  Cu    0.50000   0.21355   0.75000   0.00000  Uiso   1.00
Cu768  Cu    0.50000   0.11978   0.75000   0.00000  Uiso   1.00
H769   H     0.44903   0.04405   0.70719   0.00000  Uiso   1.00
H770   H     0.54981   0.28943   0.79455   0.00000  Uiso   1.00
H771   H     0.54903   0.04271   0.79524   0.00000  Uiso   1.00
H772   H     0.44987   0.29055   0.70595   0.00000  Uiso   1.00
H773   H     0.53507   0.22766   0.52726   0.00000  Uiso   1.00
H774   H     0.43064   0.16922   0.96960   0.00000  Uiso   1.00
H775   H     0.56195   0.16609   0.97157   0.00000  Uiso   1.00
H776   H     0.45434   0.10928   0.52972   0.00000  Uiso   1.00
N777   N     0.50000   0.28402   0.75000   0.00000  Uiso   1.00
N778   N     0.50000   0.04931   0.75000   0.00000  Uiso   1.00
O779   O     0.43988   0.20625   0.74999   0.00000  Uiso   1.00
O780   O     0.56012   0.12709   0.75000   0.00000  Uiso   1.00
O781   O     0.56012   0.20625   0.75000   0.00000  Uiso   1.00
O782   O     0.43988   0.12709   0.74999   0.00000  Uiso   1.00
O783   O     0.50000   0.20626   0.68573   0.00000  Uiso   1.00
O784   O     0.50000   0.12707   0.81427   0.00000  Uiso   1.00
O785   O     0.50000   0.20626   0.81427   0.00000  Uiso   1.00
O786   O     0.50000   0.12707   0.68573   0.00000  Uiso   1.00
N787   N     0.54153   0.23767   0.61319   0.00000  Uiso   1.00
H788   H     0.57040   0.24172   0.59962   0.00000  Uiso   1.00
C789   C     0.52040   0.28211   0.61649   0.00000  Uiso   1.00
H790   H     0.51703   0.29829   0.58323   0.00000  Uiso   1.00
H791   H     0.53839   0.30602   0.63770   0.00000  Uiso   1.00
H792   H     0.48952   0.27751   0.63153   0.00000  Uiso   1.00
N793   N     0.42242   0.17274   0.87980   0.00000  Uiso   1.00
H794   H     0.42485   0.18881   0.84934   0.00000  Uiso   1.00
C795   C     0.38368   0.18177   0.90188   0.00000  Uiso   1.00
H796   H     0.38495   0.21552   0.91987   0.00000  Uiso   1.00
H797   H     0.37610   0.15257   0.92485   0.00000  Uiso   1.00
H798   H     0.35874   0.18397   0.87703   0.00000  Uiso   1.00
N799   N     0.57376   0.16727   0.88525   0.00000  Uiso   1.00
H800   H     0.59569   0.14758   0.90147   0.00000  Uiso   1.00
C801   C     0.58897   0.21344   0.87436   0.00000  Uiso   1.00
H802   H     0.59581   0.23312   0.90501   0.00000  Uiso   1.00
H803   H     0.56620   0.23328   0.85453   0.00000  Uiso   1.00
H804   H     0.61758   0.21020   0.85455   0.00000  Uiso   1.00
N805   N     0.45060   0.09950   0.61650   0.00000  Uiso   1.00
H806   H     0.41991   0.10063   0.60826   0.00000  Uiso   1.00
C807   C     0.46712   0.05257   0.61322   0.00000  Uiso   1.00
H808   H     0.46863   0.04125   0.57820   0.00000  Uiso   1.00
H809   H     0.44695   0.02774   0.63130   0.00000  Uiso   1.00
H810   H     0.49832   0.05111   0.62786   0.00000  Uiso   1.00
Br811  Br    0.38379   0.09161   0.81653   0.00000  Uiso   1.00
Br812  Br    0.61731   0.24009   0.68289   0.00000  Uiso   1.00
Br813  Br    0.61736   0.09441   0.81910   0.00000  Uiso   1.00
Br814  Br    0.38394   0.23092   0.67535   0.00000  Uiso   1.00
C815   C     0.75414   0.16657   0.74993   0.00000  Uiso   1.00
C816   C     0.91265   0.16663   0.75034   0.00000  Uiso   1.00
C817   C     0.83256   0.16685   0.66482   0.00000  Uiso   1.00
C818   C     0.83326   0.16668   0.83485   0.00000  Uiso   1.00
C819   C     0.80522   0.02509   0.72593   0.00000  Uiso   1.00
C820   C     0.86097   0.30825   0.77472   0.00000  Uiso   1.00
C821   C     0.86081   0.02445   0.77484   0.00000  Uiso   1.00
C822   C     0.80543   0.30886   0.72564   0.00000  Uiso   1.00
C823   C     0.68837   0.13498   0.77790   0.00000  Uiso   1.00
C824   C     0.97889   0.19713   0.72180   0.00000  Uiso   1.00
C825   C     0.97888   0.13537   0.77826   0.00000  Uiso   1.00
C826   C     0.68835   0.19576   0.72053   0.00000  Uiso   1.00
C827   C     0.85133   0.20151   0.54573   0.00000  Uiso   1.00
C828   C     0.79254   0.16807   0.95134   0.00000  Uiso   1.00
C829   C     0.86689   0.16660   0.95300   0.00000  Uiso   1.00
C830   C     0.80578   0.13496   0.54716   0.00000  Uiso   1.00
C831   C     0.85180   0.20241   0.59178   0.00000  Uiso   1.00
C832   C     0.79299   0.16936   0.90487   0.00000  Uiso   1.00
C833   C     0.86835   0.16711   0.90704   0.00000  Uiso   1.00
C834   C     0.80732   0.13371   0.59333   0.00000  Uiso   1.00
C835   C     0.83067   0.16751   0.61616   0.00000  Uiso   1.00
C836   C     0.83145   0.16731   0.88293   0.00000  Uiso   1.00
C837   C     0.82854   0.16793   0.52343   0.00000  Uiso   1.00
C838   C     0.82924   0.16704   0.97512   0.00000  Uiso   1.00
C839   C     0.95739   0.16660   0.75039   0.00000  Uiso   1.00
C840   C     0.70965   0.16598   0.74966   0.00000  Uiso   1.00
Cu841  Cu    0.83333   0.21355   0.75000   0.00000  Uiso   1.00
Cu842  Cu    0.83333   0.11978   0.75000   0.00000  Uiso   1.00
H843   H     0.78236   0.04405   0.70719   0.00000  Uiso   1.00
H844   H     0.88314   0.28943   0.79455   0.00000  Uiso   1.00
H845   H     0.88236   0.04271   0.79524   0.00000  Uiso   1.00
H846   H     0.78320   0.29055   0.70595   0.00000  Uiso   1.00
H847   H     0.86840   0.22766   0.52726   0.00000  Uiso   1.00
H848   H     0.76397   0.16922   0.96960   0.00000  Uiso   1.00
H849   H     0.89528   0.16609   0.97157   0.00000  Uiso   1.00
H850   H     0.78767   0.10928   0.52972   0.00000  Uiso   1.00
N851   N     0.83333   0.28402   0.75000   0.00000  Uiso   1.00
N852   N     0.83333   0.04931   0.75000   0.00000  Uiso   1.00
O853   O     0.77321   0.20625   0.74999   0.00000  Uiso   1.00
O854   O     0.89345   0.12709   0.75000   0.00000  Uiso   1.00
O855   O     0.89345   0.20625   0.75000   0.00000  Uiso   1.00
O856   O     0.77321   0.12709   0.74999   0.00000  Uiso   1.00
O857   O     0.83333   0.20626   0.68573   0.00000  Uiso   1.00
O858   O     0.83334   0.12707   0.81427   0.00000  Uiso   1.00
O859   O     0.83334   0.20626   0.81427   0.00000  Uiso   1.00
O860   O     0.83333   0.12707   0.68573   0.00000  Uiso   1.00
N861   N     0.87487   0.23767   0.61319   0.00000  Uiso   1.00
H862   H     0.90374   0.24172   0.59962   0.00000  Uiso   1.00
C863   C     0.85374   0.28211   0.61649   0.00000  Uiso   1.00
H864   H     0.85037   0.29829   0.58323   0.00000  Uiso   1.00
H865   H     0.87172   0.30602   0.63770   0.00000  Uiso   1.00
H866   H     0.82285   0.27751   0.63153   0.00000  Uiso   1.00
N867   N     0.75575   0.17274   0.87980   0.00000  Uiso   1.00
H868   H     0.75818   0.18881   0.84934   0.00000  Uiso   1.00
C869   C     0.71701   0.18177   0.90188   0.00000  Uiso   1.00
H870   H     0.71828   0.21552   0.91987   0.00000  Uiso   1.00
H871   H     0.70943   0.15257   0.92485   0.00000  Uiso   1.00
H872   H     0.69207   0.18397   0.87703   0.00000  Uiso   1.00
N873   N     0.90709   0.16727   0.88525   0.00000  Uiso   1.00
H874   H     0.92902   0.14758   0.90147   0.00000  Uiso   1.00
C875   C     0.92230   0.21344   0.87436   0.00000  Uiso   1.00
H876   H     0.92915   0.23312   0.90501   0.00000  Uiso   1.00
H877   H     0.89953   0.23328   0.85453   0.00000  Uiso   1.00
H878   H     0.95091   0.21020   0.85455   0.00000  Uiso   1.00
N879   N     0.78393   0.09950   0.61650   0.00000  Uiso   1.00
H880   H     0.75325   0.10063   0.60826   0.00000  Uiso   1.00
C881   C     0.80046   0.05257   0.61322   0.00000  Uiso   1.00
H882   H     0.80197   0.04125   0.57820   0.00000  Uiso   1.00
H883   H     0.78029   0.02774   0.63130   0.00000  Uiso   1.00
H884   H     0.83165   0.05111   0.62786   0.00000  Uiso   1.00
Br885  Br    0.71712   0.09161   0.81653   0.00000  Uiso   1.00
Br886  Br    0.95065   0.24009   0.68289   0.00000  Uiso   1.00
Br887  Br    0.95069   0.09441   0.81910   0.00000  Uiso   1.00
Br888  Br    0.71728   0.23092   0.67535   0.00000  Uiso   1.00
C889   C     0.08748   0.49990   0.74993   0.00000  Uiso   1.00
C890   C     0.24598   0.49997   0.75034   0.00000  Uiso   1.00
C891   C     0.16590   0.50018   0.66482   0.00000  Uiso   1.00
C892   C     0.16659   0.50002   0.83485   0.00000  Uiso   1.00
C893   C     0.13855   0.35843   0.72593   0.00000  Uiso   1.00
C894   C     0.19430   0.64158   0.77472   0.00000  Uiso   1.00
C895   C     0.19414   0.35778   0.77484   0.00000  Uiso   1.00
C896   C     0.13876   0.64220   0.72564   0.00000  Uiso   1.00
C897   C     0.02170   0.46832   0.77790   0.00000  Uiso   1.00
C898   C     0.31223   0.53046   0.72180   0.00000  Uiso   1.00
C899   C     0.31222   0.46870   0.77826   0.00000  Uiso   1.00
C900   C     0.02169   0.52910   0.72053   0.00000  Uiso   1.00
C901   C     0.18466   0.53485   0.54573   0.00000  Uiso   1.00
C902   C     0.12587   0.50141   0.95134   0.00000  Uiso   1.00
C903   C     0.20022   0.49994   0.95300   0.00000  Uiso   1.00
C904   C     0.13911   0.46830   0.54716   0.00000  Uiso   1.00
C905   C     0.18514   0.53574   0.59178   0.00000  Uiso   1.00
C906   C     0.12632   0.50269   0.90487   0.00000  Uiso   1.00
C907   C     0.20168   0.50045   0.90704   0.00000  Uiso   1.00
C908   C     0.14065   0.46704   0.59333   0.00000  Uiso   1.00
C909   C     0.16400   0.50085   0.61616   0.00000  Uiso   1.00
C910   C     0.16478   0.50064   0.88293   0.00000  Uiso   1.00
C911   C     0.16187   0.50126   0.52343   0.00000  Uiso   1.00
C912   C     0.16257   0.50038   0.97512   0.00000  Uiso   1.00
C913   C     0.29072   0.49993   0.75039   0.00000  Uiso   1.00
C914   C     0.04299   0.49932   0.74966   0.00000  Uiso   1.00
Cu915  Cu    0.16667   0.54689   0.75000   0.00000  Uiso   1.00
Cu916  Cu    0.16667   0.45311   0.75000   0.00000  Uiso   1.00
H917   H     0.11570   0.37738   0.70719   0.00000  Uiso   1.00
H918   H     0.21648   0.62276   0.79455   0.00000  Uiso   1.00
H919   H     0.21570   0.37605   0.79524   0.00000  Uiso   1.00
H920   H     0.11653   0.62388   0.70595   0.00000  Uiso   1.00
H921   H     0.20173   0.56100   0.52726   0.00000  Uiso   1.00
H922   H     0.09730   0.50256   0.96960   0.00000  Uiso   1.00
H923   H     0.22861   0.49942   0.97157   0.00000  Uiso   1.00
H924   H     0.12100   0.44261   0.52972   0.00000  Uiso   1.00
N925   N     0.16667   0.61736   0.75000   0.00000  Uiso   1.00
N926   N     0.16667   0.38264   0.75000   0.00000  Uiso   1.00
O927   O     0.10655   0.53958   0.74999   0.00000  Uiso   1.00
O928   O     0.22679   0.46042   0.75000   0.00000  Uiso   1.00
O929   O     0.22679   0.53958   0.75000   0.00000  Uiso   1.00
O930   O     0.10655   0.46042   0.74999   0.00000  Uiso   1.00
O931   O     0.16666   0.53959   0.68573   0.00000  Uiso   1.00
O932   O     0.16667   0.46041   0.81427   0.00000  Uiso   1.00
O933   O     0.16667   0.53959   0.81427   0.00000  Uiso   1.00
O934   O     0.16666   0.46041   0.68573   0.00000  Uiso   1.00
N935   N     0.20820   0.57100   0.61319   0.00000  Uiso   1.00
H936   H     0.23707   0.57506   0.59962   0.00000  Uiso   1.00
C937   C     0.18707   0.61544   0.61649   0.00000  Uiso   1.00
H938   H     0.18370   0.63163   0.58323   0.00000  Uiso   1.00
H939   H     0.20505   0.63935   0.63770   0.00000  Uiso   1.00
H940   H     0.15619   0.61084   0.63153   0.00000  Uiso   1.00
N941   N     0.08909   0.50607   0.87980   0.00000  Uiso   1.00
H942   H     0.09151   0.52214   0.84934   0.00000  Uiso   1.00
C943   C     0.05034   0.51510   0.90188   0.00000  Uiso   1.00
H944   H     0.05162   0.54885   0.91987   0.00000  Uiso   1.00
H945   H     0.04277   0.48590   0.92485   0.00000  Uiso   1.00
H946   H     0.02540   0.51731   0.87703   0.00000  Uiso   1.00
N947   N     0.24043   0.50061   0.88525   0.00000  Uiso   1.00
H948   H     0.26235   0.48091   0.90147   0.00000  Uiso   1.00
C949   C     0.25564   0.54677   0.87436   0.00000  Uiso   1.00
H950   H     0.26248   0.56645   0.90501   0.00000  Uiso   1.00
H951   H     0.23286   0.56661   0.85453   0.00000  Uiso   1.00
H952   H     0.28425   0.54354   0.85455   0.00000  Uiso   1.00
N953   N     0.11726   0.43283   0.61650   0.00000  Uiso   1.00
H954   H     0.08658   0.43397   0.60826   0.00000  Uiso   1.00
C955   C     0.13379   0.38591   0.61322   0.00000  Uiso   1.00
H956   H     0.13530   0.37459   0.57820   0.00000  Uiso   1.00
H957   H     0.11362   0.36107   0.63130   0.00000  Uiso   1.00
H958   H     0.16498   0.38444   0.62786   0.00000  Uiso   1.00
Br959  Br    0.05045   0.42494   0.81653   0.00000  Uiso   1.00
Br960  Br    0.28398   0.57342   0.68289   0.00000  Uiso   1.00
Br961  Br    0.28403   0.42774   0.81910   0.00000  Uiso   1.00
Br962  Br    0.05061   0.56426   0.67535   0.00000  Uiso   1.00
C963   C     0.42081   0.49990   0.74993   0.00000  Uiso   1.00
C964   C     0.57932   0.49997   0.75034   0.00000  Uiso   1.00
C965   C     0.49923   0.50018   0.66482   0.00000  Uiso   1.00
C966   C     0.49993   0.50002   0.83485   0.00000  Uiso   1.00
C967   C     0.47189   0.35843   0.72593   0.00000  Uiso   1.00
C968   C     0.52764   0.64158   0.77472   0.00000  Uiso   1.00
C969   C     0.52748   0.35778   0.77484   0.00000  Uiso   1.00
C970   C     0.47209   0.64220   0.72564   0.00000  Uiso   1.00
C971   C     0.35503   0.46832   0.77790   0.00000  Uiso   1.00
C972   C     0.64556   0.53046   0.72180   0.00000  Uiso   1.00
C973   C     0.64555   0.46870   0.77826   0.00000  Uiso   1.00
C974   C     0.35502   0.52910   0.72053   0.00000  Uiso   1.00
C975   C     0.51800   0.53485   0.54573   0.00000  Uiso   1.00
C976   C     0.45920   0.50141   0.95134   0.00000  Uiso   1.00
C977   C     0.53355   0.49994   0.95300   0.00000  Uiso   1.00
C978   C     0.47245   0.46830   0.54716   0.00000  Uiso   1.00
C979   C     0.51847   0.53574   0.59178   0.00000  Uiso   1.00
C980   C     0.45966   0.50269   0.90487   0.00000  Uiso   1.00
C981   C     0.53501   0.50045   0.90704   0.00000  Uiso   1.00
C982   C     0.47398   0.46704   0.59333   0.00000  Uiso   1.00
C983   C     0.49734   0.50085   0.61616   0.00000  Uiso   1.00
C984   C     0.49812   0.50064   0.88293   0.00000  Uiso   1.00
C985   C     0.49521   0.50126   0.52343   0.00000  Uiso   1.00
C986   C     0.49591   0.50038   0.97512   0.00000  Uiso   1.00
C987   C     0.62405   0.49993   0.75039   0.00000  Uiso   1.00
C988   C     0.37632   0.49932   0.74966   0.00000  Uiso   1.00
Cu989  Cu    0.50000   0.54689   0.75000   0.00000  Uiso   1.00
Cu990  Cu    0.50000   0.45311   0.75000   0.00000  Uiso   1.00
H991   H     0.44903   0.37738   0.70719   0.00000  Uiso   1.00
H992   H     0.54981   0.62276   0.79455   0.00000  Uiso   1.00
H993   H     0.54903   0.37605   0.79524   0.00000  Uiso   1.00
H994   H     0.44987   0.62388   0.70595   0.00000  Uiso   1.00
H995   H     0.53507   0.56100   0.52726   0.00000  Uiso   1.00
H996   H     0.43064   0.50256   0.96960   0.00000  Uiso   1.00
H997   H     0.56195   0.49942   0.97157   0.00000  Uiso   1.00
H998   H     0.45434   0.44261   0.52972   0.00000  Uiso   1.00
N999   N     0.50000   0.61736   0.75000   0.00000  Uiso   1.00
N1000  N     0.50000   0.38264   0.75000   0.00000  Uiso   1.00
O1001  O     0.43988   0.53958   0.74999   0.00000  Uiso   1.00
O1002  O     0.56012   0.46042   0.75000   0.00000  Uiso   1.00
O1003  O     0.56012   0.53958   0.75000   0.00000  Uiso   1.00
O1004  O     0.43988   0.46042   0.74999   0.00000  Uiso   1.00
O1005  O     0.50000   0.53959   0.68573   0.00000  Uiso   1.00
O1006  O     0.50000   0.46041   0.81427   0.00000  Uiso   1.00
O1007  O     0.50000   0.53959   0.81427   0.00000  Uiso   1.00
O1008  O     0.50000   0.46041   0.68573   0.00000  Uiso   1.00
N1009  N     0.54153   0.57100   0.61319   0.00000  Uiso   1.00
H1010  H     0.57040   0.57506   0.59962   0.00000  Uiso   1.00
C1011  C     0.52040   0.61544   0.61649   0.00000  Uiso   1.00
H1012  H     0.51703   0.63163   0.58323   0.00000  Uiso   1.00
H1013  H     0.53839   0.63935   0.63770   0.00000  Uiso   1.00
H1014  H     0.48952   0.61084   0.63153   0.00000  Uiso   1.00
N1015  N     0.42242   0.50607   0.87980   0.00000  Uiso   1.00
H1016  H     0.42485   0.52214   0.84934   0.00000  Uiso   1.00
C1017  C     0.38368   0.51510   0.90188   0.00000  Uiso   1.00
H1018  H     0.38495   0.54885   0.91987   0.00000  Uiso   1.00
H1019  H     0.37610   0.48590   0.92485   0.00000  Uiso   1.00
H1020  H     0.35874   0.51731   0.87703   0.00000  Uiso   1.00
N1021  N     0.57376   0.50061   0.88525   0.00000  Uiso   1.00
H1022  H     0.59569   0.48091   0.90147   0.00000  Uiso   1.00
C1023  C     0.58897   0.54677   0.87436   0.00000  Uiso   1.00
H1024  H     0.59581   0.56645   0.90501   0.00000  Uiso   1.00
H1025  H     0.56620   0.56661   0.85453   0.00000  Uiso   1.00
H1026  H     0.61758   0.54354   0.85455   0.00000  Uiso   1.00
N1027  N     0.45060   0.43283   0.61650   0.00000  Uiso   1.00
H1028  H     0.41991   0.43397   0.60826   0.00000  Uiso   1.00
C1029  C     0.46712   0.38591   0.61322   0.00000  Uiso   1.00
H1030  H     0.46863   0.37459   0.57820   0.00000  Uiso   1.00
H1031  H     0.44695   0.36107   0.63130   0.00000  Uiso   1.00
H1032  H     0.49832   0.38444   0.62786   0.00000  Uiso   1.00
Br1033 Br    0.38379   0.42494   0.81653   0.00000  Uiso   1.00
Br1034 Br    0.61731   0.57342   0.68289   0.00000  Uiso   1.00
Br1035 Br    0.61736   0.42774   0.81910   0.00000  Uiso   1.00
Br1036 Br    0.38394   0.56426   0.67535   0.00000  Uiso   1.00
C1037  C     0.75414   0.49990   0.74993   0.00000  Uiso   1.00
C1038  C     0.91265   0.49997   0.75034   0.00000  Uiso   1.00
C1039  C     0.83256   0.50018   0.66482   0.00000  Uiso   1.00
C1040  C     0.83326   0.50002   0.83485   0.00000  Uiso   1.00
C1041  C     0.80522   0.35843   0.72593   0.00000  Uiso   1.00
C1042  C     0.86097   0.64158   0.77472   0.00000  Uiso   1.00
C1043  C     0.86081   0.35778   0.77484   0.00000  Uiso   1.00
C1044  C     0.80543   0.64220   0.72564   0.00000  Uiso   1.00
C1045  C     0.68837   0.46832   0.77790   0.00000  Uiso   1.00
C1046  C     0.97889   0.53046   0.72180   0.00000  Uiso   1.00
C1047  C     0.97888   0.46870   0.77826   0.00000  Uiso   1.00
C1048  C     0.68835   0.52910   0.72053   0.00000  Uiso   1.00
C1049  C     0.85133   0.53485   0.54573   0.00000  Uiso   1.00
C1050  C     0.79254   0.50141   0.95134   0.00000  Uiso   1.00
C1051  C     0.86689   0.49994   0.95300   0.00000  Uiso   1.00
C1052  C     0.80578   0.46830   0.54716   0.00000  Uiso   1.00
C1053  C     0.85180   0.53574   0.59178   0.00000  Uiso   1.00
C1054  C     0.79299   0.50269   0.90487   0.00000  Uiso   1.00
C1055  C     0.86835   0.50045   0.90704   0.00000  Uiso   1.00
C1056  C     0.80732   0.46704   0.59333   0.00000  Uiso   1.00
C1057  C     0.83067   0.50085   0.61616   0.00000  Uiso   1.00
C1058  C     0.83145   0.50064   0.88293   0.00000  Uiso   1.00
C1059  C     0.82854   0.50126   0.52343   0.00000  Uiso   1.00
C1060  C     0.82924   0.50038   0.97512   0.00000  Uiso   1.00
C1061  C     0.95739   0.49993   0.75039   0.00000  Uiso   1.00
C1062  C     0.70965   0.49932   0.74966   0.00000  Uiso   1.00
Cu1063 Cu    0.83333   0.54689   0.75000   0.00000  Uiso   1.00
Cu1064 Cu    0.83333   0.45311   0.75000   0.00000  Uiso   1.00
H1065  H     0.78236   0.37738   0.70719   0.00000  Uiso   1.00
H1066  H     0.88314   0.62276   0.79455   0.00000  Uiso   1.00
H1067  H     0.88236   0.37605   0.79524   0.00000  Uiso   1.00
H1068  H     0.78320   0.62388   0.70595   0.00000  Uiso   1.00
H1069  H     0.86840   0.56100   0.52726   0.00000  Uiso   1.00
H1070  H     0.76397   0.50256   0.96960   0.00000  Uiso   1.00
H1071  H     0.89528   0.49942   0.97157   0.00000  Uiso   1.00
H1072  H     0.78767   0.44261   0.52972   0.00000  Uiso   1.00
N1073  N     0.83333   0.61736   0.75000   0.00000  Uiso   1.00
N1074  N     0.83333   0.38264   0.75000   0.00000  Uiso   1.00
O1075  O     0.77321   0.53958   0.74999   0.00000  Uiso   1.00
O1076  O     0.89345   0.46042   0.75000   0.00000  Uiso   1.00
O1077  O     0.89345   0.53958   0.75000   0.00000  Uiso   1.00
O1078  O     0.77321   0.46042   0.74999   0.00000  Uiso   1.00
O1079  O     0.83333   0.53959   0.68573   0.00000  Uiso   1.00
O1080  O     0.83334   0.46041   0.81427   0.00000  Uiso   1.00
O1081  O     0.83334   0.53959   0.81427   0.00000  Uiso   1.00
O1082  O     0.83333   0.46041   0.68573   0.00000  Uiso   1.00
N1083  N     0.87487   0.57100   0.61319   0.00000  Uiso   1.00
H1084  H     0.90374   0.57506   0.59962   0.00000  Uiso   1.00
C1085  C     0.85374   0.61544   0.61649   0.00000  Uiso   1.00
H1086  H     0.85037   0.63163   0.58323   0.00000  Uiso   1.00
H1087  H     0.87172   0.63935   0.63770   0.00000  Uiso   1.00
H1088  H     0.82285   0.61084   0.63153   0.00000  Uiso   1.00
N1089  N     0.75575   0.50607   0.87980   0.00000  Uiso   1.00
H1090  H     0.75818   0.52214   0.84934   0.00000  Uiso   1.00
C1091  C     0.71701   0.51510   0.90188   0.00000  Uiso   1.00
H1092  H     0.71828   0.54885   0.91987   0.00000  Uiso   1.00
H1093  H     0.70943   0.48590   0.92485   0.00000  Uiso   1.00
H1094  H     0.69207   0.51731   0.87703   0.00000  Uiso   1.00
N1095  N     0.90709   0.50061   0.88525   0.00000  Uiso   1.00
H1096  H     0.92902   0.48091   0.90147   0.00000  Uiso   1.00
C1097  C     0.92230   0.54677   0.87436   0.00000  Uiso   1.00
H1098  H     0.92915   0.56645   0.90501   0.00000  Uiso   1.00
H1099  H     0.89953   0.56661   0.85453   0.00000  Uiso   1.00
H1100  H     0.95091   0.54354   0.85455   0.00000  Uiso   1.00
N1101  N     0.78393   0.43283   0.61650   0.00000  Uiso   1.00
H1102  H     0.75325   0.43397   0.60826   0.00000  Uiso   1.00
C1103  C     0.80046   0.38591   0.61322   0.00000  Uiso   1.00
H1104  H     0.80197   0.37459   0.57820   0.00000  Uiso   1.00
H1105  H     0.78029   0.36107   0.63130   0.00000  Uiso   1.00
H1106  H     0.83165   0.38444   0.62786   0.00000  Uiso   1.00
Br1107 Br    0.71712   0.42494   0.81653   0.00000  Uiso   1.00
Br1108 Br    0.95065   0.57342   0.68289   0.00000  Uiso   1.00
Br1109 Br    0.95069   0.42774   0.81910   0.00000  Uiso   1.00
Br1110 Br    0.71728   0.56426   0.67535   0.00000  Uiso   1.00
C1111  C     0.08748   0.83323   0.74993   0.00000  Uiso   1.00
C1112  C     0.24598   0.83330   0.75034   0.00000  Uiso   1.00
C1113  C     0.16590   0.83352   0.66482   0.00000  Uiso   1.00
C1114  C     0.16659   0.83335   0.83485   0.00000  Uiso   1.00
C1115  C     0.13855   0.69176   0.72593   0.00000  Uiso   1.00
C1116  C     0.19430   0.97491   0.77472   0.00000  Uiso   1.00
C1117  C     0.19414   0.69111   0.77484   0.00000  Uiso   1.00
C1118  C     0.13876   0.97553   0.72564   0.00000  Uiso   1.00
C1119  C     0.02170   0.80165   0.77790   0.00000  Uiso   1.00
C1120  C     0.31223   0.86380   0.72180   0.00000  Uiso   1.00
C1121  C     0.31222   0.80203   0.77826   0.00000  Uiso   1.00
C1122  C     0.02169   0.86243   0.72053   0.00000  Uiso   1.00
C1123  C     0.18466   0.86818   0.54573   0.00000  Uiso   1.00
C1124  C     0.12587   0.83474   0.95134   0.00000  Uiso   1.00
C1125  C     0.20022   0.83327   0.95300   0.00000  Uiso   1.00
C1126  C     0.13911   0.80163   0.54716   0.00000  Uiso   1.00
C1127  C     0.18514   0.86907   0.59178   0.00000  Uiso   1.00
C1128  C     0.12632   0.83603   0.90487   0.00000  Uiso   1.00
C1129  C     0.20168   0.83378   0.90704   0.00000  Uiso   1.00
C1130  C     0.14065   0.80038   0.59333   0.00000  Uiso   1.00
C1131  C     0.16400   0.83418   0.61616   0.00000  Uiso   1.00
C1132  C     0.16478   0.83398   0.88293   0.00000  Uiso   1.00
C1133  C     0.16187   0.83460   0.52343   0.00000  Uiso   1.00
C1134  C     0.16257   0.83371   0.97512   0.00000  Uiso   1.00
C1135  C     0.29072   0.83326   0.75039   0.00000  Uiso   1.00
C1136  C     0.04299   0.83265   0.74966   0.00000  Uiso   1.00
Cu1137 Cu    0.16667   0.88022   0.75000   0.00000  Uiso   1.00
Cu1138 Cu    0.16667   0.78645   0.75000   0.00000  Uiso   1.00
H1139  H     0.11570   0.71071   0.70719   0.00000  Uiso   1.00
H1140  H     0.21648   0.95609   0.79455   0.00000  Uiso   1.00
H1141  H     0.21570   0.70938   0.79524   0.00000  Uiso   1.00
H1142  H     0.11653   0.95722   0.70595   0.00000  Uiso   1.00
H1143  H     0.20173   0.89433   0.52726   0.00000  Uiso   1.00
H1144  H     0.09730   0.83589   0.96960   0.00000  Uiso   1.00
H1145  H     0.22861   0.83276   0.97157   0.00000  Uiso   1.00
H1146  H     0.12100   0.77595   0.52972   0.00000  Uiso   1.00
N1147  N     0.16667   0.95069   0.75000   0.00000  Uiso   1.00
N1148  N     0.16667   0.71598   0.75000   0.00000  Uiso   1.00
O1149  O     0.10655   0.87291   0.74999   0.00000  Uiso   1.00
O1150  O     0.22679   0.79375   0.75000   0.00000  Uiso   1.00
O1151  O     0.22679   0.87291   0.75000   0.00000  Uiso   1.00
O1152  O     0.10655   0.79375   0.74999   0.00000  Uiso   1.00
O1153  O     0.16666   0.87293   0.68573   0.00000  Uiso   1.00
O1154  O     0.16667   0.79374   0.81427   0.00000  Uiso   1.00
O1155  O     0.16667   0.87293   0.81427   0.00000  Uiso   1.00
O1156  O     0.16666   0.79374   0.68573   0.00000  Uiso   1.00
N1157  N     0.20820   0.90433   0.61319   0.00000  Uiso   1.00
H1158  H     0.23707   0.90839   0.59962   0.00000  Uiso   1.00
C1159  C     0.18707   0.94877   0.61649   0.00000  Uiso   1.00
H1160  H     0.18370   0.96496   0.58323   0.00000  Uiso   1.00
H1161  H     0.20505   0.97269   0.63770   0.00000  Uiso   1.00
H1162  H     0.15619   0.94417   0.63153   0.00000  Uiso   1.00
N1163  N     0.08909   0.83941   0.87980   0.00000  Uiso   1.00
H1164  H     0.09151   0.85548   0.84934   0.00000  Uiso   1.00
C1165  C     0.05034   0.84844   0.90188   0.00000  Uiso   1.00
H1166  H     0.05162   0.88218   0.91987   0.00000  Uiso   1.00
H1167  H     0.04277   0.81923   0.92485   0.00000  Uiso   1.00
H1168  H     0.02540   0.85064   0.87703   0.00000  Uiso   1.00
N1169  N     0.24043   0.83394   0.88525   0.00000  Uiso   1.00
H1170  H     0.26235   0.81424   0.90147   0.00000  Uiso   1.00
C1171  C     0.25564   0.88011   0.87436   0.00000  Uiso   1.00
H1172  H     0.26248   0.89978   0.90501   0.00000  Uiso   1.00
H1173  H     0.23286   0.89994   0.85453   0.00000  Uiso   1.00
H1174  H     0.28425   0.87687   0.85455   0.00000  Uiso   1.00
N1175  N     0.11726   0.76616   0.61650   0.00000  Uiso   1.00
H1176  H     0.08658   0.76730   0.60826   0.00000  Uiso   1.00
C1177  C     0.13379   0.71924   0.61322   0.00000  Uiso   1.00
H1178  H     0.13530   0.70792   0.57820   0.00000  Uiso   1.00
H1179  H     0.11362   0.69440   0.63130   0.00000  Uiso   1.00
H1180  H     0.16498   0.71778   0.62786   0.00000  Uiso   1.00
Br1181 Br    0.05045   0.75828   0.81653   0.00000  Uiso   1.00
Br1182 Br    0.28398   0.90675   0.68289   0.00000  Uiso   1.00
Br1183 Br    0.28403   0.76108   0.81910   0.00000  Uiso   1.00
Br1184 Br    0.05061   0.89759   0.67535   0.00000  Uiso   1.00
C1185  C     0.42081   0.83323   0.74993   0.00000  Uiso   1.00
C1186  C     0.57932   0.83330   0.75034   0.00000  Uiso   1.00
C1187  C     0.49923   0.83352   0.66482   0.00000  Uiso   1.00
C1188  C     0.49993   0.83335   0.83485   0.00000  Uiso   1.00
C1189  C     0.47189   0.69176   0.72593   0.00000  Uiso   1.00
C1190  C     0.52764   0.97491   0.77472   0.00000  Uiso   1.00
C1191  C     0.52748   0.69111   0.77484   0.00000  Uiso   1.00
C1192  C     0.47209   0.97553   0.72564   0.00000  Uiso   1.00
C1193  C     0.35503   0.80165   0.77790   0.00000  Uiso   1.00
C1194  C     0.64556   0.86380   0.72180   0.00000  Uiso   1.00
C1195  C     0.64555   0.80203   0.77826   0.00000  Uiso   1.00
C1196  C     0.35502   0.86243   0.72053   0.00000  Uiso   1.00
C1197  C     0.51800   0.86818   0.54573   0.00000  Uiso   1.00
C1198  C     0.45920   0.83474   0.95134   0.00000  Uiso   1.00
C1199  C     0.53355   0.83327   0.95300   0.00000  Uiso   1.00
C1200  C     0.47245   0.80163   0.54716   0.00000  Uiso   1.00
C1201  C     0.51847   0.86907   0.59178   0.00000  Uiso   1.00
C1202  C     0.45966   0.83603   0.90487   0.00000  Uiso   1.00
C1203  C     0.53501   0.83378   0.90704   0.00000  Uiso   1.00
C1204  C     0.47398   0.80038   0.59333   0.00000  Uiso   1.00
C1205  C     0.49734   0.83418   0.61616   0.00000  Uiso   1.00
C1206  C     0.49812   0.83398   0.88293   0.00000  Uiso   1.00
C1207  C     0.49521   0.83460   0.52343   0.00000  Uiso   1.00
C1208  C     0.49591   0.83371   0.97512   0.00000  Uiso   1.00
C1209  C     0.62405   0.83326   0.75039   0.00000  Uiso   1.00
C1210  C     0.37632   0.83265   0.74966   0.00000  Uiso   1.00
Cu1211 Cu    0.50000   0.88022   0.75000   0.00000  Uiso   1.00
Cu1212 Cu    0.50000   0.78645   0.75000   0.00000  Uiso   1.00
H1213  H     0.44903   0.71071   0.70719   0.00000  Uiso   1.00
H1214  H     0.54981   0.95609   0.79455   0.00000  Uiso   1.00
H1215  H     0.54903   0.70938   0.79524   0.00000  Uiso   1.00
H1216  H     0.44987   0.95722   0.70595   0.00000  Uiso   1.00
H1217  H     0.53507   0.89433   0.52726   0.00000  Uiso   1.00
H1218  H     0.43064   0.83589   0.96960   0.00000  Uiso   1.00
H1219  H     0.56195   0.83276   0.97157   0.00000  Uiso   1.00
H1220  H     0.45434   0.77595   0.52972   0.00000  Uiso   1.00
N1221  N     0.50000   0.95069   0.75000   0.00000  Uiso   1.00
N1222  N     0.50000   0.71598   0.75000   0.00000  Uiso   1.00
O1223  O     0.43988   0.87291   0.74999   0.00000  Uiso   1.00
O1224  O     0.56012   0.79375   0.75000   0.00000  Uiso   1.00
O1225  O     0.56012   0.87291   0.75000   0.00000  Uiso   1.00
O1226  O     0.43988   0.79375   0.74999   0.00000  Uiso   1.00
O1227  O     0.50000   0.87293   0.68573   0.00000  Uiso   1.00
O1228  O     0.50000   0.79374   0.81427   0.00000  Uiso   1.00
O1229  O     0.50000   0.87293   0.81427   0.00000  Uiso   1.00
O1230  O     0.50000   0.79374   0.68573   0.00000  Uiso   1.00
N1231  N     0.54153   0.90433   0.61319   0.00000  Uiso   1.00
H1232  H     0.57040   0.90839   0.59962   0.00000  Uiso   1.00
C1233  C     0.52040   0.94877   0.61649   0.00000  Uiso   1.00
H1234  H     0.51703   0.96496   0.58323   0.00000  Uiso   1.00
H1235  H     0.53839   0.97269   0.63770   0.00000  Uiso   1.00
H1236  H     0.48952   0.94417   0.63153   0.00000  Uiso   1.00
N1237  N     0.42242   0.83941   0.87980   0.00000  Uiso   1.00
H1238  H     0.42485   0.85548   0.84934   0.00000  Uiso   1.00
C1239  C     0.38368   0.84844   0.90188   0.00000  Uiso   1.00
H1240  H     0.38495   0.88218   0.91987   0.00000  Uiso   1.00
H1241  H     0.37610   0.81923   0.92485   0.00000  Uiso   1.00
H1242  H     0.35874   0.85064   0.87703   0.00000  Uiso   1.00
N1243  N     0.57376   0.83394   0.88525   0.00000  Uiso   1.00
H1244  H     0.59569   0.81424   0.90147   0.00000  Uiso   1.00
C1245  C     0.58897   0.88011   0.87436   0.00000  Uiso   1.00
H1246  H     0.59581   0.89978   0.90501   0.00000  Uiso   1.00
H1247  H     0.56620   0.89994   0.85453   0.00000  Uiso   1.00
H1248  H     0.61758   0.87687   0.85455   0.00000  Uiso   1.00
N1249  N     0.45060   0.76616   0.61650   0.00000  Uiso   1.00
H1250  H     0.41991   0.76730   0.60826   0.00000  Uiso   1.00
C1251  C     0.46712   0.71924   0.61322   0.00000  Uiso   1.00
H1252  H     0.46863   0.70792   0.57820   0.00000  Uiso   1.00
H1253  H     0.44695   0.69440   0.63130   0.00000  Uiso   1.00
H1254  H     0.49832   0.71778   0.62786   0.00000  Uiso   1.00
Br1255 Br    0.38379   0.75828   0.81653   0.00000  Uiso   1.00
Br1256 Br    0.61731   0.90675   0.68289   0.00000  Uiso   1.00
Br1257 Br    0.61736   0.76108   0.81910   0.00000  Uiso   1.00
Br1258 Br    0.38394   0.89759   0.67535   0.00000  Uiso   1.00
C1259  C     0.75414   0.83323   0.74993   0.00000  Uiso   1.00
C1260  C     0.91265   0.83330   0.75034   0.00000  Uiso   1.00
C1261  C     0.83256   0.83352   0.66482   0.00000  Uiso   1.00
C1262  C     0.83326   0.83335   0.83485   0.00000  Uiso   1.00
C1263  C     0.80522   0.69176   0.72593   0.00000  Uiso   1.00
C1264  C     0.86097   0.97491   0.77472   0.00000  Uiso   1.00
C1265  C     0.86081   0.69111   0.77484   0.00000  Uiso   1.00
C1266  C     0.80543   0.97553   0.72564   0.00000  Uiso   1.00
C1267  C     0.68837   0.80165   0.77790   0.00000  Uiso   1.00
C1268  C     0.97889   0.86380   0.72180   0.00000  Uiso   1.00
C1269  C     0.97888   0.80203   0.77826   0.00000  Uiso   1.00
C1270  C     0.68835   0.86243   0.72053   0.00000  Uiso   1.00
C1271  C     0.85133   0.86818   0.54573   0.00000  Uiso   1.00
C1272  C     0.79254   0.83474   0.95134   0.00000  Uiso   1.00
C1273  C     0.86689   0.83327   0.95300   0.00000  Uiso   1.00
C1274  C     0.80578   0.80163   0.54716   0.00000  Uiso   1.00
C1275  C     0.85180   0.86907   0.59178   0.00000  Uiso   1.00
C1276  C     0.79299   0.83603   0.90487   0.00000  Uiso   1.00
C1277  C     0.86835   0.83378   0.90704   0.00000  Uiso   1.00
C1278  C     0.80732   0.80038   0.59333   0.00000  Uiso   1.00
C1279  C     0.83067   0.83418   0.61616   0.00000  Uiso   1.00
C1280  C     0.83145   0.83398   0.88293   0.00000  Uiso   1.00
C1281  C     0.82854   0.83460   0.52343   0.00000  Uiso   1.00
C1282  C     0.82924   0.83371   0.97512   0.00000  Uiso   1.00
C1283  C     0.95739   0.83326   0.75039   0.00000  Uiso   1.00
C1284  C     0.70965   0.83265   0.74966   0.00000  Uiso   1.00
Cu1285 Cu    0.83333   0.88022   0.75000   0.00000  Uiso   1.00
Cu1286 Cu    0.83333   0.78645   0.75000   0.00000  Uiso   1.00
H1287  H     0.78236   0.71071   0.70719   0.00000  Uiso   1.00
H1288  H     0.88314   0.95609   0.79455   0.00000  Uiso   1.00
H1289  H     0.88236   0.70938   0.79524   0.00000  Uiso   1.00
H1290  H     0.78320   0.95722   0.70595   0.00000  Uiso   1.00
H1291  H     0.86840   0.89433   0.52726   0.00000  Uiso   1.00
H1292  H     0.76397   0.83589   0.96960   0.00000  Uiso   1.00
H1293  H     0.89528   0.83276   0.97157   0.00000  Uiso   1.00
H1294  H     0.78767   0.77595   0.52972   0.00000  Uiso   1.00
N1295  N     0.83333   0.95069   0.75000   0.00000  Uiso   1.00
N1296  N     0.83333   0.71598   0.75000   0.00000  Uiso   1.00
O1297  O     0.77321   0.87291   0.74999   0.00000  Uiso   1.00
O1298  O     0.89345   0.79375   0.75000   0.00000  Uiso   1.00
O1299  O     0.89345   0.87291   0.75000   0.00000  Uiso   1.00
O1300  O     0.77321   0.79375   0.74999   0.00000  Uiso   1.00
O1301  O     0.83333   0.87293   0.68573   0.00000  Uiso   1.00
O1302  O     0.83334   0.79374   0.81427   0.00000  Uiso   1.00
O1303  O     0.83334   0.87293   0.81427   0.00000  Uiso   1.00
O1304  O     0.83333   0.79374   0.68573   0.00000  Uiso   1.00
N1305  N     0.87487   0.90433   0.61319   0.00000  Uiso   1.00
H1306  H     0.90374   0.90839   0.59962   0.00000  Uiso   1.00
C1307  C     0.85374   0.94877   0.61649   0.00000  Uiso   1.00
H1308  H     0.85037   0.96496   0.58323   0.00000  Uiso   1.00
H1309  H     0.87172   0.97269   0.63770   0.00000  Uiso   1.00
H1310  H     0.82285   0.94417   0.63153   0.00000  Uiso   1.00
N1311  N     0.75575   0.83941   0.87980   0.00000  Uiso   1.00
H1312  H     0.75818   0.85548   0.84934   0.00000  Uiso   1.00
C1313  C     0.71701   0.84844   0.90188   0.00000  Uiso   1.00
H1314  H     0.71828   0.88218   0.91987   0.00000  Uiso   1.00
H1315  H     0.70943   0.81923   0.92485   0.00000  Uiso   1.00
H1316  H     0.69207   0.85064   0.87703   0.00000  Uiso   1.00
N1317  N     0.90709   0.83394   0.88525   0.00000  Uiso   1.00
H1318  H     0.92902   0.81424   0.90147   0.00000  Uiso   1.00
C1319  C     0.92230   0.88011   0.87436   0.00000  Uiso   1.00
H1320  H     0.92915   0.89978   0.90501   0.00000  Uiso   1.00
H1321  H     0.89953   0.89994   0.85453   0.00000  Uiso   1.00
H1322  H     0.95091   0.87687   0.85455   0.00000  Uiso   1.00
N1323  N     0.78393   0.76616   0.61650   0.00000  Uiso   1.00
H1324  H     0.75325   0.76730   0.60826   0.00000  Uiso   1.00
C1325  C     0.80046   0.71924   0.61322   0.00000  Uiso   1.00
H1326  H     0.80197   0.70792   0.57820   0.00000  Uiso   1.00
H1327  H     0.78029   0.69440   0.63130   0.00000  Uiso   1.00
H1328  H     0.83165   0.71778   0.62786   0.00000  Uiso   1.00
Br1329 Br    0.71712   0.75828   0.81653   0.00000  Uiso   1.00
Br1330 Br    0.95065   0.90675   0.68289   0.00000  Uiso   1.00
Br1331 Br    0.95069   0.76108   0.81910   0.00000  Uiso   1.00
Br1332 Br    0.71728   0.89759   0.67535   0.00000  Uiso   1.00
loop_
_geom_bond_atom_site_label_1
_geom_bond_atom_site_label_2
_geom_bond_distance
_geom_bond_site_symmetry_2
_ccdc_geom_bond_type
C1     C26     1.450   .     S
C1     O39     1.295   .     A
C1     O42     1.286   .     A
C2     C25     1.458   .     S
C2     O41     1.291   .     A
C2     O40     1.293   .     A
C3     O46     1.298   .     A
C3     O43     1.295   .     A
C3     C21     1.475   .     S
C4     C22     1.457   .     S
C4     O45     1.288   .     A
C4     O44     1.295   .     A
C5     H29     1.080   .     S
C5     N38     1.365   .     A
C5     C452    1.416   1_545 S
C6     N37     1.366   .     A
C6     H30     1.081   .     S
C6     C229    1.415   .     S
C7     N38     1.366   .     A
C7     H31     1.075   .     S
C7     C450    1.415   1_545 S
C8     N37     1.367   .     A
C8     H32     1.078   .     S
C8     C227    1.416   .     S
C9     C26     1.410   .     A
C9     Br71    1.940   .     S
C9     C159    1.395   1_455 S
C10    C25     1.411   .     A
C10    Br72    1.930   .     S
C10    C86     1.395   .     S
C11    Br73    1.930   .     S
C11    C25     1.411   .     A
C11    C83     1.395   .     S
C12    Br74    1.936   .     S
C12    C26     1.405   .     A
C12    C158    1.395   1_455 S
C13    H33     1.084   .     S
C13    C17     1.395   .     A
C13    C23     1.394   .     A
C14    H34     1.081   .     S
C14    C18     1.407   .     A
C14    C24     1.398   .     A
C15    C19     1.392   .     A
C15    H35     1.084   .     S
C15    C24     1.395   .     A
C16    C20     1.399   .     A
C16    H36     1.084   .     S
C16    C23     1.395   .     A
C17    N47     1.420   .     S
C17    C21     1.416   .     A
C18    C22     1.417   .     A
C18    N53     1.436   .     S
C19    C22     1.409   .     A
C19    N59     1.422   .     S
C20    N65     1.422   .     S
C20    C21     1.416   .     A
C23    C690    1.463   1_554 S
C24    C689    1.463   .     S
Cu27   O45     1.956   .     S
Cu27   N37     2.013   .     S
Cu27   O39     1.971   .     S
Cu27   Cu28    2.679   .     S
Cu27   O43     1.958   .     S
Cu27   O41     1.969   .     S
Cu28   O40     1.971   .     S
Cu28   O46     1.956   .     S
Cu28   N38     2.013   .     S
Cu28   O44     1.958   .     S
Cu28   O42     1.969   .     S
N47    H48     1.032   .     S
N47    C49     1.446   .     S
C49    H50     1.111   .     S
C49    H51     1.110   .     S
C49    H52     1.111   .     S
N53    C55     1.449   .     S
N53    H54     1.031   .     S
C55    H56     1.111   .     S
C55    H57     1.111   .     S
C55    H58     1.111   .     S
N59    H60     1.032   .     S
N59    C61     1.446   .     S
C61    H64     1.110   .     S
C61    H62     1.112   .     S
C61    H63     1.108   .     S
N65    C67     1.447   .     S
N65    H66     1.032   .     S
C67    H70     1.111   .     S
C67    H69     1.109   .     S
C67    H68     1.111   .     S
C75    C100    1.450   .     S
C75    O113    1.295   .     A
C75    O116    1.286   .     A
C76    C99     1.458   .     S
C76    O115    1.291   .     A
C76    O114    1.293   .     A
C77    O120    1.298   .     A
C77    O117    1.295   .     A
C77    C95     1.475   .     S
C78    C96     1.457   .     S
C78    O119    1.288   .     A
C78    O118    1.295   .     A
C79    H103    1.080   .     S
C79    N112    1.365   .     A
C79    C526    1.416   1_545 S
C80    N111    1.366   .     A
C80    H104    1.081   .     S
C80    C303    1.415   .     S
C81    N112    1.366   .     A
C81    H105    1.075   .     S
C81    C524    1.415   1_545 S
C82    N111    1.367   .     A
C82    H106    1.078   .     S
C82    C301    1.416   .     S
C83    C100    1.410   .     A
C83    Br145   1.940   .     S
C84    C99     1.411   .     A
C84    Br146   1.930   .     S
C84    C160    1.395   .     S
C85    Br147   1.930   .     S
C85    C99     1.411   .     A
C85    C157    1.395   .     S
C86    Br148   1.936   .     S
C86    C100    1.405   .     A
C87    H107    1.084   .     S
C87    C91     1.395   .     A
C87    C97     1.394   .     A
C88    H108    1.081   .     S
C88    C92     1.407   .     A
C88    C98     1.398   .     A
C89    C93     1.392   .     A
C89    H109    1.084   .     S
C89    C98     1.395   .     A
C90    C94     1.399   .     A
C90    H110    1.084   .     S
C90    C97     1.395   .     A
C91    N121    1.420   .     S
C91    C95     1.416   .     A
C92    C96     1.417   .     A
C92    N127    1.436   .     S
C93    C96     1.409   .     A
C93    N133    1.422   .     S
C94    N139    1.422   .     S
C94    C95     1.416   .     A
C97    C764    1.463   1_554 S
C98    C763    1.463   .     S
Cu101  O119    1.956   .     S
Cu101  N111    2.013   .     S
Cu101  O113    1.971   .     S
Cu101  Cu102   2.679   .     S
Cu101  O117    1.958   .     S
Cu101  O115    1.969   .     S
Cu102  O114    1.971   .     S
Cu102  O120    1.956   .     S
Cu102  N112    2.013   .     S
Cu102  O118    1.958   .     S
Cu102  O116    1.969   .     S
N121   H122    1.032   .     S
N121   C123    1.446   .     S
C123   H124    1.111   .     S
C123   H125    1.110   .     S
C123   H126    1.111   .     S
N127   C129    1.449   .     S
N127   H128    1.031   .     S
C129   H130    1.111   .     S
C129   H131    1.111   .     S
C129   H132    1.111   .     S
N133   H134    1.032   .     S
N133   C135    1.446   .     S
C135   H138    1.110   .     S
C135   H136    1.112   .     S
C135   H137    1.108   .     S
N139   C141    1.447   .     S
N139   H140    1.032   .     S
C141   H144    1.111   .     S
C141   H143    1.109   .     S
C141   H142    1.111   .     S
C149   C174    1.450   .     S
C149   O187    1.295   .     A
C149   O190    1.286   .     A
C150   C173    1.458   .     S
C150   O189    1.291   .     A
C150   O188    1.293   .     A
C151   O194    1.298   .     A
C151   O191    1.295   .     A
C151   C169    1.475   .     S
C152   C170    1.457   .     S
C152   O193    1.288   .     A
C152   O192    1.295   .     A
C153   H177    1.080   .     S
C153   N186    1.365   .     A
C153   C600    1.416   1_545 S
C154   N185    1.366   .     A
C154   H178    1.081   .     S
C154   C377    1.415   .     S
C155   N186    1.366   .     A
C155   H179    1.075   .     S
C155   C598    1.415   1_545 S
C156   N185    1.367   .     A
C156   H180    1.078   .     S
C156   C375    1.416   .     S
C157   C174    1.410   .     A
C157   Br219   1.940   .     S
C158   C173    1.411   .     A
C158   Br220   1.930   .     S
C158   C12     1.395   1_655 S
C159   Br221   1.930   .     S
C159   C173    1.411   .     A
C159   C9      1.395   1_655 S
C160   Br222   1.936   .     S
C160   C174    1.405   .     A
C161   H181    1.084   .     S
C161   C165    1.395   .     A
C161   C171    1.394   .     A
C162   H182    1.081   .     S
C162   C166    1.407   .     A
C162   C172    1.398   .     A
C163   C167    1.392   .     A
C163   H183    1.084   .     S
C163   C172    1.395   .     A
C164   C168    1.399   .     A
C164   H184    1.084   .     S
C164   C171    1.395   .     A
C165   N195    1.420   .     S
C165   C169    1.416   .     A
C166   C170    1.417   .     A
C166   N201    1.436   .     S
C167   C170    1.409   .     A
C167   N207    1.422   .     S
C168   N213    1.422   .     S
C168   C169    1.416   .     A
C171   C838    1.463   1_554 S
C172   C837    1.463   .     S
Cu175  O193    1.956   .     S
Cu175  N185    2.013   .     S
Cu175  O187    1.971   .     S
Cu175  Cu176   2.679   .     S
Cu175  O191    1.958   .     S
Cu175  O189    1.969   .     S
Cu176  O188    1.971   .     S
Cu176  O194    1.956   .     S
Cu176  N186    2.013   .     S
Cu176  O192    1.958   .     S
Cu176  O190    1.969   .     S
N195   H196    1.032   .     S
N195   C197    1.446   .     S
C197   H198    1.111   .     S
C197   H199    1.110   .     S
C197   H200    1.111   .     S
N201   C203    1.449   .     S
N201   H202    1.031   .     S
C203   H204    1.111   .     S
C203   H205    1.111   .     S
C203   H206    1.111   .     S
N207   H208    1.032   .     S
N207   C209    1.446   .     S
C209   H212    1.110   .     S
C209   H210    1.112   .     S
C209   H211    1.108   .     S
N213   C215    1.447   .     S
N213   H214    1.032   .     S
C215   H218    1.111   .     S
C215   H217    1.109   .     S
C215   H216    1.111   .     S
C223   C248    1.450   .     S
C223   O261    1.295   .     A
C223   O264    1.286   .     A
C224   C247    1.458   .     S
C224   O263    1.291   .     A
C224   O262    1.293   .     A
C225   O268    1.298   .     A
C225   O265    1.295   .     A
C225   C243    1.475   .     S
C226   C244    1.457   .     S
C226   O267    1.288   .     A
C226   O266    1.295   .     A
C227   H251    1.080   .     S
C227   N260    1.365   .     A
C228   N259    1.366   .     A
C228   H252    1.081   .     S
C228   C451    1.415   .     S
C229   N260    1.366   .     A
C229   H253    1.075   .     S
C230   N259    1.367   .     A
C230   H254    1.078   .     S
C230   C449    1.416   .     S
C231   C248    1.410   .     A
C231   Br293   1.940   .     S
C231   C381    1.395   1_455 S
C232   C247    1.411   .     A
C232   Br294   1.930   .     S
C232   C308    1.395   .     S
C233   Br295   1.930   .     S
C233   C247    1.411   .     A
C233   C305    1.395   .     S
C234   Br296   1.936   .     S
C234   C248    1.405   .     A
C234   C380    1.395   1_455 S
C235   H255    1.084   .     S
C235   C239    1.395   .     A
C235   C245    1.394   .     A
C236   H256    1.081   .     S
C236   C240    1.407   .     A
C236   C246    1.398   .     A
C237   C241    1.392   .     A
C237   H257    1.084   .     S
C237   C246    1.395   .     A
C238   C242    1.399   .     A
C238   H258    1.084   .     S
C238   C245    1.395   .     A
C239   N269    1.420   .     S
C239   C243    1.416   .     A
C240   C244    1.417   .     A
C240   N275    1.436   .     S
C241   C244    1.409   .     A
C241   N281    1.422   .     S
C242   N287    1.422   .     S
C242   C243    1.416   .     A
C245   C912    1.463   1_554 S
C246   C911    1.463   .     S
Cu249  O267    1.956   .     S
Cu249  N259    2.013   .     S
Cu249  O261    1.971   .     S
Cu249  Cu250   2.679   .     S
Cu249  O265    1.958   .     S
Cu249  O263    1.969   .     S
Cu250  O262    1.971   .     S
Cu250  O268    1.956   .     S
Cu250  N260    2.013   .     S
Cu250  O266    1.958   .     S
Cu250  O264    1.969   .     S
N269   H270    1.032   .     S
N269   C271    1.446   .     S
C271   H272    1.111   .     S
C271   H273    1.110   .     S
C271   H274    1.111   .     S
N275   C277    1.449   .     S
N275   H276    1.031   .     S
C277   H278    1.111   .     S
C277   H279    1.111   .     S
C277   H280    1.111   .     S
N281   H282    1.032   .     S
N281   C283    1.446   .     S
C283   H286    1.110   .     S
C283   H284    1.112   .     S
C283   H285    1.108   .     S
N287   C289    1.447   .     S
N287   H288    1.032   .     S
C289   H292    1.111   .     S
C289   H291    1.109   .     S
C289   H290    1.111   .     S
C297   C322    1.450   .     S
C297   O335    1.295   .     A
C297   O338    1.286   .     A
C298   C321    1.458   .     S
C298   O337    1.291   .     A
C298   O336    1.293   .     A
C299   O342    1.298   .     A
C299   O339    1.295   .     A
C299   C317    1.475   .     S
C300   C318    1.457   .     S
C300   O341    1.288   .     A
C300   O340    1.295   .     A
C301   H325    1.080   .     S
C301   N334    1.365   .     A
C302   N333    1.366   .     A
C302   H326    1.081   .     S
C302   C525    1.415   .     S
C303   N334    1.366   .     A
C303   H327    1.075   .     S
C304   N333    1.367   .     A
C304   H328    1.078   .     S
C304   C523    1.416   .     S
C305   C322    1.410   .     A
C305   Br367   1.940   .     S
C306   C321    1.411   .     A
C306   Br368   1.930   .     S
C306   C382    1.395   .     S
C307   Br369   1.930   .     S
C307   C321    1.411   .     A
C307   C379    1.395   .     S
C308   Br370   1.936   .     S
C308   C322    1.405   .     A
C309   H329    1.084   .     S
C309   C313    1.395   .     A
C309   C319    1.394   .     A
C310   H330    1.081   .     S
C310   C314    1.407   .     A
C310   C320    1.398   .     A
C311   C315    1.392   .     A
C311   H331    1.084   .     S
C311   C320    1.395   .     A
C312   C316    1.399   .     A
C312   H332    1.084   .     S
C312   C319    1.395   .     A
C313   N343    1.420   .     S
C313   C317    1.416   .     A
C314   C318    1.417   .     A
C314   N349    1.436   .     S
C315   C318    1.409   .     A
C315   N355    1.422   .     S
C316   N361    1.422   .     S
C316   C317    1.416   .     A
C319   C986    1.463   1_554 S
C320   C985    1.463   .     S
Cu323  O341    1.956   .     S
Cu323  N333    2.013   .     S
Cu323  O335    1.971   .     S
Cu323  Cu324   2.679   .     S
Cu323  O339    1.958   .     S
Cu323  O337    1.969   .     S
Cu324  O336    1.971   .     S
Cu324  O342    1.956   .     S
Cu324  N334    2.013   .     S
Cu324  O340    1.958   .     S
Cu324  O338    1.969   .     S
N343   H344    1.032   .     S
N343   C345    1.446   .     S
C345   H346    1.111   .     S
C345   H347    1.110   .     S
C345   H348    1.111   .     S
N349   C351    1.449   .     S
N349   H350    1.031   .     S
C351   H352    1.111   .     S
C351   H353    1.111   .     S
C351   H354    1.111   .     S
N355   H356    1.032   .     S
N355   C357    1.446   .     S
C357   H360    1.110   .     S
C357   H358    1.112   .     S
C357   H359    1.108   .     S
N361   C363    1.447   .     S
N361   H362    1.032   .     S
C363   H366    1.111   .     S
C363   H365    1.109   .     S
C363   H364    1.111   .     S
C371   C396    1.450   .     S
C371   O409    1.295   .     A
C371   O412    1.286   .     A
C372   C395    1.458   .     S
C372   O411    1.291   .     A
C372   O410    1.293   .     A
C373   O416    1.298   .     A
C373   O413    1.295   .     A
C373   C391    1.475   .     S
C374   C392    1.457   .     S
C374   O415    1.288   .     A
C374   O414    1.295   .     A
C375   H399    1.080   .     S
C375   N408    1.365   .     A
C376   N407    1.366   .     A
C376   H400    1.081   .     S
C376   C599    1.415   .     S
C377   N408    1.366   .     A
C377   H401    1.075   .     S
C378   N407    1.367   .     A
C378   H402    1.078   .     S
C378   C597    1.416   .     S
C379   C396    1.410   .     A
C379   Br441   1.940   .     S
C380   C395    1.411   .     A
C380   Br442   1.930   .     S
C380   C234    1.395   1_655 S
C381   Br443   1.930   .     S
C381   C395    1.411   .     A
C381   C231    1.395   1_655 S
C382   Br444   1.936   .     S
C382   C396    1.405   .     A
C383   H403    1.084   .     S
C383   C387    1.395   .     A
C383   C393    1.394   .     A
C384   H404    1.081   .     S
C384   C388    1.407   .     A
C384   C394    1.398   .     A
C385   C389    1.392   .     A
C385   H405    1.084   .     S
C385   C394    1.395   .     A
C386   C390    1.399   .     A
C386   H406    1.084   .     S
C386   C393    1.395   .     A
C387   N417    1.420   .     S
C387   C391    1.416   .     A
C388   C392    1.417   .     A
C388   N423    1.436   .     S
C389   C392    1.409   .     A
C389   N429    1.422   .     S
C390   N435    1.422   .     S
C390   C391    1.416   .     A
C393   C1060   1.463   1_554 S
C394   C1059   1.463   .     S
Cu397  O415    1.956   .     S
Cu397  N407    2.013   .     S
Cu397  O409    1.971   .     S
Cu397  Cu398   2.679   .     S
Cu397  O413    1.958   .     S
Cu397  O411    1.969   .     S
Cu398  O410    1.971   .     S
Cu398  O416    1.956   .     S
Cu398  N408    2.013   .     S
Cu398  O414    1.958   .     S
Cu398  O412    1.969   .     S
N417   H418    1.032   .     S
N417   C419    1.446   .     S
C419   H420    1.111   .     S
C419   H421    1.110   .     S
C419   H422    1.111   .     S
N423   C425    1.449   .     S
N423   H424    1.031   .     S
C425   H426    1.111   .     S
C425   H427    1.111   .     S
C425   H428    1.111   .     S
N429   H430    1.032   .     S
N429   C431    1.446   .     S
C431   H434    1.110   .     S
C431   H432    1.112   .     S
C431   H433    1.108   .     S
N435   C437    1.447   .     S
N435   H436    1.032   .     S
C437   H440    1.111   .     S
C437   H439    1.109   .     S
C437   H438    1.111   .     S
C445   C470    1.450   .     S
C445   O483    1.295   .     A
C445   O486    1.286   .     A
C446   C469    1.458   .     S
C446   O485    1.291   .     A
C446   O484    1.293   .     A
C447   O490    1.298   .     A
C447   O487    1.295   .     A
C447   C465    1.475   .     S
C448   C466    1.457   .     S
C448   O489    1.288   .     A
C448   O488    1.295   .     A
C449   H473    1.080   .     S
C449   N482    1.365   .     A
C450   N481    1.366   .     A
C450   H474    1.081   .     S
C450   C7      1.415   1_565 S
C451   N482    1.366   .     A
C451   H475    1.075   .     S
C452   N481    1.367   .     A
C452   H476    1.078   .     S
C452   C5      1.416   1_565 S
C453   C470    1.410   .     A
C453   Br515   1.940   .     S
C453   C603    1.395   1_455 S
C454   C469    1.411   .     A
C454   Br516   1.930   .     S
C454   C530    1.395   .     S
C455   Br517   1.930   .     S
C455   C469    1.411   .     A
C455   C527    1.395   .     S
C456   Br518   1.936   .     S
C456   C470    1.405   .     A
C456   C602    1.395   1_455 S
C457   H477    1.084   .     S
C457   C461    1.395   .     A
C457   C467    1.394   .     A
C458   H478    1.081   .     S
C458   C462    1.407   .     A
C458   C468    1.398   .     A
C459   C463    1.392   .     A
C459   H479    1.084   .     S
C459   C468    1.395   .     A
C460   C464    1.399   .     A
C460   H480    1.084   .     S
C460   C467    1.395   .     A
C461   N491    1.420   .     S
C461   C465    1.416   .     A
C462   C466    1.417   .     A
C462   N497    1.436   .     S
C463   C466    1.409   .     A
C463   N503    1.422   .     S
C464   N509    1.422   .     S
C464   C465    1.416   .     A
C467   C1134   1.463   1_554 S
C468   C1133   1.463   .     S
Cu471  O489    1.956   .     S
Cu471  N481    2.013   .     S
Cu471  O483    1.971   .     S
Cu471  Cu472   2.679   .     S
Cu471  O487    1.958   .     S
Cu471  O485    1.969   .     S
Cu472  O484    1.971   .     S
Cu472  O490    1.956   .     S
Cu472  N482    2.013   .     S
Cu472  O488    1.958   .     S
Cu472  O486    1.969   .     S
N491   H492    1.032   .     S
N491   C493    1.446   .     S
C493   H494    1.111   .     S
C493   H495    1.110   .     S
C493   H496    1.111   .     S
N497   C499    1.449   .     S
N497   H498    1.031   .     S
C499   H500    1.111   .     S
C499   H501    1.111   .     S
C499   H502    1.111   .     S
N503   H504    1.032   .     S
N503   C505    1.446   .     S
C505   H508    1.110   .     S
C505   H506    1.112   .     S
C505   H507    1.108   .     S
N509   C511    1.447   .     S
N509   H510    1.032   .     S
C511   H514    1.111   .     S
C511   H513    1.109   .     S
C511   H512    1.111   .     S
C519   C544    1.450   .     S
C519   O557    1.295   .     A
C519   O560    1.286   .     A
C520   C543    1.458   .     S
C520   O559    1.291   .     A
C520   O558    1.293   .     A
C521   O564    1.298   .     A
C521   O561    1.295   .     A
C521   C539    1.475   .     S
C522   C540    1.457   .     S
C522   O563    1.288   .     A
C522   O562    1.295   .     A
C523   H547    1.080   .     S
C523   N556    1.365   .     A
C524   N555    1.366   .     A
C524   H548    1.081   .     S
C524   C81     1.415   1_565 S
C525   N556    1.366   .     A
C525   H549    1.075   .     S
C526   N555    1.367   .     A
C526   H550    1.078   .     S
C526   C79     1.416   1_565 S
C527   C544    1.410   .     A
C527   Br589   1.940   .     S
C528   C543    1.411   .     A
C528   Br590   1.930   .     S
C528   C604    1.395   .     S
C529   Br591   1.930   .     S
C529   C543    1.411   .     A
C529   C601    1.395   .     S
C530   Br592   1.936   .     S
C530   C544    1.405   .     A
C531   H551    1.084   .     S
C531   C535    1.395   .     A
C531   C541    1.394   .     A
C532   H552    1.081   .     S
C532   C536    1.407   .     A
C532   C542    1.398   .     A
C533   C537    1.392   .     A
C533   H553    1.084   .     S
C533   C542    1.395   .     A
C534   C538    1.399   .     A
C534   H554    1.084   .     S
C534   C541    1.395   .     A
C535   N565    1.420   .     S
C535   C539    1.416   .     A
C536   C540    1.417   .     A
C536   N571    1.436   .     S
C537   C540    1.409   .     A
C537   N577    1.422   .     S
C538   N583    1.422   .     S
C538   C539    1.416   .     A
C541   C1208   1.463   1_554 S
C542   C1207   1.463   .     S
Cu545  O563    1.956   .     S
Cu545  N555    2.013   .     S
Cu545  O557    1.971   .     S
Cu545  Cu546   2.679   .     S
Cu545  O561    1.958   .     S
Cu545  O559    1.969   .     S
Cu546  O558    1.971   .     S
Cu546  O564    1.956   .     S
Cu546  N556    2.013   .     S
Cu546  O562    1.958   .     S
Cu546  O560    1.969   .     S
N565   H566    1.032   .     S
N565   C567    1.446   .     S
C567   H568    1.111   .     S
C567   H569    1.110   .     S
C567   H570    1.111   .     S
N571   C573    1.449   .     S
N571   H572    1.031   .     S
C573   H574    1.111   .     S
C573   H575    1.111   .     S
C573   H576    1.111   .     S
N577   H578    1.032   .     S
N577   C579    1.446   .     S
C579   H582    1.110   .     S
C579   H580    1.112   .     S
C579   H581    1.108   .     S
N583   C585    1.447   .     S
N583   H584    1.032   .     S
C585   H588    1.111   .     S
C585   H587    1.109   .     S
C585   H586    1.111   .     S
C593   C618    1.450   .     S
C593   O631    1.295   .     A
C593   O634    1.286   .     A
C594   C617    1.458   .     S
C594   O633    1.291   .     A
C594   O632    1.293   .     A
C595   O638    1.298   .     A
C595   O635    1.295   .     A
C595   C613    1.475   .     S
C596   C614    1.457   .     S
C596   O637    1.288   .     A
C596   O636    1.295   .     A
C597   H621    1.080   .     S
C597   N630    1.365   .     A
C598   N629    1.366   .     A
C598   H622    1.081   .     S
C598   C155    1.415   1_565 S
C599   N630    1.366   .     A
C599   H623    1.075   .     S
C600   N629    1.367   .     A
C600   H624    1.078   .     S
C600   C153    1.416   1_565 S
C601   C618    1.410   .     A
C601   Br663   1.940   .     S
C602   C617    1.411   .     A
C602   Br664   1.930   .     S
C602   C456    1.395   1_655 S
C603   Br665   1.930   .     S
C603   C617    1.411   .     A
C603   C453    1.395   1_655 S
C604   Br666   1.936   .     S
C604   C618    1.405   .     A
C605   H625    1.084   .     S
C605   C609    1.395   .     A
C605   C615    1.394   .     A
C606   H626    1.081   .     S
C606   C610    1.407   .     A
C606   C616    1.398   .     A
C607   C611    1.392   .     A
C607   H627    1.084   .     S
C607   C616    1.395   .     A
C608   C612    1.399   .     A
C608   H628    1.084   .     S
C608   C615    1.395   .     A
C609   N639    1.420   .     S
C609   C613    1.416   .     A
C610   C614    1.417   .     A
C610   N645    1.436   .     S
C611   C614    1.409   .     A
C611   N651    1.422   .     S
C612   N657    1.422   .     S
C612   C613    1.416   .     A
C615   C1282   1.463   1_554 S
C616   C1281   1.463   .     S
Cu619  O637    1.956   .     S
Cu619  N629    2.013   .     S
Cu619  O631    1.971   .     S
Cu619  Cu620   2.679   .     S
Cu619  O635    1.958   .     S
Cu619  O633    1.969   .     S
Cu620  O632    1.971   .     S
Cu620  O638    1.956   .     S
Cu620  N630    2.013   .     S
Cu620  O636    1.958   .     S
Cu620  O634    1.969   .     S
N639   H640    1.032   .     S
N639   C641    1.446   .     S
C641   H642    1.111   .     S
C641   H643    1.110   .     S
C641   H644    1.111   .     S
N645   C647    1.449   .     S
N645   H646    1.031   .     S
C647   H648    1.111   .     S
C647   H649    1.111   .     S
C647   H650    1.111   .     S
N651   H652    1.032   .     S
N651   C653    1.446   .     S
C653   H656    1.110   .     S
C653   H654    1.112   .     S
C653   H655    1.108   .     S
N657   C659    1.447   .     S
N657   H658    1.032   .     S
C659   H662    1.111   .     S
C659   H661    1.109   .     S
C659   H660    1.111   .     S
C667   C692    1.450   .     S
C667   O705    1.295   .     A
C667   O708    1.286   .     A
C668   C691    1.458   .     S
C668   O707    1.291   .     A
C668   O706    1.293   .     A
C669   O712    1.298   .     A
C669   O709    1.295   .     A
C669   C687    1.475   .     S
C670   C688    1.457   .     S
C670   O711    1.288   .     A
C670   O710    1.295   .     A
C671   H695    1.080   .     S
C671   N704    1.365   .     A
C671   C1118   1.416   1_545 S
C672   N703    1.366   .     A
C672   H696    1.081   .     S
C672   C895    1.415   .     S
C673   N704    1.366   .     A
C673   H697    1.075   .     S
C673   C1116   1.415   1_545 S
C674   N703    1.367   .     A
C674   H698    1.078   .     S
C674   C893    1.416   .     S
C675   C692    1.410   .     A
C675   Br737   1.940   .     S
C675   C825    1.395   1_455 S
C676   C691    1.411   .     A
C676   Br738   1.930   .     S
C676   C752    1.395   .     S
C677   Br739   1.930   .     S
C677   C691    1.411   .     A
C677   C749    1.395   .     S
C678   Br740   1.936   .     S
C678   C692    1.405   .     A
C678   C824    1.395   1_455 S
C679   H699    1.084   .     S
C679   C683    1.395   .     A
C679   C689    1.394   .     A
C680   H700    1.081   .     S
C680   C684    1.407   .     A
C680   C690    1.398   .     A
C681   C685    1.392   .     A
C681   H701    1.084   .     S
C681   C690    1.395   .     A
C682   C686    1.399   .     A
C682   H702    1.084   .     S
C682   C689    1.395   .     A
C683   N713    1.420   .     S
C683   C687    1.416   .     A
C684   C688    1.417   .     A
C684   N719    1.436   .     S
C685   C688    1.409   .     A
C685   N725    1.422   .     S
C686   N731    1.422   .     S
C686   C687    1.416   .     A
C690   C23     1.463   1_556 S
Cu693  O711    1.956   .     S
Cu693  N703    2.013   .     S
Cu693  O705    1.971   .     S
Cu693  Cu694   2.679   .     S
Cu693  O709    1.958   .     S
Cu693  O707    1.969   .     S
Cu694  O706    1.971   .     S
Cu694  O712    1.956   .     S
Cu694  N704    2.013   .     S
Cu694  O710    1.958   .     S
Cu694  O708    1.969   .     S
N713   H714    1.032   .     S
N713   C715    1.446   .     S
C715   H716    1.111   .     S
C715   H717    1.110   .     S
C715   H718    1.111   .     S
N719   C721    1.449   .     S
N719   H720    1.031   .     S
C721   H722    1.111   .     S
C721   H723    1.111   .     S
C721   H724    1.111   .     S
N725   H726    1.032   .     S
N725   C727    1.446   .     S
C727   H730    1.110   .     S
C727   H728    1.112   .     S
C727   H729    1.108   .     S
N731   C733    1.447   .     S
N731   H732    1.032   .     S
C733   H736    1.111   .     S
C733   H735    1.109   .     S
C733   H734    1.111   .     S
C741   C766    1.450   .     S
C741   O779    1.295   .     A
C741   O782    1.286   .     A
C742   C765    1.458   .     S
C742   O781    1.291   .     A
C742   O780    1.293   .     A
C743   O786    1.298   .     A
C743   O783    1.295   .     A
C743   C761    1.475   .     S
C744   C762    1.457   .     S
C744   O785    1.288   .     A
C744   O784    1.295   .     A
C745   H769    1.080   .     S
C745   N778    1.365   .     A
C745   C1192   1.416   1_545 S
C746   N777    1.366   .     A
C746   H770    1.081   .     S
C746   C969    1.415   .     S
C747   N778    1.366   .     A
C747   H771    1.075   .     S
C747   C1190   1.415   1_545 S
C748   N777    1.367   .     A
C748   H772    1.078   .     S
C748   C967    1.416   .     S
C749   C766    1.410   .     A
C749   Br811   1.940   .     S
C750   C765    1.411   .     A
C750   Br812   1.930   .     S
C750   C826    1.395   .     S
C751   Br813   1.930   .     S
C751   C765    1.411   .     A
C751   C823    1.395   .     S
C752   Br814   1.936   .     S
C752   C766    1.405   .     A
C753   H773    1.084   .     S
C753   C757    1.395   .     A
C753   C763    1.394   .     A
C754   H774    1.081   .     S
C754   C758    1.407   .     A
C754   C764    1.398   .     A
C755   C759    1.392   .     A
C755   H775    1.084   .     S
C755   C764    1.395   .     A
C756   C760    1.399   .     A
C756   H776    1.084   .     S
C756   C763    1.395   .     A
C757   N787    1.420   .     S
C757   C761    1.416   .     A
C758   C762    1.417   .     A
C758   N793    1.436   .     S
C759   C762    1.409   .     A
C759   N799    1.422   .     S
C760   N805    1.422   .     S
C760   C761    1.416   .     A
C764   C97     1.463   1_556 S
Cu767  O785    1.956   .     S
Cu767  N777    2.013   .     S
Cu767  O779    1.971   .     S
Cu767  Cu768   2.679   .     S
Cu767  O783    1.958   .     S
Cu767  O781    1.969   .     S
Cu768  O780    1.971   .     S
Cu768  O786    1.956   .     S
Cu768  N778    2.013   .     S
Cu768  O784    1.958   .     S
Cu768  O782    1.969   .     S
N787   H788    1.032   .     S
N787   C789    1.446   .     S
C789   H790    1.111   .     S
C789   H791    1.110   .     S
C789   H792    1.111   .     S
N793   C795    1.449   .     S
N793   H794    1.031   .     S
C795   H796    1.111   .     S
C795   H797    1.111   .     S
C795   H798    1.111   .     S
N799   H800    1.032   .     S
N799   C801    1.446   .     S
C801   H804    1.110   .     S
C801   H802    1.112   .     S
C801   H803    1.108   .     S
N805   C807    1.447   .     S
N805   H806    1.032   .     S
C807   H810    1.111   .     S
C807   H809    1.109   .     S
C807   H808    1.111   .     S
C815   C840    1.450   .     S
C815   O853    1.295   .     A
C815   O856    1.286   .     A
C816   C839    1.458   .     S
C816   O855    1.291   .     A
C816   O854    1.293   .     A
C817   O860    1.298   .     A
C817   O857    1.295   .     A
C817   C835    1.475   .     S
C818   C836    1.457   .     S
C818   O859    1.288   .     A
C818   O858    1.295   .     A
C819   H843    1.080   .     S
C819   N852    1.365   .     A
C819   C1266   1.416   1_545 S
C820   N851    1.366   .     A
C820   H844    1.081   .     S
C820   C1043   1.415   .     S
C821   N852    1.366   .     A
C821   H845    1.075   .     S
C821   C1264   1.415   1_545 S
C822   N851    1.367   .     A
C822   H846    1.078   .     S
C822   C1041   1.416   .     S
C823   C840    1.410   .     A
C823   Br885   1.940   .     S
C824   C839    1.411   .     A
C824   Br886   1.930   .     S
C824   C678    1.395   1_655 S
C825   Br887   1.930   .     S
C825   C839    1.411   .     A
C825   C675    1.395   1_655 S
C826   Br888   1.936   .     S
C826   C840    1.405   .     A
C827   H847    1.084   .     S
C827   C831    1.395   .     A
C827   C837    1.394   .     A
C828   H848    1.081   .     S
C828   C832    1.407   .     A
C828   C838    1.398   .     A
C829   C833    1.392   .     A
C829   H849    1.084   .     S
C829   C838    1.395   .     A
C830   C834    1.399   .     A
C830   H850    1.084   .     S
C830   C837    1.395   .     A
C831   N861    1.420   .     S
C831   C835    1.416   .     A
C832   C836    1.417   .     A
C832   N867    1.436   .     S
C833   C836    1.409   .     A
C833   N873    1.422   .     S
C834   N879    1.422   .     S
C834   C835    1.416   .     A
C838   C171    1.463   1_556 S
Cu841  O859    1.956   .     S
Cu841  N851    2.013   .     S
Cu841  O853    1.971   .     S
Cu841  Cu842   2.679   .     S
Cu841  O857    1.958   .     S
Cu841  O855    1.969   .     S
Cu842  O854    1.971   .     S
Cu842  O860    1.956   .     S
Cu842  N852    2.013   .     S
Cu842  O858    1.958   .     S
Cu842  O856    1.969   .     S
N861   H862    1.032   .     S
N861   C863    1.446   .     S
C863   H864    1.111   .     S
C863   H865    1.110   .     S
C863   H866    1.111   .     S
N867   C869    1.449   .     S
N867   H868    1.031   .     S
C869   H870    1.111   .     S
C869   H871    1.111   .     S
C869   H872    1.111   .     S
N873   H874    1.032   .     S
N873   C875    1.446   .     S
C875   H878    1.110   .     S
C875   H876    1.112   .     S
C875   H877    1.108   .     S
N879   C881    1.447   .     S
N879   H880    1.032   .     S
C881   H884    1.111   .     S
C881   H883    1.109   .     S
C881   H882    1.111   .     S
C889   C914    1.450   .     S
C889   O927    1.295   .     A
C889   O930    1.286   .     A
C890   C913    1.458   .     S
C890   O929    1.291   .     A
C890   O928    1.293   .     A
C891   O934    1.298   .     A
C891   O931    1.295   .     A
C891   C909    1.475   .     S
C892   C910    1.457   .     S
C892   O933    1.288   .     A
C892   O932    1.295   .     A
C893   H917    1.080   .     S
C893   N926    1.365   .     A
C894   N925    1.366   .     A
C894   H918    1.081   .     S
C894   C1117   1.415   .     S
C895   N926    1.366   .     A
C895   H919    1.075   .     S
C896   N925    1.367   .     A
C896   H920    1.078   .     S
C896   C1115   1.416   .     S
C897   C914    1.410   .     A
C897   Br959   1.940   .     S
C897   C1047   1.395   1_455 S
C898   C913    1.411   .     A
C898   Br960   1.930   .     S
C898   C974    1.395   .     S
C899   Br961   1.930   .     S
C899   C913    1.411   .     A
C899   C971    1.395   .     S
C900   Br962   1.936   .     S
C900   C914    1.405   .     A
C900   C1046   1.395   1_455 S
C901   H921    1.084   .     S
C901   C905    1.395   .     A
C901   C911    1.394   .     A
C902   H922    1.081   .     S
C902   C906    1.407   .     A
C902   C912    1.398   .     A
C903   C907    1.392   .     A
C903   H923    1.084   .     S
C903   C912    1.395   .     A
C904   C908    1.399   .     A
C904   H924    1.084   .     S
C904   C911    1.395   .     A
C905   N935    1.420   .     S
C905   C909    1.416   .     A
C906   C910    1.417   .     A
C906   N941    1.436   .     S
C907   C910    1.409   .     A
C907   N947    1.422   .     S
C908   N953    1.422   .     S
C908   C909    1.416   .     A
C912   C245    1.463   1_556 S
Cu915  O933    1.956   .     S
Cu915  N925    2.013   .     S
Cu915  O927    1.971   .     S
Cu915  Cu916   2.679   .     S
Cu915  O931    1.958   .     S
Cu915  O929    1.969   .     S
Cu916  O928    1.971   .     S
Cu916  O934    1.956   .     S
Cu916  N926    2.013   .     S
Cu916  O932    1.958   .     S
Cu916  O930    1.969   .     S
N935   H936    1.032   .     S
N935   C937    1.446   .     S
C937   H938    1.111   .     S
C937   H939    1.110   .     S
C937   H940    1.111   .     S
N941   C943    1.449   .     S
N941   H942    1.031   .     S
C943   H944    1.111   .     S
C943   H945    1.111   .     S
C943   H946    1.111   .     S
N947   H948    1.032   .     S
N947   C949    1.446   .     S
C949   H952    1.110   .     S
C949   H950    1.112   .     S
C949   H951    1.108   .     S
N953   C955    1.447   .     S
N953   H954    1.032   .     S
C955   H958    1.111   .     S
C955   H957    1.109   .     S
C955   H956    1.111   .     S
C963   C988    1.450   .     S
C963   O1001   1.295   .     A
C963   O1004   1.286   .     A
C964   C987    1.458   .     S
C964   O1003   1.291   .     A
C964   O1002   1.293   .     A
C965   O1008   1.298   .     A
C965   O1005   1.295   .     A
C965   C983    1.475   .     S
C966   C984    1.457   .     S
C966   O1007   1.288   .     A
C966   O1006   1.295   .     A
C967   H991    1.080   .     S
C967   N1000   1.365   .     A
C968   N999    1.366   .     A
C968   H992    1.081   .     S
C968   C1191   1.415   .     S
C969   N1000   1.366   .     A
C969   H993    1.075   .     S
C970   N999    1.367   .     A
C970   H994    1.078   .     S
C970   C1189   1.416   .     S
C971   C988    1.410   .     A
C971   Br1033  1.940   .     S
C972   C987    1.411   .     A
C972   Br1034  1.930   .     S
C972   C1048   1.395   .     S
C973   Br1035  1.930   .     S
C973   C987    1.411   .     A
C973   C1045   1.395   .     S
C974   Br1036  1.936   .     S
C974   C988    1.405   .     A
C975   H995    1.084   .     S
C975   C979    1.395   .     A
C975   C985    1.394   .     A
C976   H996    1.081   .     S
C976   C980    1.407   .     A
C976   C986    1.398   .     A
C977   C981    1.392   .     A
C977   H997    1.084   .     S
C977   C986    1.395   .     A
C978   C982    1.399   .     A
C978   H998    1.084   .     S
C978   C985    1.395   .     A
C979   N1009   1.420   .     S
C979   C983    1.416   .     A
C980   C984    1.417   .     A
C980   N1015   1.436   .     S
C981   C984    1.409   .     A
C981   N1021   1.422   .     S
C982   N1027   1.422   .     S
C982   C983    1.416   .     A
C986   C319    1.463   1_556 S
Cu989  O1007   1.956   .     S
Cu989  N999    2.013   .     S
Cu989  O1001   1.971   .     S
Cu989  Cu990   2.679   .     S
Cu989  O1005   1.958   .     S
Cu989  O1003   1.969   .     S
Cu990  O1002   1.971   .     S
Cu990  O1008   1.956   .     S
Cu990  N1000   2.013   .     S
Cu990  O1006   1.958   .     S
Cu990  O1004   1.969   .     S
N1009  H1010   1.032   .     S
N1009  C1011   1.446   .     S
C1011  H1012   1.111   .     S
C1011  H1013   1.110   .     S
C1011  H1014   1.111   .     S
N1015  C1017   1.449   .     S
N1015  H1016   1.031   .     S
C1017  H1018   1.111   .     S
C1017  H1019   1.111   .     S
C1017  H1020   1.111   .     S
N1021  H1022   1.032   .     S
N1021  C1023   1.446   .     S
C1023  H1026   1.110   .     S
C1023  H1024   1.112   .     S
C1023  H1025   1.108   .     S
N1027  C1029   1.447   .     S
N1027  H1028   1.032   .     S
C1029  H1032   1.111   .     S
C1029  H1031   1.109   .     S
C1029  H1030   1.111   .     S
C1037  C1062   1.450   .     S
C1037  O1075   1.295   .     A
C1037  O1078   1.286   .     A
C1038  C1061   1.458   .     S
C1038  O1077   1.291   .     A
C1038  O1076   1.293   .     A
C1039  O1082   1.298   .     A
C1039  O1079   1.295   .     A
C1039  C1057   1.475   .     S
C1040  C1058   1.457   .     S
C1040  O1081   1.288   .     A
C1040  O1080   1.295   .     A
C1041  H1065   1.080   .     S
C1041  N1074   1.365   .     A
C1042  N1073   1.366   .     A
C1042  H1066   1.081   .     S
C1042  C1265   1.415   .     S
C1043  N1074   1.366   .     A
C1043  H1067   1.075   .     S
C1044  N1073   1.367   .     A
C1044  H1068   1.078   .     S
C1044  C1263   1.416   .     S
C1045  C1062   1.410   .     A
C1045  Br1107  1.940   .     S
C1046  C1061   1.411   .     A
C1046  Br1108  1.930   .     S
C1046  C900    1.395   1_655 S
C1047  Br1109  1.930   .     S
C1047  C1061   1.411   .     A
C1047  C897    1.395   1_655 S
C1048  Br1110  1.936   .     S
C1048  C1062   1.405   .     A
C1049  H1069   1.084   .     S
C1049  C1053   1.395   .     A
C1049  C1059   1.394   .     A
C1050  H1070   1.081   .     S
C1050  C1054   1.407   .     A
C1050  C1060   1.398   .     A
C1051  C1055   1.392   .     A
C1051  H1071   1.084   .     S
C1051  C1060   1.395   .     A
C1052  C1056   1.399   .     A
C1052  H1072   1.084   .     S
C1052  C1059   1.395   .     A
C1053  N1083   1.420   .     S
C1053  C1057   1.416   .     A
C1054  C1058   1.417   .     A
C1054  N1089   1.436   .     S
C1055  C1058   1.409   .     A
C1055  N1095   1.422   .     S
C1056  N1101   1.422   .     S
C1056  C1057   1.416   .     A
C1060  C393    1.463   1_556 S
Cu1063 O1081   1.956   .     S
Cu1063 N1073   2.013   .     S
Cu1063 O1075   1.971   .     S
Cu1063 Cu1064  2.679   .     S
Cu1063 O1079   1.958   .     S
Cu1063 O1077   1.969   .     S
Cu1064 O1076   1.971   .     S
Cu1064 O1082   1.956   .     S
Cu1064 N1074   2.013   .     S
Cu1064 O1080   1.958   .     S
Cu1064 O1078   1.969   .     S
N1083  H1084   1.032   .     S
N1083  C1085   1.446   .     S
C1085  H1086   1.111   .     S
C1085  H1087   1.110   .     S
C1085  H1088   1.111   .     S
N1089  C1091   1.449   .     S
N1089  H1090   1.031   .     S
C1091  H1092   1.111   .     S
C1091  H1093   1.111   .     S
C1091  H1094   1.111   .     S
N1095  H1096   1.032   .     S
N1095  C1097   1.446   .     S
C1097  H1100   1.110   .     S
C1097  H1098   1.112   .     S
C1097  H1099   1.108   .     S
N1101  C1103   1.447   .     S
N1101  H1102   1.032   .     S
C1103  H1106   1.111   .     S
C1103  H1105   1.109   .     S
C1103  H1104   1.111   .     S
C1111  C1136   1.450   .     S
C1111  O1149   1.295   .     A
C1111  O1152   1.286   .     A
C1112  C1135   1.458   .     S
C1112  O1151   1.291   .     A
C1112  O1150   1.293   .     A
C1113  O1156   1.298   .     A
C1113  O1153   1.295   .     A
C1113  C1131   1.475   .     S
C1114  C1132   1.457   .     S
C1114  O1155   1.288   .     A
C1114  O1154   1.295   .     A
C1115  H1139   1.080   .     S
C1115  N1148   1.365   .     A
C1116  N1147   1.366   .     A
C1116  H1140   1.081   .     S
C1116  C673    1.415   1_565 S
C1117  N1148   1.366   .     A
C1117  H1141   1.075   .     S
C1118  N1147   1.367   .     A
C1118  H1142   1.078   .     S
C1118  C671    1.416   1_565 S
C1119  C1136   1.410   .     A
C1119  Br1181  1.940   .     S
C1119  C1269   1.395   1_455 S
C1120  C1135   1.411   .     A
C1120  Br1182  1.930   .     S
C1120  C1196   1.395   .     S
C1121  Br1183  1.930   .     S
C1121  C1135   1.411   .     A
C1121  C1193   1.395   .     S
C1122  Br1184  1.936   .     S
C1122  C1136   1.405   .     A
C1122  C1268   1.395   1_455 S
C1123  H1143   1.084   .     S
C1123  C1127   1.395   .     A
C1123  C1133   1.394   .     A
C1124  H1144   1.081   .     S
C1124  C1128   1.407   .     A
C1124  C1134   1.398   .     A
C1125  C1129   1.392   .     A
C1125  H1145   1.084   .     S
C1125  C1134   1.395   .     A
C1126  C1130   1.399   .     A
C1126  H1146   1.084   .     S
C1126  C1133   1.395   .     A
C1127  N1157   1.420   .     S
C1127  C1131   1.416   .     A
C1128  C1132   1.417   .     A
C1128  N1163   1.436   .     S
C1129  C1132   1.409   .     A
C1129  N1169   1.422   .     S
C1130  N1175   1.422   .     S
C1130  C1131   1.416   .     A
C1134  C467    1.463   1_556 S
Cu1137 O1155   1.956   .     S
Cu1137 N1147   2.013   .     S
Cu1137 O1149   1.971   .     S
Cu1137 Cu1138  2.679   .     S
Cu1137 O1153   1.958   .     S
Cu1137 O1151   1.969   .     S
Cu1138 O1150   1.971   .     S
Cu1138 O1156   1.956   .     S
Cu1138 N1148   2.013   .     S
Cu1138 O1154   1.958   .     S
Cu1138 O1152   1.969   .     S
N1157  H1158   1.032   .     S
N1157  C1159   1.446   .     S
C1159  H1160   1.111   .     S
C1159  H1161   1.110   .     S
C1159  H1162   1.111   .     S
N1163  C1165   1.449   .     S
N1163  H1164   1.031   .     S
C1165  H1166   1.111   .     S
C1165  H1167   1.111   .     S
C1165  H1168   1.111   .     S
N1169  H1170   1.032   .     S
N1169  C1171   1.446   .     S
C1171  H1174   1.110   .     S
C1171  H1172   1.112   .     S
C1171  H1173   1.108   .     S
N1175  C1177   1.447   .     S
N1175  H1176   1.032   .     S
C1177  H1180   1.111   .     S
C1177  H1179   1.109   .     S
C1177  H1178   1.111   .     S
C1185  C1210   1.450   .     S
C1185  O1223   1.295   .     A
C1185  O1226   1.286   .     A
C1186  C1209   1.458   .     S
C1186  O1225   1.291   .     A
C1186  O1224   1.293   .     A
C1187  O1230   1.298   .     A
C1187  O1227   1.295   .     A
C1187  C1205   1.475   .     S
C1188  C1206   1.457   .     S
C1188  O1229   1.288   .     A
C1188  O1228   1.295   .     A
C1189  H1213   1.080   .     S
C1189  N1222   1.365   .     A
C1190  N1221   1.366   .     A
C1190  H1214   1.081   .     S
C1190  C747    1.415   1_565 S
C1191  N1222   1.366   .     A
C1191  H1215   1.075   .     S
C1192  N1221   1.367   .     A
C1192  H1216   1.078   .     S
C1192  C745    1.416   1_565 S
C1193  C1210   1.410   .     A
C1193  Br1255  1.940   .     S
C1194  C1209   1.411   .     A
C1194  Br1256  1.930   .     S
C1194  C1270   1.395   .     S
C1195  Br1257  1.930   .     S
C1195  C1209   1.411   .     A
C1195  C1267   1.395   .     S
C1196  Br1258  1.936   .     S
C1196  C1210   1.405   .     A
C1197  H1217   1.084   .     S
C1197  C1201   1.395   .     A
C1197  C1207   1.394   .     A
C1198  H1218   1.081   .     S
C1198  C1202   1.407   .     A
C1198  C1208   1.398   .     A
C1199  C1203   1.392   .     A
C1199  H1219   1.084   .     S
C1199  C1208   1.395   .     A
C1200  C1204   1.399   .     A
C1200  H1220   1.084   .     S
C1200  C1207   1.395   .     A
C1201  N1231   1.420   .     S
C1201  C1205   1.416   .     A
C1202  C1206   1.417   .     A
C1202  N1237   1.436   .     S
C1203  C1206   1.409   .     A
C1203  N1243   1.422   .     S
C1204  N1249   1.422   .     S
C1204  C1205   1.416   .     A
C1208  C541    1.463   1_556 S
Cu1211 O1229   1.956   .     S
Cu1211 N1221   2.013   .     S
Cu1211 O1223   1.971   .     S
Cu1211 Cu1212  2.679   .     S
Cu1211 O1227   1.958   .     S
Cu1211 O1225   1.969   .     S
Cu1212 O1224   1.971   .     S
Cu1212 O1230   1.956   .     S
Cu1212 N1222   2.013   .     S
Cu1212 O1228   1.958   .     S
Cu1212 O1226   1.969   .     S
N1231  H1232   1.032   .     S
N1231  C1233   1.446   .     S
C1233  H1234   1.111   .     S
C1233  H1235   1.110   .     S
C1233  H1236   1.111   .     S
N1237  C1239   1.449   .     S
N1237  H1238   1.031   .     S
C1239  H1240   1.111   .     S
C1239  H1241   1.111   .     S
C1239  H1242   1.111   .     S
N1243  H1244   1.032   .     S
N1243  C1245   1.446   .     S
C1245  H1248   1.110   .     S
C1245  H1246   1.112   .     S
C1245  H1247   1.108   .     S
N1249  C1251   1.447   .     S
N1249  H1250   1.032   .     S
C1251  H1254   1.111   .     S
C1251  H1253   1.109   .     S
C1251  H1252   1.111   .     S
C1259  C1284   1.450   .     S
C1259  O1297   1.295   .     A
C1259  O1300   1.286   .     A
C1260  C1283   1.458   .     S
C1260  O1299   1.291   .     A
C1260  O1298   1.293   .     A
C1261  O1304   1.298   .     A
C1261  O1301   1.295   .     A
C1261  C1279   1.475   .     S
C1262  C1280   1.457   .     S
C1262  O1303   1.288   .     A
C1262  O1302   1.295   .     A
C1263  H1287   1.080   .     S
C1263  N1296   1.365   .     A
C1264  N1295   1.366   .     A
C1264  H1288   1.081   .     S
C1264  C821    1.415   1_565 S
C1265  N1296   1.366   .     A
C1265  H1289   1.075   .     S
C1266  N1295   1.367   .     A
C1266  H1290   1.078   .     S
C1266  C819    1.416   1_565 S
C1267  C1284   1.410   .     A
C1267  Br1329  1.940   .     S
C1268  C1283   1.411   .     A
C1268  Br1330  1.930   .     S
C1268  C1122   1.395   1_655 S
C1269  Br1331  1.930   .     S
C1269  C1283   1.411   .     A
C1269  C1119   1.395   1_655 S
C1270  Br1332  1.936   .     S
C1270  C1284   1.405   .     A
C1271  H1291   1.084   .     S
C1271  C1275   1.395   .     A
C1271  C1281   1.394   .     A
C1272  H1292   1.081   .     S
C1272  C1276   1.407   .     A
C1272  C1282   1.398   .     A
C1273  C1277   1.392   .     A
C1273  H1293   1.084   .     S
C1273  C1282   1.395   .     A
C1274  C1278   1.399   .     A
C1274  H1294   1.084   .     S
C1274  C1281   1.395   .     A
C1275  N1305   1.420   .     S
C1275  C1279   1.416   .     A
C1276  C1280   1.417   .     A
C1276  N1311   1.436   .     S
C1277  C1280   1.409   .     A
C1277  N1317   1.422   .     S
C1278  N1323   1.422   .     S
C1278  C1279   1.416   .     A
C1282  C615    1.463   1_556 S
Cu1285 O1303   1.956   .     S
Cu1285 N1295   2.013   .     S
Cu1285 O1297   1.971   .     S
Cu1285 Cu1286  2.679   .     S
Cu1285 O1301   1.958   .     S
Cu1285 O1299   1.969   .     S
Cu1286 O1298   1.971   .     S
Cu1286 O1304   1.956   .     S
Cu1286 N1296   2.013   .     S
Cu1286 O1302   1.958   .     S
Cu1286 O1300   1.969   .     S
N1305  H1306   1.032   .     S
N1305  C1307   1.446   .     S
C1307  H1308   1.111   .     S
C1307  H1309   1.110   .     S
C1307  H1310   1.111   .     S
N1311  C1313   1.449   .     S
N1311  H1312   1.031   .     S
C1313  H1314   1.111   .     S
C1313  H1315   1.111   .     S
C1313  H1316   1.111   .     S
N1317  H1318   1.032   .     S
N1317  C1319   1.446   .     S
C1319  H1322   1.110   .     S
C1319  H1320   1.112   .     S
C1319  H1321   1.108   .     S
N1323  C1325   1.447   .     S
N1323  H1324   1.032   .     S
C1325  H1328   1.111   .     S
C1325  H1327   1.109   .     S
C1325  H1326   1.111   .     S
