data_str_m2_o2_o10_pcu_sym.49
_audit_creation_date              2020-01-03
_audit_creation_method            'Materials Studio'
_symmetry_space_group_name_H-M    'P1'
_symmetry_Int_Tables_number       1
_symmetry_cell_setting            triclinic
loop_
_symmetry_equiv_pos_as_xyz
  x,y,z
_cell_length_a                    26.2979
_cell_length_b                    30.2629
_cell_length_c                    27.8687
_cell_angle_alpha                 89.2744
_cell_angle_beta                  96.8038
_cell_angle_gamma                 91.5597
loop_
_atom_site_label
_atom_site_type_symbol
_atom_site_fract_x
_atom_site_fract_y
_atom_site_fract_z
_atom_site_U_iso_or_equiv
_atom_site_adp_type
_atom_site_occupancy
C1     C     0.16643   0.16499   0.25020   0.00000  Uiso   1.00
C2     C     0.19151   0.28443   0.44806   0.00000  Uiso   1.00
C3     C     0.16572   0.25039   0.02714   0.00000  Uiso   1.00
C4     C     0.16622   0.25084   0.47269   0.00000  Uiso   1.00
C5     C     0.06823   0.24911   0.23810   0.00000  Uiso   1.00
C6     C     0.26511   0.25092   0.26189   0.00000  Uiso   1.00
C7     C     0.01386   0.24127   0.23351   0.00000  Uiso   1.00
C8     C     0.31947   0.25882   0.26644   0.00000  Uiso   1.00
C9     C     0.18080   0.04735   0.29313   0.00000  Uiso   1.00
C10    C     0.18222   0.45334   0.21079   0.00000  Uiso   1.00
C11    C     0.18049   0.09330   0.29334   0.00000  Uiso   1.00
C12    C     0.16656   0.33500   0.24977   0.00000  Uiso   1.00
C13    C     0.18194   0.40738   0.21043   0.00000  Uiso   1.00
C14    C     0.16591   0.11673   0.25044   0.00000  Uiso   1.00
C15    C     0.16609   0.38323   0.24948   0.00000  Uiso   1.00
C16    C     0.15103   0.09372   0.20749   0.00000  Uiso   1.00
C17    C     0.14999   0.40548   0.28863   0.00000  Uiso   1.00
C18    C     0.15068   0.04782   0.20741   0.00000  Uiso   1.00
C19    C     0.14958   0.45137   0.28868   0.00000  Uiso   1.00
C20    C     0.16583   0.02425   0.25015   0.00000  Uiso   1.00
C21    C     0.16592   0.47568   0.24988   0.00000  Uiso   1.00
C22    C     0.32731   0.20704   0.19738   0.00000  Uiso   1.00
C23    C     0.20533   0.27115   0.05724   0.00000  Uiso   1.00
C24    C     0.00598   0.29315   0.30248   0.00000  Uiso   1.00
C25    C     0.24607   0.29848   0.13576   0.00000  Uiso   1.00
C26    C     0.10957   0.18200   0.36701   0.00000  Uiso   1.00
C27    C     0.14162   0.21695   0.44445   0.00000  Uiso   1.00
C28    C     0.20495   0.27195   0.10776   0.00000  Uiso   1.00
C29    C     0.14072   0.21725   0.39377   0.00000  Uiso   1.00
C30    C     0.12813   0.22862   0.10084   0.00000  Uiso   1.00
C31    C     0.19189   0.28302   0.39750   0.00000  Uiso   1.00
C32    C     0.12649   0.22899   0.05003   0.00000  Uiso   1.00
Cu33   Cu    0.16667   0.25000   0.29822   0.00000  Uiso   1.00
Cu34   Cu    0.16667   0.25001   0.20179   0.00000  Uiso   1.00
H35    H     0.19340   0.02995   0.32643   0.00000  Uiso   1.00
H36    H     0.13711   0.38741   0.31895   0.00000  Uiso   1.00
H37    H     0.13802   0.03076   0.17401   0.00000  Uiso   1.00
H38    H     0.13592   0.46779   0.31880   0.00000  Uiso   1.00
H39    H     0.23669   0.28738   0.04156   0.00000  Uiso   1.00
H40    H     0.12240   0.19011   0.46165   0.00000  Uiso   1.00
H41    H     0.23969   0.31504   0.16838   0.00000  Uiso   1.00
H42    H     0.09091   0.18743   0.33102   0.00000  Uiso   1.00
H43    H     0.09410   0.21292   0.02913   0.00000  Uiso   1.00
H44    H     0.21056   0.31217   0.46731   0.00000  Uiso   1.00
H45    H     0.19579   0.47137   0.18079   0.00000  Uiso   1.00
H46    H     0.09791   0.21150   0.11734   0.00000  Uiso   1.00
H47    H     0.21204   0.30890   0.37973   0.00000  Uiso   1.00
H48    H     0.00983   0.20551   0.16323   0.00000  Uiso   1.00
H49    H     0.32324   0.29491   0.33651   0.00000  Uiso   1.00
H50    H     0.19243   0.11047   0.32683   0.00000  Uiso   1.00
H51    H     0.19487   0.39081   0.18003   0.00000  Uiso   1.00
H52    H     0.13910   0.11118   0.17404   0.00000  Uiso   1.00
N53    N     0.16667   0.25001   0.12935   0.00000  Uiso   1.00
N54    N     0.16667   0.24999   0.37066   0.00000  Uiso   1.00
O55    O     0.16667   0.18573   0.29072   0.00000  Uiso   1.00
O56    O     0.03764   0.32134   0.29334   0.00000  Uiso   1.00
O57    O     0.28825   0.30303   0.12183   0.00000  Uiso   1.00
O58    O     0.10329   0.14585   0.38573   0.00000  Uiso   1.00
O59    O     0.16666   0.31428   0.20929   0.00000  Uiso   1.00
O60    O     0.16667   0.18573   0.20928   0.00000  Uiso   1.00
O61    O     0.16666   0.31427   0.29072   0.00000  Uiso   1.00
O62    O     0.09161   0.25000   0.28132   0.00000  Uiso   1.00
O63    O     0.24172   0.25001   0.21868   0.00000  Uiso   1.00
O64    O     0.09161   0.25000   0.19989   0.00000  Uiso   1.00
O65    O     0.24172   0.25000   0.30012   0.00000  Uiso   1.00
O66    O     0.29580   0.17873   0.20654   0.00000  Uiso   1.00
C67    C     0.49976   0.16499   0.25020   0.00000  Uiso   1.00
C68    C     0.52484   0.28443   0.44806   0.00000  Uiso   1.00
C69    C     0.49906   0.25039   0.02714   0.00000  Uiso   1.00
C70    C     0.49955   0.25084   0.47269   0.00000  Uiso   1.00
C71    C     0.40156   0.24911   0.23810   0.00000  Uiso   1.00
C72    C     0.59844   0.25092   0.26189   0.00000  Uiso   1.00
C73    C     0.34719   0.24127   0.23351   0.00000  Uiso   1.00
C74    C     0.65280   0.25882   0.26644   0.00000  Uiso   1.00
C75    C     0.51413   0.04735   0.29313   0.00000  Uiso   1.00
C76    C     0.51555   0.45334   0.21079   0.00000  Uiso   1.00
C77    C     0.51382   0.09330   0.29334   0.00000  Uiso   1.00
C78    C     0.49990   0.33500   0.24977   0.00000  Uiso   1.00
C79    C     0.51527   0.40738   0.21043   0.00000  Uiso   1.00
C80    C     0.49924   0.11673   0.25044   0.00000  Uiso   1.00
C81    C     0.49943   0.38323   0.24948   0.00000  Uiso   1.00
C82    C     0.48436   0.09372   0.20749   0.00000  Uiso   1.00
C83    C     0.48332   0.40548   0.28863   0.00000  Uiso   1.00
C84    C     0.48401   0.04782   0.20741   0.00000  Uiso   1.00
C85    C     0.48291   0.45137   0.28868   0.00000  Uiso   1.00
C86    C     0.49917   0.02425   0.25015   0.00000  Uiso   1.00
C87    C     0.49926   0.47568   0.24988   0.00000  Uiso   1.00
C88    C     0.66064   0.20704   0.19738   0.00000  Uiso   1.00
C89    C     0.53866   0.27115   0.05724   0.00000  Uiso   1.00
C90    C     0.33931   0.29315   0.30248   0.00000  Uiso   1.00
C91    C     0.57940   0.29848   0.13576   0.00000  Uiso   1.00
C92    C     0.44290   0.18200   0.36701   0.00000  Uiso   1.00
C93    C     0.47495   0.21695   0.44445   0.00000  Uiso   1.00
C94    C     0.53828   0.27195   0.10776   0.00000  Uiso   1.00
C95    C     0.47406   0.21725   0.39377   0.00000  Uiso   1.00
C96    C     0.46146   0.22862   0.10084   0.00000  Uiso   1.00
C97    C     0.52522   0.28302   0.39750   0.00000  Uiso   1.00
C98    C     0.45982   0.22899   0.05003   0.00000  Uiso   1.00
Cu99   Cu    0.50000   0.25000   0.29822   0.00000  Uiso   1.00
Cu100  Cu    0.50000   0.25001   0.20179   0.00000  Uiso   1.00
H101   H     0.52674   0.02995   0.32643   0.00000  Uiso   1.00
H102   H     0.47044   0.38741   0.31895   0.00000  Uiso   1.00
H103   H     0.47135   0.03076   0.17401   0.00000  Uiso   1.00
H104   H     0.46925   0.46779   0.31880   0.00000  Uiso   1.00
H105   H     0.57002   0.28738   0.04156   0.00000  Uiso   1.00
H106   H     0.45573   0.19011   0.46165   0.00000  Uiso   1.00
H107   H     0.57302   0.31504   0.16838   0.00000  Uiso   1.00
H108   H     0.42425   0.18743   0.33102   0.00000  Uiso   1.00
H109   H     0.42743   0.21292   0.02913   0.00000  Uiso   1.00
H110   H     0.54389   0.31217   0.46731   0.00000  Uiso   1.00
H111   H     0.52912   0.47137   0.18079   0.00000  Uiso   1.00
H112   H     0.43124   0.21150   0.11734   0.00000  Uiso   1.00
H113   H     0.54538   0.30890   0.37973   0.00000  Uiso   1.00
H114   H     0.34317   0.20551   0.16323   0.00000  Uiso   1.00
H115   H     0.65658   0.29491   0.33651   0.00000  Uiso   1.00
H116   H     0.52576   0.11047   0.32683   0.00000  Uiso   1.00
H117   H     0.52820   0.39081   0.18003   0.00000  Uiso   1.00
H118   H     0.47244   0.11118   0.17404   0.00000  Uiso   1.00
N119   N     0.50000   0.25001   0.12935   0.00000  Uiso   1.00
N120   N     0.50000   0.24999   0.37066   0.00000  Uiso   1.00
O121   O     0.50000   0.18573   0.29072   0.00000  Uiso   1.00
O122   O     0.37098   0.32134   0.29334   0.00000  Uiso   1.00
O123   O     0.62158   0.30303   0.12183   0.00000  Uiso   1.00
O124   O     0.43662   0.14585   0.38573   0.00000  Uiso   1.00
O125   O     0.50000   0.31428   0.20929   0.00000  Uiso   1.00
O126   O     0.50000   0.18573   0.20928   0.00000  Uiso   1.00
O127   O     0.50000   0.31427   0.29072   0.00000  Uiso   1.00
O128   O     0.42495   0.25000   0.28132   0.00000  Uiso   1.00
O129   O     0.57505   0.25001   0.21868   0.00000  Uiso   1.00
O130   O     0.42495   0.25000   0.19989   0.00000  Uiso   1.00
O131   O     0.57505   0.25000   0.30012   0.00000  Uiso   1.00
O132   O     0.62913   0.17873   0.20654   0.00000  Uiso   1.00
C133   C     0.83309   0.16499   0.25020   0.00000  Uiso   1.00
C134   C     0.85818   0.28443   0.44806   0.00000  Uiso   1.00
C135   C     0.83239   0.25039   0.02714   0.00000  Uiso   1.00
C136   C     0.83288   0.25084   0.47269   0.00000  Uiso   1.00
C137   C     0.73489   0.24911   0.23810   0.00000  Uiso   1.00
C138   C     0.93177   0.25092   0.26189   0.00000  Uiso   1.00
C139   C     0.68052   0.24127   0.23351   0.00000  Uiso   1.00
C140   C     0.98614   0.25882   0.26644   0.00000  Uiso   1.00
C141   C     0.84747   0.04735   0.29313   0.00000  Uiso   1.00
C142   C     0.84888   0.45334   0.21079   0.00000  Uiso   1.00
C143   C     0.84716   0.09330   0.29334   0.00000  Uiso   1.00
C144   C     0.83323   0.33500   0.24977   0.00000  Uiso   1.00
C145   C     0.84861   0.40738   0.21043   0.00000  Uiso   1.00
C146   C     0.83257   0.11673   0.25044   0.00000  Uiso   1.00
C147   C     0.83276   0.38323   0.24948   0.00000  Uiso   1.00
C148   C     0.81769   0.09372   0.20749   0.00000  Uiso   1.00
C149   C     0.81665   0.40548   0.28863   0.00000  Uiso   1.00
C150   C     0.81735   0.04782   0.20741   0.00000  Uiso   1.00
C151   C     0.81624   0.45137   0.28868   0.00000  Uiso   1.00
C152   C     0.83250   0.02425   0.25015   0.00000  Uiso   1.00
C153   C     0.83259   0.47568   0.24988   0.00000  Uiso   1.00
C154   C     0.99398   0.20704   0.19738   0.00000  Uiso   1.00
C155   C     0.87200   0.27115   0.05724   0.00000  Uiso   1.00
C156   C     0.67265   0.29315   0.30248   0.00000  Uiso   1.00
C157   C     0.91274   0.29848   0.13576   0.00000  Uiso   1.00
C158   C     0.77623   0.18200   0.36701   0.00000  Uiso   1.00
C159   C     0.80828   0.21695   0.44445   0.00000  Uiso   1.00
C160   C     0.87162   0.27195   0.10776   0.00000  Uiso   1.00
C161   C     0.80739   0.21725   0.39377   0.00000  Uiso   1.00
C162   C     0.79480   0.22862   0.10084   0.00000  Uiso   1.00
C163   C     0.85855   0.28302   0.39750   0.00000  Uiso   1.00
C164   C     0.79316   0.22899   0.05003   0.00000  Uiso   1.00
Cu165  Cu    0.83333   0.25000   0.29822   0.00000  Uiso   1.00
Cu166  Cu    0.83333   0.25001   0.20179   0.00000  Uiso   1.00
H167   H     0.86007   0.02995   0.32643   0.00000  Uiso   1.00
H168   H     0.80377   0.38741   0.31895   0.00000  Uiso   1.00
H169   H     0.80469   0.03076   0.17401   0.00000  Uiso   1.00
H170   H     0.80259   0.46779   0.31880   0.00000  Uiso   1.00
H171   H     0.90336   0.28738   0.04156   0.00000  Uiso   1.00
H172   H     0.78907   0.19011   0.46165   0.00000  Uiso   1.00
H173   H     0.90635   0.31504   0.16838   0.00000  Uiso   1.00
H174   H     0.75758   0.18743   0.33102   0.00000  Uiso   1.00
H175   H     0.76077   0.21292   0.02913   0.00000  Uiso   1.00
H176   H     0.87723   0.31217   0.46731   0.00000  Uiso   1.00
H177   H     0.86245   0.47137   0.18079   0.00000  Uiso   1.00
H178   H     0.76458   0.21150   0.11734   0.00000  Uiso   1.00
H179   H     0.87871   0.30890   0.37973   0.00000  Uiso   1.00
H180   H     0.67650   0.20551   0.16323   0.00000  Uiso   1.00
H181   H     0.98991   0.29491   0.33651   0.00000  Uiso   1.00
H182   H     0.85909   0.11047   0.32683   0.00000  Uiso   1.00
H183   H     0.86154   0.39081   0.18003   0.00000  Uiso   1.00
H184   H     0.80577   0.11118   0.17404   0.00000  Uiso   1.00
N185   N     0.83333   0.25001   0.12935   0.00000  Uiso   1.00
N186   N     0.83333   0.24999   0.37066   0.00000  Uiso   1.00
O187   O     0.83334   0.18573   0.29072   0.00000  Uiso   1.00
O188   O     0.70431   0.32134   0.29334   0.00000  Uiso   1.00
O189   O     0.95491   0.30303   0.12183   0.00000  Uiso   1.00
O190   O     0.76995   0.14585   0.38573   0.00000  Uiso   1.00
O191   O     0.83333   0.31428   0.20929   0.00000  Uiso   1.00
O192   O     0.83334   0.18573   0.20928   0.00000  Uiso   1.00
O193   O     0.83333   0.31427   0.29072   0.00000  Uiso   1.00
O194   O     0.75828   0.25000   0.28132   0.00000  Uiso   1.00
O195   O     0.90839   0.25001   0.21868   0.00000  Uiso   1.00
O196   O     0.75828   0.25000   0.19989   0.00000  Uiso   1.00
O197   O     0.90839   0.25000   0.30012   0.00000  Uiso   1.00
O198   O     0.96246   0.17873   0.20654   0.00000  Uiso   1.00
C199   C     0.16643   0.66499   0.25020   0.00000  Uiso   1.00
C200   C     0.19151   0.78443   0.44806   0.00000  Uiso   1.00
C201   C     0.16572   0.75039   0.02714   0.00000  Uiso   1.00
C202   C     0.16622   0.75084   0.47269   0.00000  Uiso   1.00
C203   C     0.06823   0.74911   0.23810   0.00000  Uiso   1.00
C204   C     0.26511   0.75092   0.26189   0.00000  Uiso   1.00
C205   C     0.01386   0.74127   0.23351   0.00000  Uiso   1.00
C206   C     0.31947   0.75882   0.26644   0.00000  Uiso   1.00
C207   C     0.18080   0.54735   0.29313   0.00000  Uiso   1.00
C208   C     0.18222   0.95334   0.21079   0.00000  Uiso   1.00
C209   C     0.18049   0.59330   0.29334   0.00000  Uiso   1.00
C210   C     0.16656   0.83500   0.24977   0.00000  Uiso   1.00
C211   C     0.18194   0.90738   0.21043   0.00000  Uiso   1.00
C212   C     0.16591   0.61673   0.25044   0.00000  Uiso   1.00
C213   C     0.16609   0.88323   0.24948   0.00000  Uiso   1.00
C214   C     0.15103   0.59372   0.20749   0.00000  Uiso   1.00
C215   C     0.14999   0.90548   0.28863   0.00000  Uiso   1.00
C216   C     0.15068   0.54782   0.20741   0.00000  Uiso   1.00
C217   C     0.14958   0.95137   0.28868   0.00000  Uiso   1.00
C218   C     0.16583   0.52425   0.25015   0.00000  Uiso   1.00
C219   C     0.16592   0.97568   0.24988   0.00000  Uiso   1.00
C220   C     0.32731   0.70704   0.19738   0.00000  Uiso   1.00
C221   C     0.20533   0.77115   0.05724   0.00000  Uiso   1.00
C222   C     0.00598   0.79315   0.30248   0.00000  Uiso   1.00
C223   C     0.24607   0.79848   0.13576   0.00000  Uiso   1.00
C224   C     0.10957   0.68200   0.36701   0.00000  Uiso   1.00
C225   C     0.14162   0.71695   0.44445   0.00000  Uiso   1.00
C226   C     0.20495   0.77195   0.10776   0.00000  Uiso   1.00
C227   C     0.14072   0.71725   0.39377   0.00000  Uiso   1.00
C228   C     0.12813   0.72862   0.10084   0.00000  Uiso   1.00
C229   C     0.19189   0.78302   0.39750   0.00000  Uiso   1.00
C230   C     0.12649   0.72899   0.05003   0.00000  Uiso   1.00
Cu231  Cu    0.16667   0.75000   0.29822   0.00000  Uiso   1.00
Cu232  Cu    0.16667   0.75001   0.20179   0.00000  Uiso   1.00
H233   H     0.19340   0.52995   0.32643   0.00000  Uiso   1.00
H234   H     0.13711   0.88741   0.31895   0.00000  Uiso   1.00
H235   H     0.13802   0.53076   0.17401   0.00000  Uiso   1.00
H236   H     0.13592   0.96779   0.31880   0.00000  Uiso   1.00
H237   H     0.23669   0.78738   0.04156   0.00000  Uiso   1.00
H238   H     0.12240   0.69011   0.46165   0.00000  Uiso   1.00
H239   H     0.23969   0.81504   0.16838   0.00000  Uiso   1.00
H240   H     0.09091   0.68743   0.33102   0.00000  Uiso   1.00
H241   H     0.09410   0.71292   0.02913   0.00000  Uiso   1.00
H242   H     0.21056   0.81217   0.46731   0.00000  Uiso   1.00
H243   H     0.19579   0.97137   0.18079   0.00000  Uiso   1.00
H244   H     0.09791   0.71150   0.11734   0.00000  Uiso   1.00
H245   H     0.21204   0.80890   0.37973   0.00000  Uiso   1.00
H246   H     0.00983   0.70551   0.16323   0.00000  Uiso   1.00
H247   H     0.32324   0.79491   0.33651   0.00000  Uiso   1.00
H248   H     0.19243   0.61047   0.32683   0.00000  Uiso   1.00
H249   H     0.19487   0.89081   0.18003   0.00000  Uiso   1.00
H250   H     0.13910   0.61118   0.17404   0.00000  Uiso   1.00
N251   N     0.16667   0.75001   0.12935   0.00000  Uiso   1.00
N252   N     0.16667   0.74999   0.37066   0.00000  Uiso   1.00
O253   O     0.16667   0.68573   0.29072   0.00000  Uiso   1.00
O254   O     0.03764   0.82134   0.29334   0.00000  Uiso   1.00
O255   O     0.28825   0.80303   0.12183   0.00000  Uiso   1.00
O256   O     0.10329   0.64585   0.38573   0.00000  Uiso   1.00
O257   O     0.16666   0.81428   0.20929   0.00000  Uiso   1.00
O258   O     0.16667   0.68573   0.20928   0.00000  Uiso   1.00
O259   O     0.16666   0.81427   0.29072   0.00000  Uiso   1.00
O260   O     0.09161   0.75000   0.28132   0.00000  Uiso   1.00
O261   O     0.24172   0.75001   0.21868   0.00000  Uiso   1.00
O262   O     0.09161   0.75000   0.19989   0.00000  Uiso   1.00
O263   O     0.24172   0.75000   0.30012   0.00000  Uiso   1.00
O264   O     0.29580   0.67873   0.20654   0.00000  Uiso   1.00
C265   C     0.49976   0.66499   0.25020   0.00000  Uiso   1.00
C266   C     0.52484   0.78443   0.44806   0.00000  Uiso   1.00
C267   C     0.49906   0.75039   0.02714   0.00000  Uiso   1.00
C268   C     0.49955   0.75084   0.47269   0.00000  Uiso   1.00
C269   C     0.40156   0.74911   0.23810   0.00000  Uiso   1.00
C270   C     0.59844   0.75092   0.26189   0.00000  Uiso   1.00
C271   C     0.34719   0.74127   0.23351   0.00000  Uiso   1.00
C272   C     0.65280   0.75882   0.26644   0.00000  Uiso   1.00
C273   C     0.51413   0.54735   0.29313   0.00000  Uiso   1.00
C274   C     0.51555   0.95334   0.21079   0.00000  Uiso   1.00
C275   C     0.51382   0.59330   0.29334   0.00000  Uiso   1.00
C276   C     0.49990   0.83500   0.24977   0.00000  Uiso   1.00
C277   C     0.51527   0.90738   0.21043   0.00000  Uiso   1.00
C278   C     0.49924   0.61673   0.25044   0.00000  Uiso   1.00
C279   C     0.49943   0.88323   0.24948   0.00000  Uiso   1.00
C280   C     0.48436   0.59372   0.20749   0.00000  Uiso   1.00
C281   C     0.48332   0.90548   0.28863   0.00000  Uiso   1.00
C282   C     0.48401   0.54782   0.20741   0.00000  Uiso   1.00
C283   C     0.48291   0.95137   0.28868   0.00000  Uiso   1.00
C284   C     0.49917   0.52425   0.25015   0.00000  Uiso   1.00
C285   C     0.49926   0.97568   0.24988   0.00000  Uiso   1.00
C286   C     0.66064   0.70704   0.19738   0.00000  Uiso   1.00
C287   C     0.53866   0.77115   0.05724   0.00000  Uiso   1.00
C288   C     0.33931   0.79315   0.30248   0.00000  Uiso   1.00
C289   C     0.57940   0.79848   0.13576   0.00000  Uiso   1.00
C290   C     0.44290   0.68200   0.36701   0.00000  Uiso   1.00
C291   C     0.47495   0.71695   0.44445   0.00000  Uiso   1.00
C292   C     0.53828   0.77195   0.10776   0.00000  Uiso   1.00
C293   C     0.47406   0.71725   0.39377   0.00000  Uiso   1.00
C294   C     0.46146   0.72862   0.10084   0.00000  Uiso   1.00
C295   C     0.52522   0.78302   0.39750   0.00000  Uiso   1.00
C296   C     0.45982   0.72899   0.05003   0.00000  Uiso   1.00
Cu297  Cu    0.50000   0.75000   0.29822   0.00000  Uiso   1.00
Cu298  Cu    0.50000   0.75001   0.20179   0.00000  Uiso   1.00
H299   H     0.52674   0.52995   0.32643   0.00000  Uiso   1.00
H300   H     0.47044   0.88741   0.31895   0.00000  Uiso   1.00
H301   H     0.47135   0.53076   0.17401   0.00000  Uiso   1.00
H302   H     0.46925   0.96779   0.31880   0.00000  Uiso   1.00
H303   H     0.57002   0.78738   0.04156   0.00000  Uiso   1.00
H304   H     0.45573   0.69011   0.46165   0.00000  Uiso   1.00
H305   H     0.57302   0.81504   0.16838   0.00000  Uiso   1.00
H306   H     0.42425   0.68743   0.33102   0.00000  Uiso   1.00
H307   H     0.42743   0.71292   0.02913   0.00000  Uiso   1.00
H308   H     0.54389   0.81217   0.46731   0.00000  Uiso   1.00
H309   H     0.52912   0.97137   0.18079   0.00000  Uiso   1.00
H310   H     0.43124   0.71150   0.11734   0.00000  Uiso   1.00
H311   H     0.54538   0.80890   0.37973   0.00000  Uiso   1.00
H312   H     0.34317   0.70551   0.16323   0.00000  Uiso   1.00
H313   H     0.65658   0.79491   0.33651   0.00000  Uiso   1.00
H314   H     0.52576   0.61047   0.32683   0.00000  Uiso   1.00
H315   H     0.52820   0.89081   0.18003   0.00000  Uiso   1.00
H316   H     0.47244   0.61118   0.17404   0.00000  Uiso   1.00
N317   N     0.50000   0.75001   0.12935   0.00000  Uiso   1.00
N318   N     0.50000   0.74999   0.37066   0.00000  Uiso   1.00
O319   O     0.50000   0.68573   0.29072   0.00000  Uiso   1.00
O320   O     0.37098   0.82134   0.29334   0.00000  Uiso   1.00
O321   O     0.62158   0.80303   0.12183   0.00000  Uiso   1.00
O322   O     0.43662   0.64585   0.38573   0.00000  Uiso   1.00
O323   O     0.50000   0.81428   0.20929   0.00000  Uiso   1.00
O324   O     0.50000   0.68573   0.20928   0.00000  Uiso   1.00
O325   O     0.50000   0.81427   0.29072   0.00000  Uiso   1.00
O326   O     0.42495   0.75000   0.28132   0.00000  Uiso   1.00
O327   O     0.57505   0.75001   0.21868   0.00000  Uiso   1.00
O328   O     0.42495   0.75000   0.19989   0.00000  Uiso   1.00
O329   O     0.57505   0.75000   0.30012   0.00000  Uiso   1.00
O330   O     0.62913   0.67873   0.20654   0.00000  Uiso   1.00
C331   C     0.83309   0.66499   0.25020   0.00000  Uiso   1.00
C332   C     0.85818   0.78443   0.44806   0.00000  Uiso   1.00
C333   C     0.83239   0.75039   0.02714   0.00000  Uiso   1.00
C334   C     0.83288   0.75084   0.47269   0.00000  Uiso   1.00
C335   C     0.73489   0.74911   0.23810   0.00000  Uiso   1.00
C336   C     0.93177   0.75092   0.26189   0.00000  Uiso   1.00
C337   C     0.68052   0.74127   0.23351   0.00000  Uiso   1.00
C338   C     0.98614   0.75882   0.26644   0.00000  Uiso   1.00
C339   C     0.84747   0.54735   0.29313   0.00000  Uiso   1.00
C340   C     0.84888   0.95334   0.21079   0.00000  Uiso   1.00
C341   C     0.84716   0.59330   0.29334   0.00000  Uiso   1.00
C342   C     0.83323   0.83500   0.24977   0.00000  Uiso   1.00
C343   C     0.84861   0.90738   0.21043   0.00000  Uiso   1.00
C344   C     0.83257   0.61673   0.25044   0.00000  Uiso   1.00
C345   C     0.83276   0.88323   0.24948   0.00000  Uiso   1.00
C346   C     0.81769   0.59372   0.20749   0.00000  Uiso   1.00
C347   C     0.81665   0.90548   0.28863   0.00000  Uiso   1.00
C348   C     0.81735   0.54782   0.20741   0.00000  Uiso   1.00
C349   C     0.81624   0.95137   0.28868   0.00000  Uiso   1.00
C350   C     0.83250   0.52425   0.25015   0.00000  Uiso   1.00
C351   C     0.83259   0.97568   0.24988   0.00000  Uiso   1.00
C352   C     0.99398   0.70704   0.19738   0.00000  Uiso   1.00
C353   C     0.87200   0.77115   0.05724   0.00000  Uiso   1.00
C354   C     0.67265   0.79315   0.30248   0.00000  Uiso   1.00
C355   C     0.91274   0.79848   0.13576   0.00000  Uiso   1.00
C356   C     0.77623   0.68200   0.36701   0.00000  Uiso   1.00
C357   C     0.80828   0.71695   0.44445   0.00000  Uiso   1.00
C358   C     0.87162   0.77195   0.10776   0.00000  Uiso   1.00
C359   C     0.80739   0.71725   0.39377   0.00000  Uiso   1.00
C360   C     0.79480   0.72862   0.10084   0.00000  Uiso   1.00
C361   C     0.85855   0.78302   0.39750   0.00000  Uiso   1.00
C362   C     0.79316   0.72899   0.05003   0.00000  Uiso   1.00
Cu363  Cu    0.83333   0.75000   0.29822   0.00000  Uiso   1.00
Cu364  Cu    0.83333   0.75001   0.20179   0.00000  Uiso   1.00
H365   H     0.86007   0.52995   0.32643   0.00000  Uiso   1.00
H366   H     0.80377   0.88741   0.31895   0.00000  Uiso   1.00
H367   H     0.80469   0.53076   0.17401   0.00000  Uiso   1.00
H368   H     0.80259   0.96779   0.31880   0.00000  Uiso   1.00
H369   H     0.90336   0.78738   0.04156   0.00000  Uiso   1.00
H370   H     0.78907   0.69011   0.46165   0.00000  Uiso   1.00
H371   H     0.90635   0.81504   0.16838   0.00000  Uiso   1.00
H372   H     0.75758   0.68743   0.33102   0.00000  Uiso   1.00
H373   H     0.76077   0.71292   0.02913   0.00000  Uiso   1.00
H374   H     0.87723   0.81217   0.46731   0.00000  Uiso   1.00
H375   H     0.86245   0.97137   0.18079   0.00000  Uiso   1.00
H376   H     0.76458   0.71150   0.11734   0.00000  Uiso   1.00
H377   H     0.87871   0.80890   0.37973   0.00000  Uiso   1.00
H378   H     0.67650   0.70551   0.16323   0.00000  Uiso   1.00
H379   H     0.98991   0.79491   0.33651   0.00000  Uiso   1.00
H380   H     0.85909   0.61047   0.32683   0.00000  Uiso   1.00
H381   H     0.86154   0.89081   0.18003   0.00000  Uiso   1.00
H382   H     0.80577   0.61118   0.17404   0.00000  Uiso   1.00
N383   N     0.83333   0.75001   0.12935   0.00000  Uiso   1.00
N384   N     0.83333   0.74999   0.37066   0.00000  Uiso   1.00
O385   O     0.83334   0.68573   0.29072   0.00000  Uiso   1.00
O386   O     0.70431   0.82134   0.29334   0.00000  Uiso   1.00
O387   O     0.95491   0.80303   0.12183   0.00000  Uiso   1.00
O388   O     0.76995   0.64585   0.38573   0.00000  Uiso   1.00
O389   O     0.83333   0.81428   0.20929   0.00000  Uiso   1.00
O390   O     0.83334   0.68573   0.20928   0.00000  Uiso   1.00
O391   O     0.83333   0.81427   0.29072   0.00000  Uiso   1.00
O392   O     0.75828   0.75000   0.28132   0.00000  Uiso   1.00
O393   O     0.90839   0.75001   0.21868   0.00000  Uiso   1.00
O394   O     0.75828   0.75000   0.19989   0.00000  Uiso   1.00
O395   O     0.90839   0.75000   0.30012   0.00000  Uiso   1.00
O396   O     0.96246   0.67873   0.20654   0.00000  Uiso   1.00
C397   C     0.16643   0.16499   0.75020   0.00000  Uiso   1.00
C398   C     0.19151   0.28443   0.94806   0.00000  Uiso   1.00
C399   C     0.16572   0.25039   0.52714   0.00000  Uiso   1.00
C400   C     0.16622   0.25084   0.97269   0.00000  Uiso   1.00
C401   C     0.06823   0.24911   0.73810   0.00000  Uiso   1.00
C402   C     0.26511   0.25092   0.76189   0.00000  Uiso   1.00
C403   C     0.01386   0.24127   0.73351   0.00000  Uiso   1.00
C404   C     0.31947   0.25882   0.76644   0.00000  Uiso   1.00
C405   C     0.18080   0.04735   0.79313   0.00000  Uiso   1.00
C406   C     0.18222   0.45334   0.71079   0.00000  Uiso   1.00
C407   C     0.18049   0.09330   0.79334   0.00000  Uiso   1.00
C408   C     0.16656   0.33500   0.74977   0.00000  Uiso   1.00
C409   C     0.18194   0.40738   0.71043   0.00000  Uiso   1.00
C410   C     0.16591   0.11673   0.75044   0.00000  Uiso   1.00
C411   C     0.16609   0.38323   0.74948   0.00000  Uiso   1.00
C412   C     0.15103   0.09372   0.70749   0.00000  Uiso   1.00
C413   C     0.14999   0.40548   0.78863   0.00000  Uiso   1.00
C414   C     0.15068   0.04782   0.70741   0.00000  Uiso   1.00
C415   C     0.14958   0.45137   0.78868   0.00000  Uiso   1.00
C416   C     0.16583   0.02425   0.75015   0.00000  Uiso   1.00
C417   C     0.16592   0.47568   0.74988   0.00000  Uiso   1.00
C418   C     0.32731   0.20704   0.69738   0.00000  Uiso   1.00
C419   C     0.20533   0.27115   0.55724   0.00000  Uiso   1.00
C420   C     0.00598   0.29315   0.80248   0.00000  Uiso   1.00
C421   C     0.24607   0.29848   0.63576   0.00000  Uiso   1.00
C422   C     0.10957   0.18200   0.86701   0.00000  Uiso   1.00
C423   C     0.14162   0.21695   0.94445   0.00000  Uiso   1.00
C424   C     0.20495   0.27195   0.60776   0.00000  Uiso   1.00
C425   C     0.14072   0.21725   0.89377   0.00000  Uiso   1.00
C426   C     0.12813   0.22862   0.60084   0.00000  Uiso   1.00
C427   C     0.19189   0.28302   0.89750   0.00000  Uiso   1.00
C428   C     0.12649   0.22899   0.55003   0.00000  Uiso   1.00
Cu429  Cu    0.16667   0.25000   0.79822   0.00000  Uiso   1.00
Cu430  Cu    0.16667   0.25001   0.70179   0.00000  Uiso   1.00
H431   H     0.19340   0.02995   0.82643   0.00000  Uiso   1.00
H432   H     0.13711   0.38741   0.81895   0.00000  Uiso   1.00
H433   H     0.13802   0.03076   0.67401   0.00000  Uiso   1.00
H434   H     0.13592   0.46779   0.81880   0.00000  Uiso   1.00
H435   H     0.23669   0.28738   0.54156   0.00000  Uiso   1.00
H436   H     0.12240   0.19011   0.96165   0.00000  Uiso   1.00
H437   H     0.23969   0.31504   0.66838   0.00000  Uiso   1.00
H438   H     0.09091   0.18743   0.83102   0.00000  Uiso   1.00
H439   H     0.09410   0.21292   0.52913   0.00000  Uiso   1.00
H440   H     0.21056   0.31217   0.96731   0.00000  Uiso   1.00
H441   H     0.19579   0.47137   0.68079   0.00000  Uiso   1.00
H442   H     0.09791   0.21150   0.61734   0.00000  Uiso   1.00
H443   H     0.21204   0.30890   0.87973   0.00000  Uiso   1.00
H444   H     0.00983   0.20551   0.66323   0.00000  Uiso   1.00
H445   H     0.32324   0.29491   0.83651   0.00000  Uiso   1.00
H446   H     0.19243   0.11047   0.82683   0.00000  Uiso   1.00
H447   H     0.19487   0.39081   0.68003   0.00000  Uiso   1.00
H448   H     0.13910   0.11118   0.67404   0.00000  Uiso   1.00
N449   N     0.16667   0.25001   0.62935   0.00000  Uiso   1.00
N450   N     0.16667   0.24999   0.87066   0.00000  Uiso   1.00
O451   O     0.16667   0.18573   0.79072   0.00000  Uiso   1.00
O452   O     0.03764   0.32134   0.79334   0.00000  Uiso   1.00
O453   O     0.28825   0.30303   0.62183   0.00000  Uiso   1.00
O454   O     0.10329   0.14585   0.88573   0.00000  Uiso   1.00
O455   O     0.16666   0.31428   0.70929   0.00000  Uiso   1.00
O456   O     0.16667   0.18573   0.70928   0.00000  Uiso   1.00
O457   O     0.16666   0.31427   0.79072   0.00000  Uiso   1.00
O458   O     0.09161   0.25000   0.78132   0.00000  Uiso   1.00
O459   O     0.24172   0.25001   0.71868   0.00000  Uiso   1.00
O460   O     0.09161   0.25000   0.69989   0.00000  Uiso   1.00
O461   O     0.24172   0.25000   0.80012   0.00000  Uiso   1.00
O462   O     0.29580   0.17873   0.70654   0.00000  Uiso   1.00
C463   C     0.49976   0.16499   0.75020   0.00000  Uiso   1.00
C464   C     0.52484   0.28443   0.94806   0.00000  Uiso   1.00
C465   C     0.49906   0.25039   0.52714   0.00000  Uiso   1.00
C466   C     0.49955   0.25084   0.97269   0.00000  Uiso   1.00
C467   C     0.40156   0.24911   0.73810   0.00000  Uiso   1.00
C468   C     0.59844   0.25092   0.76189   0.00000  Uiso   1.00
C469   C     0.34719   0.24127   0.73351   0.00000  Uiso   1.00
C470   C     0.65280   0.25882   0.76644   0.00000  Uiso   1.00
C471   C     0.51413   0.04735   0.79313   0.00000  Uiso   1.00
C472   C     0.51555   0.45334   0.71079   0.00000  Uiso   1.00
C473   C     0.51382   0.09330   0.79334   0.00000  Uiso   1.00
C474   C     0.49990   0.33500   0.74977   0.00000  Uiso   1.00
C475   C     0.51527   0.40738   0.71043   0.00000  Uiso   1.00
C476   C     0.49924   0.11673   0.75044   0.00000  Uiso   1.00
C477   C     0.49943   0.38323   0.74948   0.00000  Uiso   1.00
C478   C     0.48436   0.09372   0.70749   0.00000  Uiso   1.00
C479   C     0.48332   0.40548   0.78863   0.00000  Uiso   1.00
C480   C     0.48401   0.04782   0.70741   0.00000  Uiso   1.00
C481   C     0.48291   0.45137   0.78868   0.00000  Uiso   1.00
C482   C     0.49917   0.02425   0.75015   0.00000  Uiso   1.00
C483   C     0.49926   0.47568   0.74988   0.00000  Uiso   1.00
C484   C     0.66064   0.20704   0.69738   0.00000  Uiso   1.00
C485   C     0.53866   0.27115   0.55724   0.00000  Uiso   1.00
C486   C     0.33931   0.29315   0.80248   0.00000  Uiso   1.00
C487   C     0.57940   0.29848   0.63576   0.00000  Uiso   1.00
C488   C     0.44290   0.18200   0.86701   0.00000  Uiso   1.00
C489   C     0.47495   0.21695   0.94445   0.00000  Uiso   1.00
C490   C     0.53828   0.27195   0.60776   0.00000  Uiso   1.00
C491   C     0.47406   0.21725   0.89377   0.00000  Uiso   1.00
C492   C     0.46146   0.22862   0.60084   0.00000  Uiso   1.00
C493   C     0.52522   0.28302   0.89750   0.00000  Uiso   1.00
C494   C     0.45982   0.22899   0.55003   0.00000  Uiso   1.00
Cu495  Cu    0.50000   0.25000   0.79822   0.00000  Uiso   1.00
Cu496  Cu    0.50000   0.25001   0.70179   0.00000  Uiso   1.00
H497   H     0.52674   0.02995   0.82643   0.00000  Uiso   1.00
H498   H     0.47044   0.38741   0.81895   0.00000  Uiso   1.00
H499   H     0.47135   0.03076   0.67401   0.00000  Uiso   1.00
H500   H     0.46925   0.46779   0.81880   0.00000  Uiso   1.00
H501   H     0.57002   0.28738   0.54156   0.00000  Uiso   1.00
H502   H     0.45573   0.19011   0.96165   0.00000  Uiso   1.00
H503   H     0.57302   0.31504   0.66838   0.00000  Uiso   1.00
H504   H     0.42425   0.18743   0.83102   0.00000  Uiso   1.00
H505   H     0.42743   0.21292   0.52913   0.00000  Uiso   1.00
H506   H     0.54389   0.31217   0.96731   0.00000  Uiso   1.00
H507   H     0.52912   0.47137   0.68079   0.00000  Uiso   1.00
H508   H     0.43124   0.21150   0.61734   0.00000  Uiso   1.00
H509   H     0.54538   0.30890   0.87973   0.00000  Uiso   1.00
H510   H     0.34317   0.20551   0.66323   0.00000  Uiso   1.00
H511   H     0.65658   0.29491   0.83651   0.00000  Uiso   1.00
H512   H     0.52576   0.11047   0.82683   0.00000  Uiso   1.00
H513   H     0.52820   0.39081   0.68003   0.00000  Uiso   1.00
H514   H     0.47244   0.11118   0.67404   0.00000  Uiso   1.00
N515   N     0.50000   0.25001   0.62935   0.00000  Uiso   1.00
N516   N     0.50000   0.24999   0.87066   0.00000  Uiso   1.00
O517   O     0.50000   0.18573   0.79072   0.00000  Uiso   1.00
O518   O     0.37098   0.32134   0.79334   0.00000  Uiso   1.00
O519   O     0.62158   0.30303   0.62183   0.00000  Uiso   1.00
O520   O     0.43662   0.14585   0.88573   0.00000  Uiso   1.00
O521   O     0.50000   0.31428   0.70929   0.00000  Uiso   1.00
O522   O     0.50000   0.18573   0.70928   0.00000  Uiso   1.00
O523   O     0.50000   0.31427   0.79072   0.00000  Uiso   1.00
O524   O     0.42495   0.25000   0.78132   0.00000  Uiso   1.00
O525   O     0.57505   0.25001   0.71868   0.00000  Uiso   1.00
O526   O     0.42495   0.25000   0.69989   0.00000  Uiso   1.00
O527   O     0.57505   0.25000   0.80012   0.00000  Uiso   1.00
O528   O     0.62913   0.17873   0.70654   0.00000  Uiso   1.00
C529   C     0.83309   0.16499   0.75020   0.00000  Uiso   1.00
C530   C     0.85818   0.28443   0.94806   0.00000  Uiso   1.00
C531   C     0.83239   0.25039   0.52714   0.00000  Uiso   1.00
C532   C     0.83288   0.25084   0.97269   0.00000  Uiso   1.00
C533   C     0.73489   0.24911   0.73810   0.00000  Uiso   1.00
C534   C     0.93177   0.25092   0.76189   0.00000  Uiso   1.00
C535   C     0.68052   0.24127   0.73351   0.00000  Uiso   1.00
C536   C     0.98614   0.25882   0.76644   0.00000  Uiso   1.00
C537   C     0.84747   0.04735   0.79313   0.00000  Uiso   1.00
C538   C     0.84888   0.45334   0.71079   0.00000  Uiso   1.00
C539   C     0.84716   0.09330   0.79334   0.00000  Uiso   1.00
C540   C     0.83323   0.33500   0.74977   0.00000  Uiso   1.00
C541   C     0.84861   0.40738   0.71043   0.00000  Uiso   1.00
C542   C     0.83257   0.11673   0.75044   0.00000  Uiso   1.00
C543   C     0.83276   0.38323   0.74948   0.00000  Uiso   1.00
C544   C     0.81769   0.09372   0.70749   0.00000  Uiso   1.00
C545   C     0.81665   0.40548   0.78863   0.00000  Uiso   1.00
C546   C     0.81735   0.04782   0.70741   0.00000  Uiso   1.00
C547   C     0.81624   0.45137   0.78868   0.00000  Uiso   1.00
C548   C     0.83250   0.02425   0.75015   0.00000  Uiso   1.00
C549   C     0.83259   0.47568   0.74988   0.00000  Uiso   1.00
C550   C     0.99398   0.20704   0.69738   0.00000  Uiso   1.00
C551   C     0.87200   0.27115   0.55724   0.00000  Uiso   1.00
C552   C     0.67265   0.29315   0.80248   0.00000  Uiso   1.00
C553   C     0.91274   0.29848   0.63576   0.00000  Uiso   1.00
C554   C     0.77623   0.18200   0.86701   0.00000  Uiso   1.00
C555   C     0.80828   0.21695   0.94445   0.00000  Uiso   1.00
C556   C     0.87162   0.27195   0.60776   0.00000  Uiso   1.00
C557   C     0.80739   0.21725   0.89377   0.00000  Uiso   1.00
C558   C     0.79480   0.22862   0.60084   0.00000  Uiso   1.00
C559   C     0.85855   0.28302   0.89750   0.00000  Uiso   1.00
C560   C     0.79316   0.22899   0.55003   0.00000  Uiso   1.00
Cu561  Cu    0.83333   0.25000   0.79822   0.00000  Uiso   1.00
Cu562  Cu    0.83333   0.25001   0.70179   0.00000  Uiso   1.00
H563   H     0.86007   0.02995   0.82643   0.00000  Uiso   1.00
H564   H     0.80377   0.38741   0.81895   0.00000  Uiso   1.00
H565   H     0.80469   0.03076   0.67401   0.00000  Uiso   1.00
H566   H     0.80259   0.46779   0.81880   0.00000  Uiso   1.00
H567   H     0.90336   0.28738   0.54156   0.00000  Uiso   1.00
H568   H     0.78907   0.19011   0.96165   0.00000  Uiso   1.00
H569   H     0.90635   0.31504   0.66838   0.00000  Uiso   1.00
H570   H     0.75758   0.18743   0.83102   0.00000  Uiso   1.00
H571   H     0.76077   0.21292   0.52913   0.00000  Uiso   1.00
H572   H     0.87723   0.31217   0.96731   0.00000  Uiso   1.00
H573   H     0.86245   0.47137   0.68079   0.00000  Uiso   1.00
H574   H     0.76458   0.21150   0.61734   0.00000  Uiso   1.00
H575   H     0.87871   0.30890   0.87973   0.00000  Uiso   1.00
H576   H     0.67650   0.20551   0.66323   0.00000  Uiso   1.00
H577   H     0.98991   0.29491   0.83651   0.00000  Uiso   1.00
H578   H     0.85909   0.11047   0.82683   0.00000  Uiso   1.00
H579   H     0.86154   0.39081   0.68003   0.00000  Uiso   1.00
H580   H     0.80577   0.11118   0.67404   0.00000  Uiso   1.00
N581   N     0.83333   0.25001   0.62935   0.00000  Uiso   1.00
N582   N     0.83333   0.24999   0.87066   0.00000  Uiso   1.00
O583   O     0.83334   0.18573   0.79072   0.00000  Uiso   1.00
O584   O     0.70431   0.32134   0.79334   0.00000  Uiso   1.00
O585   O     0.95491   0.30303   0.62183   0.00000  Uiso   1.00
O586   O     0.76995   0.14585   0.88573   0.00000  Uiso   1.00
O587   O     0.83333   0.31428   0.70929   0.00000  Uiso   1.00
O588   O     0.83334   0.18573   0.70928   0.00000  Uiso   1.00
O589   O     0.83333   0.31427   0.79072   0.00000  Uiso   1.00
O590   O     0.75828   0.25000   0.78132   0.00000  Uiso   1.00
O591   O     0.90839   0.25001   0.71868   0.00000  Uiso   1.00
O592   O     0.75828   0.25000   0.69989   0.00000  Uiso   1.00
O593   O     0.90839   0.25000   0.80012   0.00000  Uiso   1.00
O594   O     0.96246   0.17873   0.70654   0.00000  Uiso   1.00
C595   C     0.16643   0.66499   0.75020   0.00000  Uiso   1.00
C596   C     0.19151   0.78443   0.94806   0.00000  Uiso   1.00
C597   C     0.16572   0.75039   0.52714   0.00000  Uiso   1.00
C598   C     0.16622   0.75084   0.97269   0.00000  Uiso   1.00
C599   C     0.06823   0.74911   0.73810   0.00000  Uiso   1.00
C600   C     0.26511   0.75092   0.76189   0.00000  Uiso   1.00
C601   C     0.01386   0.74127   0.73351   0.00000  Uiso   1.00
C602   C     0.31947   0.75882   0.76644   0.00000  Uiso   1.00
C603   C     0.18080   0.54735   0.79313   0.00000  Uiso   1.00
C604   C     0.18222   0.95334   0.71079   0.00000  Uiso   1.00
C605   C     0.18049   0.59330   0.79334   0.00000  Uiso   1.00
C606   C     0.16656   0.83500   0.74977   0.00000  Uiso   1.00
C607   C     0.18194   0.90738   0.71043   0.00000  Uiso   1.00
C608   C     0.16591   0.61673   0.75044   0.00000  Uiso   1.00
C609   C     0.16609   0.88323   0.74948   0.00000  Uiso   1.00
C610   C     0.15103   0.59372   0.70749   0.00000  Uiso   1.00
C611   C     0.14999   0.90548   0.78863   0.00000  Uiso   1.00
C612   C     0.15068   0.54782   0.70741   0.00000  Uiso   1.00
C613   C     0.14958   0.95137   0.78868   0.00000  Uiso   1.00
C614   C     0.16583   0.52425   0.75015   0.00000  Uiso   1.00
C615   C     0.16592   0.97568   0.74988   0.00000  Uiso   1.00
C616   C     0.32731   0.70704   0.69738   0.00000  Uiso   1.00
C617   C     0.20533   0.77115   0.55724   0.00000  Uiso   1.00
C618   C     0.00598   0.79315   0.80248   0.00000  Uiso   1.00
C619   C     0.24607   0.79848   0.63576   0.00000  Uiso   1.00
C620   C     0.10957   0.68200   0.86701   0.00000  Uiso   1.00
C621   C     0.14162   0.71695   0.94445   0.00000  Uiso   1.00
C622   C     0.20495   0.77195   0.60776   0.00000  Uiso   1.00
C623   C     0.14072   0.71725   0.89377   0.00000  Uiso   1.00
C624   C     0.12813   0.72862   0.60084   0.00000  Uiso   1.00
C625   C     0.19189   0.78302   0.89750   0.00000  Uiso   1.00
C626   C     0.12649   0.72899   0.55003   0.00000  Uiso   1.00
Cu627  Cu    0.16667   0.75000   0.79822   0.00000  Uiso   1.00
Cu628  Cu    0.16667   0.75001   0.70179   0.00000  Uiso   1.00
H629   H     0.19340   0.52995   0.82643   0.00000  Uiso   1.00
H630   H     0.13711   0.88741   0.81895   0.00000  Uiso   1.00
H631   H     0.13802   0.53076   0.67401   0.00000  Uiso   1.00
H632   H     0.13592   0.96779   0.81880   0.00000  Uiso   1.00
H633   H     0.23669   0.78738   0.54156   0.00000  Uiso   1.00
H634   H     0.12240   0.69011   0.96165   0.00000  Uiso   1.00
H635   H     0.23969   0.81504   0.66838   0.00000  Uiso   1.00
H636   H     0.09091   0.68743   0.83102   0.00000  Uiso   1.00
H637   H     0.09410   0.71292   0.52913   0.00000  Uiso   1.00
H638   H     0.21056   0.81217   0.96731   0.00000  Uiso   1.00
H639   H     0.19579   0.97137   0.68079   0.00000  Uiso   1.00
H640   H     0.09791   0.71150   0.61734   0.00000  Uiso   1.00
H641   H     0.21204   0.80890   0.87973   0.00000  Uiso   1.00
H642   H     0.00983   0.70551   0.66323   0.00000  Uiso   1.00
H643   H     0.32324   0.79491   0.83651   0.00000  Uiso   1.00
H644   H     0.19243   0.61047   0.82683   0.00000  Uiso   1.00
H645   H     0.19487   0.89081   0.68003   0.00000  Uiso   1.00
H646   H     0.13910   0.61118   0.67404   0.00000  Uiso   1.00
N647   N     0.16667   0.75001   0.62935   0.00000  Uiso   1.00
N648   N     0.16667   0.74999   0.87066   0.00000  Uiso   1.00
O649   O     0.16667   0.68573   0.79072   0.00000  Uiso   1.00
O650   O     0.03764   0.82134   0.79334   0.00000  Uiso   1.00
O651   O     0.28825   0.80303   0.62183   0.00000  Uiso   1.00
O652   O     0.10329   0.64585   0.88573   0.00000  Uiso   1.00
O653   O     0.16666   0.81428   0.70929   0.00000  Uiso   1.00
O654   O     0.16667   0.68573   0.70928   0.00000  Uiso   1.00
O655   O     0.16666   0.81427   0.79072   0.00000  Uiso   1.00
O656   O     0.09161   0.75000   0.78132   0.00000  Uiso   1.00
O657   O     0.24172   0.75001   0.71868   0.00000  Uiso   1.00
O658   O     0.09161   0.75000   0.69989   0.00000  Uiso   1.00
O659   O     0.24172   0.75000   0.80012   0.00000  Uiso   1.00
O660   O     0.29580   0.67873   0.70654   0.00000  Uiso   1.00
C661   C     0.49976   0.66499   0.75020   0.00000  Uiso   1.00
C662   C     0.52484   0.78443   0.94806   0.00000  Uiso   1.00
C663   C     0.49906   0.75039   0.52714   0.00000  Uiso   1.00
C664   C     0.49955   0.75084   0.97269   0.00000  Uiso   1.00
C665   C     0.40156   0.74911   0.73810   0.00000  Uiso   1.00
C666   C     0.59844   0.75092   0.76189   0.00000  Uiso   1.00
C667   C     0.34719   0.74127   0.73351   0.00000  Uiso   1.00
C668   C     0.65280   0.75882   0.76644   0.00000  Uiso   1.00
C669   C     0.51413   0.54735   0.79313   0.00000  Uiso   1.00
C670   C     0.51555   0.95334   0.71079   0.00000  Uiso   1.00
C671   C     0.51382   0.59330   0.79334   0.00000  Uiso   1.00
C672   C     0.49990   0.83500   0.74977   0.00000  Uiso   1.00
C673   C     0.51527   0.90738   0.71043   0.00000  Uiso   1.00
C674   C     0.49924   0.61673   0.75044   0.00000  Uiso   1.00
C675   C     0.49943   0.88323   0.74948   0.00000  Uiso   1.00
C676   C     0.48436   0.59372   0.70749   0.00000  Uiso   1.00
C677   C     0.48332   0.90548   0.78863   0.00000  Uiso   1.00
C678   C     0.48401   0.54782   0.70741   0.00000  Uiso   1.00
C679   C     0.48291   0.95137   0.78868   0.00000  Uiso   1.00
C680   C     0.49917   0.52425   0.75015   0.00000  Uiso   1.00
C681   C     0.49926   0.97568   0.74988   0.00000  Uiso   1.00
C682   C     0.66064   0.70704   0.69738   0.00000  Uiso   1.00
C683   C     0.53866   0.77115   0.55724   0.00000  Uiso   1.00
C684   C     0.33931   0.79315   0.80248   0.00000  Uiso   1.00
C685   C     0.57940   0.79848   0.63576   0.00000  Uiso   1.00
C686   C     0.44290   0.68200   0.86701   0.00000  Uiso   1.00
C687   C     0.47495   0.71695   0.94445   0.00000  Uiso   1.00
C688   C     0.53828   0.77195   0.60776   0.00000  Uiso   1.00
C689   C     0.47406   0.71725   0.89377   0.00000  Uiso   1.00
C690   C     0.46146   0.72862   0.60084   0.00000  Uiso   1.00
C691   C     0.52522   0.78302   0.89750   0.00000  Uiso   1.00
C692   C     0.45982   0.72899   0.55003   0.00000  Uiso   1.00
Cu693  Cu    0.50000   0.75000   0.79822   0.00000  Uiso   1.00
Cu694  Cu    0.50000   0.75001   0.70179   0.00000  Uiso   1.00
H695   H     0.52674   0.52995   0.82643   0.00000  Uiso   1.00
H696   H     0.47044   0.88741   0.81895   0.00000  Uiso   1.00
H697   H     0.47135   0.53076   0.67401   0.00000  Uiso   1.00
H698   H     0.46925   0.96779   0.81880   0.00000  Uiso   1.00
H699   H     0.57002   0.78738   0.54156   0.00000  Uiso   1.00
H700   H     0.45573   0.69011   0.96165   0.00000  Uiso   1.00
H701   H     0.57302   0.81504   0.66838   0.00000  Uiso   1.00
H702   H     0.42425   0.68743   0.83102   0.00000  Uiso   1.00
H703   H     0.42743   0.71292   0.52913   0.00000  Uiso   1.00
H704   H     0.54389   0.81217   0.96731   0.00000  Uiso   1.00
H705   H     0.52912   0.97137   0.68079   0.00000  Uiso   1.00
H706   H     0.43124   0.71150   0.61734   0.00000  Uiso   1.00
H707   H     0.54538   0.80890   0.87973   0.00000  Uiso   1.00
H708   H     0.34317   0.70551   0.66323   0.00000  Uiso   1.00
H709   H     0.65658   0.79491   0.83651   0.00000  Uiso   1.00
H710   H     0.52576   0.61047   0.82683   0.00000  Uiso   1.00
H711   H     0.52820   0.89081   0.68003   0.00000  Uiso   1.00
H712   H     0.47244   0.61118   0.67404   0.00000  Uiso   1.00
N713   N     0.50000   0.75001   0.62935   0.00000  Uiso   1.00
N714   N     0.50000   0.74999   0.87066   0.00000  Uiso   1.00
O715   O     0.50000   0.68573   0.79072   0.00000  Uiso   1.00
O716   O     0.37098   0.82134   0.79334   0.00000  Uiso   1.00
O717   O     0.62158   0.80303   0.62183   0.00000  Uiso   1.00
O718   O     0.43662   0.64585   0.88573   0.00000  Uiso   1.00
O719   O     0.50000   0.81428   0.70929   0.00000  Uiso   1.00
O720   O     0.50000   0.68573   0.70928   0.00000  Uiso   1.00
O721   O     0.50000   0.81427   0.79072   0.00000  Uiso   1.00
O722   O     0.42495   0.75000   0.78132   0.00000  Uiso   1.00
O723   O     0.57505   0.75001   0.71868   0.00000  Uiso   1.00
O724   O     0.42495   0.75000   0.69989   0.00000  Uiso   1.00
O725   O     0.57505   0.75000   0.80012   0.00000  Uiso   1.00
O726   O     0.62913   0.67873   0.70654   0.00000  Uiso   1.00
C727   C     0.83309   0.66499   0.75020   0.00000  Uiso   1.00
C728   C     0.85818   0.78443   0.94806   0.00000  Uiso   1.00
C729   C     0.83239   0.75039   0.52714   0.00000  Uiso   1.00
C730   C     0.83288   0.75084   0.97269   0.00000  Uiso   1.00
C731   C     0.73489   0.74911   0.73810   0.00000  Uiso   1.00
C732   C     0.93177   0.75092   0.76189   0.00000  Uiso   1.00
C733   C     0.68052   0.74127   0.73351   0.00000  Uiso   1.00
C734   C     0.98614   0.75882   0.76644   0.00000  Uiso   1.00
C735   C     0.84747   0.54735   0.79313   0.00000  Uiso   1.00
C736   C     0.84888   0.95334   0.71079   0.00000  Uiso   1.00
C737   C     0.84716   0.59330   0.79334   0.00000  Uiso   1.00
C738   C     0.83323   0.83500   0.74977   0.00000  Uiso   1.00
C739   C     0.84861   0.90738   0.71043   0.00000  Uiso   1.00
C740   C     0.83257   0.61673   0.75044   0.00000  Uiso   1.00
C741   C     0.83276   0.88323   0.74948   0.00000  Uiso   1.00
C742   C     0.81769   0.59372   0.70749   0.00000  Uiso   1.00
C743   C     0.81665   0.90548   0.78863   0.00000  Uiso   1.00
C744   C     0.81735   0.54782   0.70741   0.00000  Uiso   1.00
C745   C     0.81624   0.95137   0.78868   0.00000  Uiso   1.00
C746   C     0.83250   0.52425   0.75015   0.00000  Uiso   1.00
C747   C     0.83259   0.97568   0.74988   0.00000  Uiso   1.00
C748   C     0.99398   0.70704   0.69738   0.00000  Uiso   1.00
C749   C     0.87200   0.77115   0.55724   0.00000  Uiso   1.00
C750   C     0.67265   0.79315   0.80248   0.00000  Uiso   1.00
C751   C     0.91274   0.79848   0.63576   0.00000  Uiso   1.00
C752   C     0.77623   0.68200   0.86701   0.00000  Uiso   1.00
C753   C     0.80828   0.71695   0.94445   0.00000  Uiso   1.00
C754   C     0.87162   0.77195   0.60776   0.00000  Uiso   1.00
C755   C     0.80739   0.71725   0.89377   0.00000  Uiso   1.00
C756   C     0.79480   0.72862   0.60084   0.00000  Uiso   1.00
C757   C     0.85855   0.78302   0.89750   0.00000  Uiso   1.00
C758   C     0.79316   0.72899   0.55003   0.00000  Uiso   1.00
Cu759  Cu    0.83333   0.75000   0.79822   0.00000  Uiso   1.00
Cu760  Cu    0.83333   0.75001   0.70179   0.00000  Uiso   1.00
H761   H     0.86007   0.52995   0.82643   0.00000  Uiso   1.00
H762   H     0.80377   0.88741   0.81895   0.00000  Uiso   1.00
H763   H     0.80469   0.53076   0.67401   0.00000  Uiso   1.00
H764   H     0.80259   0.96779   0.81880   0.00000  Uiso   1.00
H765   H     0.90336   0.78738   0.54156   0.00000  Uiso   1.00
H766   H     0.78907   0.69011   0.96165   0.00000  Uiso   1.00
H767   H     0.90635   0.81504   0.66838   0.00000  Uiso   1.00
H768   H     0.75758   0.68743   0.83102   0.00000  Uiso   1.00
H769   H     0.76077   0.71292   0.52913   0.00000  Uiso   1.00
H770   H     0.87723   0.81217   0.96731   0.00000  Uiso   1.00
H771   H     0.86245   0.97137   0.68079   0.00000  Uiso   1.00
H772   H     0.76458   0.71150   0.61734   0.00000  Uiso   1.00
H773   H     0.87871   0.80890   0.87973   0.00000  Uiso   1.00
H774   H     0.67650   0.70551   0.66323   0.00000  Uiso   1.00
H775   H     0.98991   0.79491   0.83651   0.00000  Uiso   1.00
H776   H     0.85909   0.61047   0.82683   0.00000  Uiso   1.00
H777   H     0.86154   0.89081   0.68003   0.00000  Uiso   1.00
H778   H     0.80577   0.61118   0.67404   0.00000  Uiso   1.00
N779   N     0.83333   0.75001   0.62935   0.00000  Uiso   1.00
N780   N     0.83333   0.74999   0.87066   0.00000  Uiso   1.00
O781   O     0.83334   0.68573   0.79072   0.00000  Uiso   1.00
O782   O     0.70431   0.82134   0.79334   0.00000  Uiso   1.00
O783   O     0.95491   0.80303   0.62183   0.00000  Uiso   1.00
O784   O     0.76995   0.64585   0.88573   0.00000  Uiso   1.00
O785   O     0.83333   0.81428   0.70929   0.00000  Uiso   1.00
O786   O     0.83334   0.68573   0.70928   0.00000  Uiso   1.00
O787   O     0.83333   0.81427   0.79072   0.00000  Uiso   1.00
O788   O     0.75828   0.75000   0.78132   0.00000  Uiso   1.00
O789   O     0.90839   0.75001   0.71868   0.00000  Uiso   1.00
O790   O     0.75828   0.75000   0.69989   0.00000  Uiso   1.00
O791   O     0.90839   0.75000   0.80012   0.00000  Uiso   1.00
O792   O     0.96246   0.67873   0.70654   0.00000  Uiso   1.00
loop_
_geom_bond_atom_site_label_1
_geom_bond_atom_site_label_2
_geom_bond_distance
_geom_bond_site_symmetry_2
_ccdc_geom_bond_type
C1     O55     1.298   .     A
C1     O60     1.295   .     A
C1     C14     1.460   .     S
C2     C4      1.414   .     A
C2     H44     1.081   .     S
C2     C31     1.412   .     A
C3     C32     1.414   .     A
C3     C23     1.398   .     A
C3     C400    1.519   1_554 S
C4     C27     1.398   .     A
C4     C399    1.519   .     S
C5     C7      1.434   .     S
C5     O62     1.286   .     A
C5     O64     1.291   .     A
C6     O63     1.286   .     A
C6     C8      1.434   .     S
C6     O65     1.291   .     A
C7     C140    1.359   1_455 S
C7     C154    1.494   1_455 S
C8     C73     1.359   .     S
C8     C90     1.494   .     S
C9     C20     1.405   .     A
C9     C11     1.391   .     A
C9     H35     1.083   .     S
C10    H45     1.083   .     S
C10    C21     1.405   .     A
C10    C13     1.391   .     A
C11    H50     1.083   .     S
C11    C14     1.401   .     A
C12    C15     1.460   .     S
C12    O61     1.295   .     A
C12    O59     1.298   .     A
C13    C15     1.401   .     A
C13    H51     1.083   .     S
C14    C16     1.402   .     A
C15    C17     1.402   .     A
C16    C18     1.389   .     A
C16    H52     1.083   .     S
C17    H36     1.083   .     S
C17    C19     1.389   .     A
C18    H37     1.083   .     S
C18    C20     1.403   .     A
C19    H38     1.083   .     S
C19    C21     1.403   .     A
C20    C219    1.470   1_545 S
C21    C218    1.470   .     S
C22    O66     1.222   .     D
C22    C73     1.494   .     S
C22    H114    1.085   .     S
C23    C28     1.410   .     A
C23    H39     1.082   .     S
C24    O56     1.222   .     D
C24    C140    1.494   1_455 S
C24    H181    1.085   1_455 S
C25    C28     1.480   .     S
C25    O57     1.222   .     D
C25    H41     1.076   .     S
C26    O58     1.222   .     D
C26    C29     1.481   .     S
C26    H42     1.076   .     S
C27    C29     1.410   .     A
C27    H40     1.082   .     S
C28    N53     1.383   .     A
C29    N54     1.383   .     A
C30    N53     1.365   .     A
C30    H46     1.081   .     S
C30    C32     1.411   .     A
C31    H47     1.081   .     S
C31    N54     1.365   .     A
C32    H43     1.081   .     S
Cu33   O55     1.959   .     S
Cu33   Cu34    2.687   .     S
Cu33   O65     1.968   .     S
Cu33   O61     1.954   .     S
Cu33   O62     1.974   .     S
Cu33   N54     2.019   .     S
Cu34   O64     1.968   .     S
Cu34   O60     1.954   .     S
Cu34   O63     1.974   .     S
Cu34   O59     1.959   .     S
Cu34   N53     2.019   .     S
H48    C154    1.085   1_455 S
H49    C90     1.085   .     S
C67    O121    1.298   .     A
C67    O126    1.295   .     A
C67    C80     1.460   .     S
C68    C70     1.414   .     A
C68    H110    1.081   .     S
C68    C97     1.412   .     A
C69    C98     1.414   .     A
C69    C89     1.398   .     A
C69    C466    1.519   1_554 S
C70    C93     1.398   .     A
C70    C465    1.519   .     S
C71    C73     1.434   .     S
C71    O128    1.286   .     A
C71    O130    1.291   .     A
C72    O129    1.286   .     A
C72    C74     1.434   .     S
C72    O131    1.291   .     A
C74    C139    1.359   .     S
C74    C156    1.494   .     S
C75    C86     1.405   .     A
C75    C77     1.391   .     A
C75    H101    1.083   .     S
C76    H111    1.083   .     S
C76    C87     1.405   .     A
C76    C79     1.391   .     A
C77    H116    1.083   .     S
C77    C80     1.401   .     A
C78    C81     1.460   .     S
C78    O127    1.295   .     A
C78    O125    1.298   .     A
C79    C81     1.401   .     A
C79    H117    1.083   .     S
C80    C82     1.402   .     A
C81    C83     1.402   .     A
C82    C84     1.389   .     A
C82    H118    1.083   .     S
C83    H102    1.083   .     S
C83    C85     1.389   .     A
C84    H103    1.083   .     S
C84    C86     1.403   .     A
C85    H104    1.083   .     S
C85    C87     1.403   .     A
C86    C285    1.470   1_545 S
C87    C284    1.470   .     S
C88    O132    1.222   .     D
C88    C139    1.494   .     S
C88    H180    1.085   .     S
C89    C94     1.410   .     A
C89    H105    1.082   .     S
C90    O122    1.222   .     D
C91    C94     1.480   .     S
C91    O123    1.222   .     D
C91    H107    1.076   .     S
C92    O124    1.222   .     D
C92    C95     1.481   .     S
C92    H108    1.076   .     S
C93    C95     1.410   .     A
C93    H106    1.082   .     S
C94    N119    1.383   .     A
C95    N120    1.383   .     A
C96    N119    1.365   .     A
C96    H112    1.081   .     S
C96    C98     1.411   .     A
C97    H113    1.081   .     S
C97    N120    1.365   .     A
C98    H109    1.081   .     S
Cu99   O121    1.959   .     S
Cu99   Cu100   2.687   .     S
Cu99   O131    1.968   .     S
Cu99   O127    1.954   .     S
Cu99   O128    1.974   .     S
Cu99   N120    2.019   .     S
Cu100  O130    1.968   .     S
Cu100  O126    1.954   .     S
Cu100  O129    1.974   .     S
Cu100  O125    1.959   .     S
Cu100  N119    2.019   .     S
H115   C156    1.085   .     S
C133   O187    1.298   .     A
C133   O192    1.295   .     A
C133   C146    1.460   .     S
C134   C136    1.414   .     A
C134   H176    1.081   .     S
C134   C163    1.412   .     A
C135   C164    1.414   .     A
C135   C155    1.398   .     A
C135   C532    1.519   1_554 S
C136   C159    1.398   .     A
C136   C531    1.519   .     S
C137   C139    1.434   .     S
C137   O194    1.286   .     A
C137   O196    1.291   .     A
C138   O195    1.286   .     A
C138   C140    1.434   .     S
C138   O197    1.291   .     A
C140   C7      1.359   1_655 S
C140   C24     1.494   1_655 S
C141   C152    1.405   .     A
C141   C143    1.391   .     A
C141   H167    1.083   .     S
C142   H177    1.083   .     S
C142   C153    1.405   .     A
C142   C145    1.391   .     A
C143   H182    1.083   .     S
C143   C146    1.401   .     A
C144   C147    1.460   .     S
C144   O193    1.295   .     A
C144   O191    1.298   .     A
C145   C147    1.401   .     A
C145   H183    1.083   .     S
C146   C148    1.402   .     A
C147   C149    1.402   .     A
C148   C150    1.389   .     A
C148   H184    1.083   .     S
C149   H168    1.083   .     S
C149   C151    1.389   .     A
C150   H169    1.083   .     S
C150   C152    1.403   .     A
C151   H170    1.083   .     S
C151   C153    1.403   .     A
C152   C351    1.470   1_545 S
C153   C350    1.470   .     S
C154   O198    1.222   .     D
C154   C7      1.494   1_655 S
C154   H48     1.085   1_655 S
C155   C160    1.410   .     A
C155   H171    1.082   .     S
C156   O188    1.222   .     D
C157   C160    1.480   .     S
C157   O189    1.222   .     D
C157   H173    1.076   .     S
C158   O190    1.222   .     D
C158   C161    1.481   .     S
C158   H174    1.076   .     S
C159   C161    1.410   .     A
C159   H172    1.082   .     S
C160   N185    1.383   .     A
C161   N186    1.383   .     A
C162   N185    1.365   .     A
C162   H178    1.081   .     S
C162   C164    1.411   .     A
C163   H179    1.081   .     S
C163   N186    1.365   .     A
C164   H175    1.081   .     S
Cu165  O187    1.959   .     S
Cu165  Cu166   2.687   .     S
Cu165  O197    1.968   .     S
Cu165  O193    1.954   .     S
Cu165  O194    1.974   .     S
Cu165  N186    2.019   .     S
Cu166  O196    1.968   .     S
Cu166  O192    1.954   .     S
Cu166  O195    1.974   .     S
Cu166  O191    1.959   .     S
Cu166  N185    2.019   .     S
H181   C24     1.085   1_655 S
C199   O253    1.298   .     A
C199   O258    1.295   .     A
C199   C212    1.460   .     S
C200   C202    1.414   .     A
C200   H242    1.081   .     S
C200   C229    1.412   .     A
C201   C230    1.414   .     A
C201   C221    1.398   .     A
C201   C598    1.519   1_554 S
C202   C225    1.398   .     A
C202   C597    1.519   .     S
C203   C205    1.434   .     S
C203   O260    1.286   .     A
C203   O262    1.291   .     A
C204   O261    1.286   .     A
C204   C206    1.434   .     S
C204   O263    1.291   .     A
C205   C338    1.359   1_455 S
C205   C352    1.494   1_455 S
C206   C271    1.359   .     S
C206   C288    1.494   .     S
C207   C218    1.405   .     A
C207   C209    1.391   .     A
C207   H233    1.083   .     S
C208   H243    1.083   .     S
C208   C219    1.405   .     A
C208   C211    1.391   .     A
C209   H248    1.083   .     S
C209   C212    1.401   .     A
C210   C213    1.460   .     S
C210   O259    1.295   .     A
C210   O257    1.298   .     A
C211   C213    1.401   .     A
C211   H249    1.083   .     S
C212   C214    1.402   .     A
C213   C215    1.402   .     A
C214   C216    1.389   .     A
C214   H250    1.083   .     S
C215   H234    1.083   .     S
C215   C217    1.389   .     A
C216   H235    1.083   .     S
C216   C218    1.403   .     A
C217   H236    1.083   .     S
C217   C219    1.403   .     A
C219   C20     1.470   1_565 S
C220   O264    1.222   .     D
C220   C271    1.494   .     S
C220   H312    1.085   .     S
C221   C226    1.410   .     A
C221   H237    1.082   .     S
C222   O254    1.222   .     D
C222   C338    1.494   1_455 S
C222   H379    1.085   1_455 S
C223   C226    1.480   .     S
C223   O255    1.222   .     D
C223   H239    1.076   .     S
C224   O256    1.222   .     D
C224   C227    1.481   .     S
C224   H240    1.076   .     S
C225   C227    1.410   .     A
C225   H238    1.082   .     S
C226   N251    1.383   .     A
C227   N252    1.383   .     A
C228   N251    1.365   .     A
C228   H244    1.081   .     S
C228   C230    1.411   .     A
C229   H245    1.081   .     S
C229   N252    1.365   .     A
C230   H241    1.081   .     S
Cu231  O253    1.959   .     S
Cu231  Cu232   2.687   .     S
Cu231  O263    1.968   .     S
Cu231  O259    1.954   .     S
Cu231  O260    1.974   .     S
Cu231  N252    2.019   .     S
Cu232  O262    1.968   .     S
Cu232  O258    1.954   .     S
Cu232  O261    1.974   .     S
Cu232  O257    1.959   .     S
Cu232  N251    2.019   .     S
H246   C352    1.085   1_455 S
H247   C288    1.085   .     S
C265   O319    1.298   .     A
C265   O324    1.295   .     A
C265   C278    1.460   .     S
C266   C268    1.414   .     A
C266   H308    1.081   .     S
C266   C295    1.412   .     A
C267   C296    1.414   .     A
C267   C287    1.398   .     A
C267   C664    1.519   1_554 S
C268   C291    1.398   .     A
C268   C663    1.519   .     S
C269   C271    1.434   .     S
C269   O326    1.286   .     A
C269   O328    1.291   .     A
C270   O327    1.286   .     A
C270   C272    1.434   .     S
C270   O329    1.291   .     A
C272   C337    1.359   .     S
C272   C354    1.494   .     S
C273   C284    1.405   .     A
C273   C275    1.391   .     A
C273   H299    1.083   .     S
C274   H309    1.083   .     S
C274   C285    1.405   .     A
C274   C277    1.391   .     A
C275   H314    1.083   .     S
C275   C278    1.401   .     A
C276   C279    1.460   .     S
C276   O325    1.295   .     A
C276   O323    1.298   .     A
C277   C279    1.401   .     A
C277   H315    1.083   .     S
C278   C280    1.402   .     A
C279   C281    1.402   .     A
C280   C282    1.389   .     A
C280   H316    1.083   .     S
C281   H300    1.083   .     S
C281   C283    1.389   .     A
C282   H301    1.083   .     S
C282   C284    1.403   .     A
C283   H302    1.083   .     S
C283   C285    1.403   .     A
C285   C86     1.470   1_565 S
C286   O330    1.222   .     D
C286   C337    1.494   .     S
C286   H378    1.085   .     S
C287   C292    1.410   .     A
C287   H303    1.082   .     S
C288   O320    1.222   .     D
C289   C292    1.480   .     S
C289   O321    1.222   .     D
C289   H305    1.076   .     S
C290   O322    1.222   .     D
C290   C293    1.481   .     S
C290   H306    1.076   .     S
C291   C293    1.410   .     A
C291   H304    1.082   .     S
C292   N317    1.383   .     A
C293   N318    1.383   .     A
C294   N317    1.365   .     A
C294   H310    1.081   .     S
C294   C296    1.411   .     A
C295   H311    1.081   .     S
C295   N318    1.365   .     A
C296   H307    1.081   .     S
Cu297  O319    1.959   .     S
Cu297  Cu298   2.687   .     S
Cu297  O329    1.968   .     S
Cu297  O325    1.954   .     S
Cu297  O326    1.974   .     S
Cu297  N318    2.019   .     S
Cu298  O328    1.968   .     S
Cu298  O324    1.954   .     S
Cu298  O327    1.974   .     S
Cu298  O323    1.959   .     S
Cu298  N317    2.019   .     S
H313   C354    1.085   .     S
C331   O385    1.298   .     A
C331   O390    1.295   .     A
C331   C344    1.460   .     S
C332   C334    1.414   .     A
C332   H374    1.081   .     S
C332   C361    1.412   .     A
C333   C362    1.414   .     A
C333   C353    1.398   .     A
C333   C730    1.519   1_554 S
C334   C357    1.398   .     A
C334   C729    1.519   .     S
C335   C337    1.434   .     S
C335   O392    1.286   .     A
C335   O394    1.291   .     A
C336   O393    1.286   .     A
C336   C338    1.434   .     S
C336   O395    1.291   .     A
C338   C205    1.359   1_655 S
C338   C222    1.494   1_655 S
C339   C350    1.405   .     A
C339   C341    1.391   .     A
C339   H365    1.083   .     S
C340   H375    1.083   .     S
C340   C351    1.405   .     A
C340   C343    1.391   .     A
C341   H380    1.083   .     S
C341   C344    1.401   .     A
C342   C345    1.460   .     S
C342   O391    1.295   .     A
C342   O389    1.298   .     A
C343   C345    1.401   .     A
C343   H381    1.083   .     S
C344   C346    1.402   .     A
C345   C347    1.402   .     A
C346   C348    1.389   .     A
C346   H382    1.083   .     S
C347   H366    1.083   .     S
C347   C349    1.389   .     A
C348   H367    1.083   .     S
C348   C350    1.403   .     A
C349   H368    1.083   .     S
C349   C351    1.403   .     A
C351   C152    1.470   1_565 S
C352   O396    1.222   .     D
C352   C205    1.494   1_655 S
C352   H246    1.085   1_655 S
C353   C358    1.410   .     A
C353   H369    1.082   .     S
C354   O386    1.222   .     D
C355   C358    1.480   .     S
C355   O387    1.222   .     D
C355   H371    1.076   .     S
C356   O388    1.222   .     D
C356   C359    1.481   .     S
C356   H372    1.076   .     S
C357   C359    1.410   .     A
C357   H370    1.082   .     S
C358   N383    1.383   .     A
C359   N384    1.383   .     A
C360   N383    1.365   .     A
C360   H376    1.081   .     S
C360   C362    1.411   .     A
C361   H377    1.081   .     S
C361   N384    1.365   .     A
C362   H373    1.081   .     S
Cu363  O385    1.959   .     S
Cu363  Cu364   2.687   .     S
Cu363  O395    1.968   .     S
Cu363  O391    1.954   .     S
Cu363  O392    1.974   .     S
Cu363  N384    2.019   .     S
Cu364  O394    1.968   .     S
Cu364  O390    1.954   .     S
Cu364  O393    1.974   .     S
Cu364  O389    1.959   .     S
Cu364  N383    2.019   .     S
H379   C222    1.085   1_655 S
C397   O451    1.298   .     A
C397   O456    1.295   .     A
C397   C410    1.460   .     S
C398   C400    1.414   .     A
C398   H440    1.081   .     S
C398   C427    1.412   .     A
C399   C428    1.414   .     A
C399   C419    1.398   .     A
C400   C423    1.398   .     A
C400   C3      1.519   1_556 S
C401   C403    1.434   .     S
C401   O458    1.286   .     A
C401   O460    1.291   .     A
C402   O459    1.286   .     A
C402   C404    1.434   .     S
C402   O461    1.291   .     A
C403   C536    1.359   1_455 S
C403   C550    1.494   1_455 S
C404   C469    1.359   .     S
C404   C486    1.494   .     S
C405   C416    1.405   .     A
C405   C407    1.391   .     A
C405   H431    1.083   .     S
C406   H441    1.083   .     S
C406   C417    1.405   .     A
C406   C409    1.391   .     A
C407   H446    1.083   .     S
C407   C410    1.401   .     A
C408   C411    1.460   .     S
C408   O457    1.295   .     A
C408   O455    1.298   .     A
C409   C411    1.401   .     A
C409   H447    1.083   .     S
C410   C412    1.402   .     A
C411   C413    1.402   .     A
C412   C414    1.389   .     A
C412   H448    1.083   .     S
C413   H432    1.083   .     S
C413   C415    1.389   .     A
C414   H433    1.083   .     S
C414   C416    1.403   .     A
C415   H434    1.083   .     S
C415   C417    1.403   .     A
C416   C615    1.470   1_545 S
C417   C614    1.470   .     S
C418   O462    1.222   .     D
C418   C469    1.494   .     S
C418   H510    1.085   .     S
C419   C424    1.410   .     A
C419   H435    1.082   .     S
C420   O452    1.222   .     D
C420   C536    1.494   1_455 S
C420   H577    1.085   1_455 S
C421   C424    1.480   .     S
C421   O453    1.222   .     D
C421   H437    1.076   .     S
C422   O454    1.222   .     D
C422   C425    1.481   .     S
C422   H438    1.076   .     S
C423   C425    1.410   .     A
C423   H436    1.082   .     S
C424   N449    1.383   .     A
C425   N450    1.383   .     A
C426   N449    1.365   .     A
C426   H442    1.081   .     S
C426   C428    1.411   .     A
C427   H443    1.081   .     S
C427   N450    1.365   .     A
C428   H439    1.081   .     S
Cu429  O451    1.959   .     S
Cu429  Cu430   2.687   .     S
Cu429  O461    1.968   .     S
Cu429  O457    1.954   .     S
Cu429  O458    1.974   .     S
Cu429  N450    2.019   .     S
Cu430  O460    1.968   .     S
Cu430  O456    1.954   .     S
Cu430  O459    1.974   .     S
Cu430  O455    1.959   .     S
Cu430  N449    2.019   .     S
H444   C550    1.085   1_455 S
H445   C486    1.085   .     S
C463   O517    1.298   .     A
C463   O522    1.295   .     A
C463   C476    1.460   .     S
C464   C466    1.414   .     A
C464   H506    1.081   .     S
C464   C493    1.412   .     A
C465   C494    1.414   .     A
C465   C485    1.398   .     A
C466   C489    1.398   .     A
C466   C69     1.519   1_556 S
C467   C469    1.434   .     S
C467   O524    1.286   .     A
C467   O526    1.291   .     A
C468   O525    1.286   .     A
C468   C470    1.434   .     S
C468   O527    1.291   .     A
C470   C535    1.359   .     S
C470   C552    1.494   .     S
C471   C482    1.405   .     A
C471   C473    1.391   .     A
C471   H497    1.083   .     S
C472   H507    1.083   .     S
C472   C483    1.405   .     A
C472   C475    1.391   .     A
C473   H512    1.083   .     S
C473   C476    1.401   .     A
C474   C477    1.460   .     S
C474   O523    1.295   .     A
C474   O521    1.298   .     A
C475   C477    1.401   .     A
C475   H513    1.083   .     S
C476   C478    1.402   .     A
C477   C479    1.402   .     A
C478   C480    1.389   .     A
C478   H514    1.083   .     S
C479   H498    1.083   .     S
C479   C481    1.389   .     A
C480   H499    1.083   .     S
C480   C482    1.403   .     A
C481   H500    1.083   .     S
C481   C483    1.403   .     A
C482   C681    1.470   1_545 S
C483   C680    1.470   .     S
C484   O528    1.222   .     D
C484   C535    1.494   .     S
C484   H576    1.085   .     S
C485   C490    1.410   .     A
C485   H501    1.082   .     S
C486   O518    1.222   .     D
C487   C490    1.480   .     S
C487   O519    1.222   .     D
C487   H503    1.076   .     S
C488   O520    1.222   .     D
C488   C491    1.481   .     S
C488   H504    1.076   .     S
C489   C491    1.410   .     A
C489   H502    1.082   .     S
C490   N515    1.383   .     A
C491   N516    1.383   .     A
C492   N515    1.365   .     A
C492   H508    1.081   .     S
C492   C494    1.411   .     A
C493   H509    1.081   .     S
C493   N516    1.365   .     A
C494   H505    1.081   .     S
Cu495  O517    1.959   .     S
Cu495  Cu496   2.687   .     S
Cu495  O527    1.968   .     S
Cu495  O523    1.954   .     S
Cu495  O524    1.974   .     S
Cu495  N516    2.019   .     S
Cu496  O526    1.968   .     S
Cu496  O522    1.954   .     S
Cu496  O525    1.974   .     S
Cu496  O521    1.959   .     S
Cu496  N515    2.019   .     S
H511   C552    1.085   .     S
C529   O583    1.298   .     A
C529   O588    1.295   .     A
C529   C542    1.460   .     S
C530   C532    1.414   .     A
C530   H572    1.081   .     S
C530   C559    1.412   .     A
C531   C560    1.414   .     A
C531   C551    1.398   .     A
C532   C555    1.398   .     A
C532   C135    1.519   1_556 S
C533   C535    1.434   .     S
C533   O590    1.286   .     A
C533   O592    1.291   .     A
C534   O591    1.286   .     A
C534   C536    1.434   .     S
C534   O593    1.291   .     A
C536   C403    1.359   1_655 S
C536   C420    1.494   1_655 S
C537   C548    1.405   .     A
C537   C539    1.391   .     A
C537   H563    1.083   .     S
C538   H573    1.083   .     S
C538   C549    1.405   .     A
C538   C541    1.391   .     A
C539   H578    1.083   .     S
C539   C542    1.401   .     A
C540   C543    1.460   .     S
C540   O589    1.295   .     A
C540   O587    1.298   .     A
C541   C543    1.401   .     A
C541   H579    1.083   .     S
C542   C544    1.402   .     A
C543   C545    1.402   .     A
C544   C546    1.389   .     A
C544   H580    1.083   .     S
C545   H564    1.083   .     S
C545   C547    1.389   .     A
C546   H565    1.083   .     S
C546   C548    1.403   .     A
C547   H566    1.083   .     S
C547   C549    1.403   .     A
C548   C747    1.470   1_545 S
C549   C746    1.470   .     S
C550   O594    1.222   .     D
C550   C403    1.494   1_655 S
C550   H444    1.085   1_655 S
C551   C556    1.410   .     A
C551   H567    1.082   .     S
C552   O584    1.222   .     D
C553   C556    1.480   .     S
C553   O585    1.222   .     D
C553   H569    1.076   .     S
C554   O586    1.222   .     D
C554   C557    1.481   .     S
C554   H570    1.076   .     S
C555   C557    1.410   .     A
C555   H568    1.082   .     S
C556   N581    1.383   .     A
C557   N582    1.383   .     A
C558   N581    1.365   .     A
C558   H574    1.081   .     S
C558   C560    1.411   .     A
C559   H575    1.081   .     S
C559   N582    1.365   .     A
C560   H571    1.081   .     S
Cu561  O583    1.959   .     S
Cu561  Cu562   2.687   .     S
Cu561  O593    1.968   .     S
Cu561  O589    1.954   .     S
Cu561  O590    1.974   .     S
Cu561  N582    2.019   .     S
Cu562  O592    1.968   .     S
Cu562  O588    1.954   .     S
Cu562  O591    1.974   .     S
Cu562  O587    1.959   .     S
Cu562  N581    2.019   .     S
H577   C420    1.085   1_655 S
C595   O649    1.298   .     A
C595   O654    1.295   .     A
C595   C608    1.460   .     S
C596   C598    1.414   .     A
C596   H638    1.081   .     S
C596   C625    1.412   .     A
C597   C626    1.414   .     A
C597   C617    1.398   .     A
C598   C621    1.398   .     A
C598   C201    1.519   1_556 S
C599   C601    1.434   .     S
C599   O656    1.286   .     A
C599   O658    1.291   .     A
C600   O657    1.286   .     A
C600   C602    1.434   .     S
C600   O659    1.291   .     A
C601   C734    1.359   1_455 S
C601   C748    1.494   1_455 S
C602   C667    1.359   .     S
C602   C684    1.494   .     S
C603   C614    1.405   .     A
C603   C605    1.391   .     A
C603   H629    1.083   .     S
C604   H639    1.083   .     S
C604   C615    1.405   .     A
C604   C607    1.391   .     A
C605   H644    1.083   .     S
C605   C608    1.401   .     A
C606   C609    1.460   .     S
C606   O655    1.295   .     A
C606   O653    1.298   .     A
C607   C609    1.401   .     A
C607   H645    1.083   .     S
C608   C610    1.402   .     A
C609   C611    1.402   .     A
C610   C612    1.389   .     A
C610   H646    1.083   .     S
C611   H630    1.083   .     S
C611   C613    1.389   .     A
C612   H631    1.083   .     S
C612   C614    1.403   .     A
C613   H632    1.083   .     S
C613   C615    1.403   .     A
C615   C416    1.470   1_565 S
C616   O660    1.222   .     D
C616   C667    1.494   .     S
C616   H708    1.085   .     S
C617   C622    1.410   .     A
C617   H633    1.082   .     S
C618   O650    1.222   .     D
C618   C734    1.494   1_455 S
C618   H775    1.085   1_455 S
C619   C622    1.480   .     S
C619   O651    1.222   .     D
C619   H635    1.076   .     S
C620   O652    1.222   .     D
C620   C623    1.481   .     S
C620   H636    1.076   .     S
C621   C623    1.410   .     A
C621   H634    1.082   .     S
C622   N647    1.383   .     A
C623   N648    1.383   .     A
C624   N647    1.365   .     A
C624   H640    1.081   .     S
C624   C626    1.411   .     A
C625   H641    1.081   .     S
C625   N648    1.365   .     A
C626   H637    1.081   .     S
Cu627  O649    1.959   .     S
Cu627  Cu628   2.687   .     S
Cu627  O659    1.968   .     S
Cu627  O655    1.954   .     S
Cu627  O656    1.974   .     S
Cu627  N648    2.019   .     S
Cu628  O658    1.968   .     S
Cu628  O654    1.954   .     S
Cu628  O657    1.974   .     S
Cu628  O653    1.959   .     S
Cu628  N647    2.019   .     S
H642   C748    1.085   1_455 S
H643   C684    1.085   .     S
C661   O715    1.298   .     A
C661   O720    1.295   .     A
C661   C674    1.460   .     S
C662   C664    1.414   .     A
C662   H704    1.081   .     S
C662   C691    1.412   .     A
C663   C692    1.414   .     A
C663   C683    1.398   .     A
C664   C687    1.398   .     A
C664   C267    1.519   1_556 S
C665   C667    1.434   .     S
C665   O722    1.286   .     A
C665   O724    1.291   .     A
C666   O723    1.286   .     A
C666   C668    1.434   .     S
C666   O725    1.291   .     A
C668   C733    1.359   .     S
C668   C750    1.494   .     S
C669   C680    1.405   .     A
C669   C671    1.391   .     A
C669   H695    1.083   .     S
C670   H705    1.083   .     S
C670   C681    1.405   .     A
C670   C673    1.391   .     A
C671   H710    1.083   .     S
C671   C674    1.401   .     A
C672   C675    1.460   .     S
C672   O721    1.295   .     A
C672   O719    1.298   .     A
C673   C675    1.401   .     A
C673   H711    1.083   .     S
C674   C676    1.402   .     A
C675   C677    1.402   .     A
C676   C678    1.389   .     A
C676   H712    1.083   .     S
C677   H696    1.083   .     S
C677   C679    1.389   .     A
C678   H697    1.083   .     S
C678   C680    1.403   .     A
C679   H698    1.083   .     S
C679   C681    1.403   .     A
C681   C482    1.470   1_565 S
C682   O726    1.222   .     D
C682   C733    1.494   .     S
C682   H774    1.085   .     S
C683   C688    1.410   .     A
C683   H699    1.082   .     S
C684   O716    1.222   .     D
C685   C688    1.480   .     S
C685   O717    1.222   .     D
C685   H701    1.076   .     S
C686   O718    1.222   .     D
C686   C689    1.481   .     S
C686   H702    1.076   .     S
C687   C689    1.410   .     A
C687   H700    1.082   .     S
C688   N713    1.383   .     A
C689   N714    1.383   .     A
C690   N713    1.365   .     A
C690   H706    1.081   .     S
C690   C692    1.411   .     A
C691   H707    1.081   .     S
C691   N714    1.365   .     A
C692   H703    1.081   .     S
Cu693  O715    1.959   .     S
Cu693  Cu694   2.687   .     S
Cu693  O725    1.968   .     S
Cu693  O721    1.954   .     S
Cu693  O722    1.974   .     S
Cu693  N714    2.019   .     S
Cu694  O724    1.968   .     S
Cu694  O720    1.954   .     S
Cu694  O723    1.974   .     S
Cu694  O719    1.959   .     S
Cu694  N713    2.019   .     S
H709   C750    1.085   .     S
C727   O781    1.298   .     A
C727   O786    1.295   .     A
C727   C740    1.460   .     S
C728   C730    1.414   .     A
C728   H770    1.081   .     S
C728   C757    1.412   .     A
C729   C758    1.414   .     A
C729   C749    1.398   .     A
C730   C753    1.398   .     A
C730   C333    1.519   1_556 S
C731   C733    1.434   .     S
C731   O788    1.286   .     A
C731   O790    1.291   .     A
C732   O789    1.286   .     A
C732   C734    1.434   .     S
C732   O791    1.291   .     A
C734   C601    1.359   1_655 S
C734   C618    1.494   1_655 S
C735   C746    1.405   .     A
C735   C737    1.391   .     A
C735   H761    1.083   .     S
C736   H771    1.083   .     S
C736   C747    1.405   .     A
C736   C739    1.391   .     A
C737   H776    1.083   .     S
C737   C740    1.401   .     A
C738   C741    1.460   .     S
C738   O787    1.295   .     A
C738   O785    1.298   .     A
C739   C741    1.401   .     A
C739   H777    1.083   .     S
C740   C742    1.402   .     A
C741   C743    1.402   .     A
C742   C744    1.389   .     A
C742   H778    1.083   .     S
C743   H762    1.083   .     S
C743   C745    1.389   .     A
C744   H763    1.083   .     S
C744   C746    1.403   .     A
C745   H764    1.083   .     S
C745   C747    1.403   .     A
C747   C548    1.470   1_565 S
C748   O792    1.222   .     D
C748   C601    1.494   1_655 S
C748   H642    1.085   1_655 S
C749   C754    1.410   .     A
C749   H765    1.082   .     S
C750   O782    1.222   .     D
C751   C754    1.480   .     S
C751   O783    1.222   .     D
C751   H767    1.076   .     S
C752   O784    1.222   .     D
C752   C755    1.481   .     S
C752   H768    1.076   .     S
C753   C755    1.410   .     A
C753   H766    1.082   .     S
C754   N779    1.383   .     A
C755   N780    1.383   .     A
C756   N779    1.365   .     A
C756   H772    1.081   .     S
C756   C758    1.411   .     A
C757   H773    1.081   .     S
C757   N780    1.365   .     A
C758   H769    1.081   .     S
Cu759  O781    1.959   .     S
Cu759  Cu760   2.687   .     S
Cu759  O791    1.968   .     S
Cu759  O787    1.954   .     S
Cu759  O788    1.974   .     S
Cu759  N780    2.019   .     S
Cu760  O790    1.968   .     S
Cu760  O786    1.954   .     S
Cu760  O789    1.974   .     S
Cu760  O785    1.959   .     S
Cu760  N779    2.019   .     S
H775   C618    1.085   1_655 S
