data_str_m1_o1_o1_pcu_sym.18
_audit_creation_date              2020-01-03
_audit_creation_method            'Materials Studio'
_symmetry_space_group_name_H-M    'P1'
_symmetry_Int_Tables_number       1
_symmetry_cell_setting            triclinic
loop_
_symmetry_equiv_pos_as_xyz
  x,y,z
_cell_length_a                    25.9427
_cell_length_b                    25.8998
_cell_length_c                    25.9051
_cell_angle_alpha                 90.0294
_cell_angle_beta                  89.9837
_cell_angle_gamma                 89.8437
loop_
_atom_site_label
_atom_site_type_symbol
_atom_site_fract_x
_atom_site_fract_y
_atom_site_fract_z
_atom_site_U_iso_or_equiv
_atom_site_adp_type
_atom_site_occupancy
C1     C     0.38994   0.25009   0.24994   0.00000  Uiso   1.00
C2     C     0.60999   0.25010   0.24996   0.00000  Uiso   1.00
C3     C     0.97282   0.76096   0.20400   0.00000  Uiso   1.00
C4     C     0.02749   0.73553   0.70449   0.00000  Uiso   1.00
C5     C     0.97259   0.20534   0.23089   0.00000  Uiso   1.00
C6     C     0.02714   0.76051   0.20401   0.00000  Uiso   1.00
C7     C     0.97299   0.22987   0.79238   0.00000  Uiso   1.00
C8     C     0.71156   0.72156   0.02704   0.00000  Uiso   1.00
C9     C     0.28961   0.27597   0.97251   0.00000  Uiso   1.00
C10    C     0.78986   0.22373   0.02686   0.00000  Uiso   1.00
C11    C     0.21946   0.78691   0.97293   0.00000  Uiso   1.00
C12    C     0.29071   0.27471   0.02681   0.00000  Uiso   1.00
C13    C     0.24985   0.74982   0.38998   0.00000  Uiso   1.00
C14    C     0.71131   0.72196   0.97265   0.00000  Uiso   1.00
C15    C     0.21919   0.78657   0.02732   0.00000  Uiso   1.00
C16    C     0.78887   0.22288   0.97252   0.00000  Uiso   1.00
C17    C     0.28150   0.71456   0.97269   0.00000  Uiso   1.00
C18    C     0.71026   0.27623   0.02743   0.00000  Uiso   1.00
C19    C     0.20993   0.22402   0.97307   0.00000  Uiso   1.00
C20    C     0.78673   0.77958   0.02733   0.00000  Uiso   1.00
C21    C     0.70998   0.27632   0.97305   0.00000  Uiso   1.00
C22    C     0.28047   0.71344   0.02702   0.00000  Uiso   1.00
C23    C     0.78702   0.77987   0.97295   0.00000  Uiso   1.00
C24    C     0.75019   0.25008   0.61003   0.00000  Uiso   1.00
C25    C     0.20948   0.22534   0.02744   0.00000  Uiso   1.00
C26    C     0.72549   0.47248   0.79038   0.00000  Uiso   1.00
C27    C     0.21818   0.52727   0.28541   0.00000  Uiso   1.00
C28    C     0.77835   0.47301   0.28817   0.00000  Uiso   1.00
C29    C     0.21396   0.52737   0.71877   0.00000  Uiso   1.00
C30    C     0.21741   0.47291   0.28466   0.00000  Uiso   1.00
C31    C     0.72624   0.52678   0.79114   0.00000  Uiso   1.00
C32    C     0.21395   0.47298   0.71878   0.00000  Uiso   1.00
C33    C     0.77990   0.52731   0.28672   0.00000  Uiso   1.00
C34    C     0.47263   0.29110   0.22507   0.00000  Uiso   1.00
C35    C     0.61005   0.75008   0.25010   0.00000  Uiso   1.00
C36    C     0.52694   0.70518   0.76975   0.00000  Uiso   1.00
C37    C     0.47274   0.70649   0.23404   0.00000  Uiso   1.00
C38    C     0.52696   0.29517   0.76276   0.00000  Uiso   1.00
C39    C     0.47263   0.70538   0.76891   0.00000  Uiso   1.00
C40    C     0.52693   0.29075   0.22506   0.00000  Uiso   1.00
C41    C     0.47269   0.29496   0.76263   0.00000  Uiso   1.00
C42    C     0.52705   0.70594   0.23424   0.00000  Uiso   1.00
C43    C     0.21427   0.71888   0.52733   0.00000  Uiso   1.00
C44    C     0.70641   0.22905   0.47303   0.00000  Uiso   1.00
C45    C     0.78163   0.71423   0.52725   0.00000  Uiso   1.00
C46    C     0.39003   0.24921   0.74948   0.00000  Uiso   1.00
C47    C     0.22685   0.29165   0.47310   0.00000  Uiso   1.00
C48    C     0.70676   0.22897   0.52740   0.00000  Uiso   1.00
C49    C     0.21360   0.71923   0.47295   0.00000  Uiso   1.00
C50    C     0.22614   0.29068   0.52737   0.00000  Uiso   1.00
C51    C     0.78137   0.71398   0.47287   0.00000  Uiso   1.00
C52    C     0.25074   0.55387   0.25066   0.00000  Uiso   1.00
C53    C     0.74967   0.44602   0.74910   0.00000  Uiso   1.00
C54    C     0.24932   0.55398   0.75054   0.00000  Uiso   1.00
C55    C     0.74950   0.44619   0.25038   0.00000  Uiso   1.00
C56    C     0.75088   0.55382   0.75070   0.00000  Uiso   1.00
C57    C     0.74994   0.75016   0.61007   0.00000  Uiso   1.00
C58    C     0.24929   0.44608   0.24929   0.00000  Uiso   1.00
C59    C     0.75080   0.55398   0.24906   0.00000  Uiso   1.00
C60    C     0.25011   0.44617   0.74987   0.00000  Uiso   1.00
C61    C     0.55382   0.74885   0.75084   0.00000  Uiso   1.00
C62    C     0.44602   0.25050   0.24998   0.00000  Uiso   1.00
C63    C     0.55398   0.24969   0.74902   0.00000  Uiso   1.00
C64    C     0.44623   0.75119   0.25078   0.00000  Uiso   1.00
C65    C     0.55378   0.25019   0.25000   0.00000  Uiso   1.00
C66    C     0.44615   0.74961   0.75076   0.00000  Uiso   1.00
C67    C     0.55390   0.75042   0.25080   0.00000  Uiso   1.00
C68    C     0.24967   0.25049   0.38991   0.00000  Uiso   1.00
C69    C     0.44635   0.24898   0.75024   0.00000  Uiso   1.00
C70    C     0.74902   0.25009   0.44610   0.00000  Uiso   1.00
C71    C     0.25074   0.74932   0.55390   0.00000  Uiso   1.00
C72    C     0.25069   0.25058   0.44601   0.00000  Uiso   1.00
C73    C     0.75054   0.75048   0.55392   0.00000  Uiso   1.00
C74    C     0.24996   0.74997   0.44611   0.00000  Uiso   1.00
C75    C     0.74997   0.24909   0.55386   0.00000  Uiso   1.00
C76    C     0.74935   0.74924   0.44612   0.00000  Uiso   1.00
C77    C     0.24958   0.24905   0.55382   0.00000  Uiso   1.00
C78    C     0.74969   0.05394   0.24976   0.00000  Uiso   1.00
C79    C     0.25002   0.38998   0.75008   0.00000  Uiso   1.00
C80    C     0.24924   0.94609   0.74927   0.00000  Uiso   1.00
C81    C     0.25044   0.05385   0.24900   0.00000  Uiso   1.00
C82    C     0.74923   0.94609   0.75082   0.00000  Uiso   1.00
C83    C     0.25067   0.05388   0.75054   0.00000  Uiso   1.00
C84    C     0.75049   0.94613   0.25081   0.00000  Uiso   1.00
C85    C     0.75069   0.05387   0.74928   0.00000  Uiso   1.00
C86    C     0.24908   0.94608   0.25059   0.00000  Uiso   1.00
C87    C     0.05364   0.75060   0.25061   0.00000  Uiso   1.00
C88    C     0.94607   0.25092   0.74988   0.00000  Uiso   1.00
C89    C     0.05410   0.75003   0.74990   0.00000  Uiso   1.00
C90    C     0.74999   0.61008   0.24974   0.00000  Uiso   1.00
C91    C     0.94610   0.24953   0.24921   0.00000  Uiso   1.00
C92    C     0.05370   0.25013   0.74904   0.00000  Uiso   1.00
C93    C     0.94603   0.74919   0.25009   0.00000  Uiso   1.00
C94    C     0.05377   0.24882   0.24921   0.00000  Uiso   1.00
C95    C     0.94637   0.74963   0.74983   0.00000  Uiso   1.00
C96    C     0.74997   0.74999   0.94606   0.00000  Uiso   1.00
C97    C     0.25054   0.24964   0.05387   0.00000  Uiso   1.00
C98    C     0.74922   0.24949   0.94608   0.00000  Uiso   1.00
C99    C     0.24939   0.74953   0.05390   0.00000  Uiso   1.00
C100   C     0.24944   0.25033   0.94607   0.00000  Uiso   1.00
C101   C     0.25009   0.61005   0.25010   0.00000  Uiso   1.00
C102   C     0.74921   0.75039   0.05386   0.00000  Uiso   1.00
C103   C     0.25058   0.75085   0.94610   0.00000  Uiso   1.00
C104   C     0.75053   0.25043   0.05389   0.00000  Uiso   1.00
C105   C     0.31705   0.44404   0.17879   0.00000  Uiso   1.00
C106   C     0.80118   0.55630   0.66703   0.00000  Uiso   1.00
C107   C     0.31947   0.44477   0.81915   0.00000  Uiso   1.00
C108   C     0.68865   0.55565   0.17351   0.00000  Uiso   1.00
C109   C     0.80413   0.44505   0.66750   0.00000  Uiso   1.00
C110   C     0.31554   0.55535   0.17750   0.00000  Uiso   1.00
C111   C     0.69604   0.44477   0.16821   0.00000  Uiso   1.00
C112   C     0.61003   0.74921   0.75077   0.00000  Uiso   1.00
C113   C     0.75049   0.38992   0.74933   0.00000  Uiso   1.00
C114   C     0.32230   0.55591   0.81518   0.00000  Uiso   1.00
C115   C     0.44422   0.83971   0.71406   0.00000  Uiso   1.00
C116   C     0.55511   0.16891   0.30443   0.00000  Uiso   1.00
C117   C     0.44568   0.15571   0.72175   0.00000  Uiso   1.00
C118   C     0.55599   0.84179   0.28601   0.00000  Uiso   1.00
C119   C     0.44444   0.16911   0.30369   0.00000  Uiso   1.00
C120   C     0.55749   0.83729   0.71196   0.00000  Uiso   1.00
C121   C     0.44548   0.83966   0.29353   0.00000  Uiso   1.00
C122   C     0.55604   0.15642   0.71874   0.00000  Uiso   1.00
C123   C     0.83571   0.29379   0.55661   0.00000  Uiso   1.00
C124   C     0.74969   0.61003   0.75054   0.00000  Uiso   1.00
C125   C     0.33112   0.80538   0.44485   0.00000  Uiso   1.00
C126   C     0.30103   0.16566   0.55454   0.00000  Uiso   1.00
C127   C     0.68424   0.82215   0.44422   0.00000  Uiso   1.00
C128   C     0.32413   0.81339   0.55565   0.00000  Uiso   1.00
C129   C     0.83850   0.28894   0.44410   0.00000  Uiso   1.00
C130   C     0.68364   0.82204   0.55549   0.00000  Uiso   1.00
C131   C     0.29749   0.16452   0.44357   0.00000  Uiso   1.00
C132   C     0.80738   0.94364   0.17161   0.00000  Uiso   1.00
C133   C     0.18181   0.05589   0.82008   0.00000  Uiso   1.00
C134   C     0.18395   0.94409   0.17769   0.00000  Uiso   1.00
C135   C     0.24996   0.38993   0.24985   0.00000  Uiso   1.00
C136   C     0.68463   0.05560   0.67732   0.00000  Uiso   1.00
C137   C     0.18255   0.94451   0.82062   0.00000  Uiso   1.00
C138   C     0.80789   0.05487   0.17089   0.00000  Uiso   1.00
C139   C     0.68559   0.94436   0.67672   0.00000  Uiso   1.00
C140   C     0.18251   0.05545   0.17883   0.00000  Uiso   1.00
C141   C     0.81337   0.05564   0.82418   0.00000  Uiso   1.00
C142   C     0.31702   0.94459   0.32069   0.00000  Uiso   1.00
C143   C     0.31519   0.05515   0.67681   0.00000  Uiso   1.00
C144   C     0.69118   0.94503   0.32857   0.00000  Uiso   1.00
C145   C     0.31528   0.05563   0.32203   0.00000  Uiso   1.00
C146   C     0.75017   0.38998   0.25030   0.00000  Uiso   1.00
C147   C     0.81559   0.94438   0.82265   0.00000  Uiso   1.00
C148   C     0.69924   0.05585   0.33406   0.00000  Uiso   1.00
C149   C     0.31848   0.94391   0.68030   0.00000  Uiso   1.00
C150   C     0.94455   0.72238   0.34439   0.00000  Uiso   1.00
C151   C     0.05453   0.29713   0.66333   0.00000  Uiso   1.00
C152   C     0.94492   0.77593   0.84349   0.00000  Uiso   1.00
C153   C     0.05737   0.33725   0.28812   0.00000  Uiso   1.00
C154   C     0.94368   0.29704   0.66380   0.00000  Uiso   1.00
C155   C     0.05466   0.72794   0.34530   0.00000  Uiso   1.00
C156   C     0.94412   0.33926   0.28698   0.00000  Uiso   1.00
C157   C     0.24988   0.61009   0.74995   0.00000  Uiso   1.00
C158   C     0.05509   0.78082   0.84311   0.00000  Uiso   1.00
C159   C     0.05458   0.16081   0.20552   0.00000  Uiso   1.00
C160   C     0.94540   0.72057   0.65671   0.00000  Uiso   1.00
C161   C     0.05751   0.20285   0.83331   0.00000  Uiso   1.00
C162   C     0.94401   0.77735   0.15702   0.00000  Uiso   1.00
C163   C     0.05566   0.71898   0.65691   0.00000  Uiso   1.00
C164   C     0.94403   0.15851   0.21310   0.00000  Uiso   1.00
C165   C     0.05712   0.77498   0.15710   0.00000  Uiso   1.00
C166   C     0.94400   0.20669   0.83611   0.00000  Uiso   1.00
C167   C     0.67394   0.68845   0.05539   0.00000  Uiso   1.00
C168   C     0.88994   0.74984   0.25000   0.00000  Uiso   1.00
C169   C     0.33196   0.30254   0.94379   0.00000  Uiso   1.00
C170   C     0.83024   0.19337   0.05482   0.00000  Uiso   1.00
C171   C     0.18500   0.82353   0.94460   0.00000  Uiso   1.00
C172   C     0.33219   0.30303   0.05486   0.00000  Uiso   1.00
C173   C     0.66825   0.69560   0.94450   0.00000  Uiso   1.00
C174   C     0.18904   0.82684   0.05581   0.00000  Uiso   1.00
C175   C     0.83048   0.19524   0.94367   0.00000  Uiso   1.00
C176   C     0.31377   0.67631   0.94399   0.00000  Uiso   1.00
C177   C     0.66686   0.30148   0.05599   0.00000  Uiso   1.00
C178   C     0.17097   0.19165   0.94542   0.00000  Uiso   1.00
C179   C     0.10999   0.25059   0.74932   0.00000  Uiso   1.00
C180   C     0.82690   0.80883   0.05626   0.00000  Uiso   1.00
C181   C     0.67024   0.30747   0.94504   0.00000  Uiso   1.00
C182   C     0.31445   0.67626   0.05524   0.00000  Uiso   1.00
C183   C     0.82359   0.81501   0.94520   0.00000  Uiso   1.00
C184   C     0.16451   0.20311   0.05590   0.00000  Uiso   1.00
C185   C     0.70101   0.44398   0.83422   0.00000  Uiso   1.00
C186   C     0.18274   0.55584   0.32094   0.00000  Uiso   1.00
C187   C     0.80996   0.44474   0.32728   0.00000  Uiso   1.00
C188   C     0.17843   0.55594   0.68338   0.00000  Uiso   1.00
C189   C     0.18471   0.44457   0.32268   0.00000  Uiso   1.00
C190   C     0.25007   0.74981   0.11007   0.00000  Uiso   1.00
C191   C     0.69856   0.55489   0.83308   0.00000  Uiso   1.00
C192   C     0.17377   0.44489   0.68843   0.00000  Uiso   1.00
C193   C     0.81104   0.55596   0.32574   0.00000  Uiso   1.00
C194   C     0.44449   0.33544   0.20078   0.00000  Uiso   1.00
C195   C     0.55449   0.66087   0.79480   0.00000  Uiso   1.00
C196   C     0.44260   0.66236   0.21282   0.00000  Uiso   1.00
C197   C     0.55544   0.34168   0.78075   0.00000  Uiso   1.00
C198   C     0.44397   0.65866   0.78659   0.00000  Uiso   1.00
C199   C     0.55522   0.33185   0.19666   0.00000  Uiso   1.00
C200   C     0.44260   0.34075   0.78019   0.00000  Uiso   1.00
C201   C     0.74958   0.25029   0.88992   0.00000  Uiso   1.00
C202   C     0.55580   0.66002   0.21453   0.00000  Uiso   1.00
C203   C     0.17552   0.68769   0.55623   0.00000  Uiso   1.00
C204   C     0.66328   0.20269   0.44522   0.00000  Uiso   1.00
C205   C     0.81261   0.67453   0.55560   0.00000  Uiso   1.00
C206   C     0.19911   0.33402   0.44536   0.00000  Uiso   1.00
C207   C     0.66087   0.20905   0.55604   0.00000  Uiso   1.00
C208   C     0.17737   0.68397   0.44499   0.00000  Uiso   1.00
C209   C     0.20156   0.33411   0.55613   0.00000  Uiso   1.00
C210   C     0.81663   0.67822   0.44446   0.00000  Uiso   1.00
C211   C     0.11010   0.75003   0.74998   0.00000  Uiso   1.00
C212   C     0.25046   0.24936   0.61004   0.00000  Uiso   1.00
C213   C     0.88995   0.24989   0.24989   0.00000  Uiso   1.00
C214   C     0.75005   0.75011   0.88996   0.00000  Uiso   1.00
C215   C     0.25057   0.25047   0.11002   0.00000  Uiso   1.00
C216   C     0.88994   0.25009   0.74999   0.00000  Uiso   1.00
C217   C     0.10995   0.74968   0.25059   0.00000  Uiso   1.00
C218   C     0.24973   0.24982   0.88995   0.00000  Uiso   1.00
C219   C     0.74966   0.74975   0.11003   0.00000  Uiso   1.00
C220   C     0.11002   0.24919   0.24922   0.00000  Uiso   1.00
C221   C     0.89007   0.74982   0.74989   0.00000  Uiso   1.00
C222   C     0.75043   0.24966   0.11006   0.00000  Uiso   1.00
C223   C     0.75000   0.74985   0.38994   0.00000  Uiso   1.00
C224   C     0.24991   0.75025   0.88993   0.00000  Uiso   1.00
C225   C     0.74998   0.88994   0.75021   0.00000  Uiso   1.00
C226   C     0.24980   0.11004   0.24960   0.00000  Uiso   1.00
C227   C     0.75029   0.11006   0.24969   0.00000  Uiso   1.00
C228   C     0.24986   0.88994   0.74994   0.00000  Uiso   1.00
C229   C     0.25008   0.11005   0.75008   0.00000  Uiso   1.00
C230   C     0.74977   0.88995   0.25034   0.00000  Uiso   1.00
C231   C     0.24993   0.88994   0.25014   0.00000  Uiso   1.00
C232   C     0.74997   0.11005   0.74977   0.00000  Uiso   1.00
C233   C     0.28178   0.47265   0.21448   0.00000  Uiso   1.00
C234   C     0.61008   0.24992   0.74979   0.00000  Uiso   1.00
C235   C     0.77554   0.52739   0.70976   0.00000  Uiso   1.00
C236   C     0.28487   0.47291   0.78243   0.00000  Uiso   1.00
C237   C     0.72185   0.52730   0.21134   0.00000  Uiso   1.00
C238   C     0.77489   0.47300   0.70881   0.00000  Uiso   1.00
C239   C     0.28265   0.52701   0.21533   0.00000  Uiso   1.00
C240   C     0.72223   0.47292   0.21120   0.00000  Uiso   1.00
C241   C     0.28444   0.52728   0.78262   0.00000  Uiso   1.00
C242   C     0.47301   0.79395   0.73393   0.00000  Uiso   1.00
C243   C     0.52703   0.21007   0.27544   0.00000  Uiso   1.00
C244   C     0.47350   0.20343   0.73699   0.00000  Uiso   1.00
C245   C     0.38998   0.75083   0.25079   0.00000  Uiso   1.00
C246   C     0.52742   0.79483   0.26861   0.00000  Uiso   1.00
C247   C     0.47282   0.21062   0.27590   0.00000  Uiso   1.00
C248   C     0.52733   0.79339   0.73365   0.00000  Uiso   1.00
C249   C     0.47311   0.79505   0.26922   0.00000  Uiso   1.00
C250   C     0.52764   0.20404   0.73506   0.00000  Uiso   1.00
C251   C     0.79249   0.26991   0.52703   0.00000  Uiso   1.00
C252   C     0.28814   0.77863   0.47278   0.00000  Uiso   1.00
C253   C     0.27342   0.20797   0.52670   0.00000  Uiso   1.00
C254   C     0.71747   0.78467   0.47280   0.00000  Uiso   1.00
C255   C     0.28756   0.77924   0.52716   0.00000  Uiso   1.00
C256   C     0.74931   0.24944   0.38996   0.00000  Uiso   1.00
C257   C     0.79229   0.27001   0.47267   0.00000  Uiso   1.00
C258   C     0.71850   0.78576   0.52714   0.00000  Uiso   1.00
C259   C     0.27392   0.20871   0.47236   0.00000  Uiso   1.00
C260   C     0.77814   0.97258   0.21201   0.00000  Uiso   1.00
C261   C     0.21760   0.02730   0.78486   0.00000  Uiso   1.00
C262   C     0.21693   0.97268   0.21538   0.00000  Uiso   1.00
C263   C     0.71898   0.02715   0.71387   0.00000  Uiso   1.00
C264   C     0.21653   0.97294   0.78382   0.00000  Uiso   1.00
C265   C     0.77701   0.02691   0.21082   0.00000  Uiso   1.00
C266   C     0.71799   0.97282   0.71487   0.00000  Uiso   1.00
C267   C     0.25020   0.75004   0.61005   0.00000  Uiso   1.00
C268   C     0.21778   0.02705   0.21446   0.00000  Uiso   1.00
C269   C     0.78163   0.02714   0.78549   0.00000  Uiso   1.00
C270   C     0.28169   0.97289   0.28509   0.00000  Uiso   1.00
C271   C     0.28282   0.02701   0.71537   0.00000  Uiso   1.00
C272   C     0.72310   0.97310   0.28965   0.00000  Uiso   1.00
C273   C     0.28244   0.02718   0.28425   0.00000  Uiso   1.00
C274   C     0.78093   0.97279   0.78629   0.00000  Uiso   1.00
C275   C     0.72370   0.02750   0.28992   0.00000  Uiso   1.00
C276   C     0.28234   0.97261   0.71502   0.00000  Uiso   1.00
C277   C     0.97260   0.73737   0.29625   0.00000  Uiso   1.00
C278   C     0.38997   0.74994   0.75006   0.00000  Uiso   1.00
C279   C     0.02666   0.27218   0.70697   0.00000  Uiso   1.00
C280   C     0.97319   0.76208   0.79564   0.00000  Uiso   1.00
C281   C     0.02725   0.29330   0.26651   0.00000  Uiso   1.00
C282   C     0.97242   0.27311   0.70769   0.00000  Uiso   1.00
C283   C     0.02665   0.73989   0.29679   0.00000  Uiso   1.00
C284   C     0.97293   0.29377   0.26641   0.00000  Uiso   1.00
C285   C     0.02729   0.76409   0.79536   0.00000  Uiso   1.00
C286   C     0.02691   0.20515   0.23027   0.00000  Uiso   1.00
C287   C     0.97332   0.73682   0.70411   0.00000  Uiso   1.00
C288   C     0.02733   0.22914   0.79186   0.00000  Uiso   1.00
H1     H     0.35461   0.45979   0.16938   0.00000  Uiso   1.00
H2     H     0.53977   0.15456   0.34063   0.00000  Uiso   1.00
H3     H     0.45404   0.13752   0.68493   0.00000  Uiso   1.00
H4     H     0.53968   0.87987   0.27961   0.00000  Uiso   1.00
H5     H     0.45865   0.12967   0.30297   0.00000  Uiso   1.00
H6     H     0.59113   0.82946   0.68830   0.00000  Uiso   1.00
H7     H     0.46292   0.85995   0.32572   0.00000  Uiso   1.00
H8     H     0.54002   0.11856   0.72654   0.00000  Uiso   1.00
H9     H     0.84840   0.27700   0.59274   0.00000  Uiso   1.00
H10    H     0.36679   0.81424   0.46474   0.00000  Uiso   1.00
H11    H     0.33636   0.14968   0.53868   0.00000  Uiso   1.00
H12    H     0.80038   0.54125   0.62794   0.00000  Uiso   1.00
H13    H     0.67833   0.86083   0.45923   0.00000  Uiso   1.00
H14    H     0.33432   0.85081   0.53989   0.00000  Uiso   1.00
H15    H     0.87678   0.28265   0.45977   0.00000  Uiso   1.00
H16    H     0.64644   0.83241   0.53937   0.00000  Uiso   1.00
H17    H     0.29649   0.12589   0.45972   0.00000  Uiso   1.00
H18    H     0.80866   0.95794   0.13227   0.00000  Uiso   1.00
H19    H     0.14440   0.03982   0.82950   0.00000  Uiso   1.00
H20    H     0.17671   0.96011   0.13968   0.00000  Uiso   1.00
H21    H     0.64707   0.04013   0.66747   0.00000  Uiso   1.00
H22    H     0.17561   0.95982   0.85900   0.00000  Uiso   1.00
H23    H     0.33134   0.46286   0.85498   0.00000  Uiso   1.00
H24    H     0.84375   0.03841   0.15684   0.00000  Uiso   1.00
H25    H     0.67950   0.96002   0.63836   0.00000  Uiso   1.00
H26    H     0.14484   0.03983   0.16968   0.00000  Uiso   1.00
H27    H     0.81912   0.03982   0.86252   0.00000  Uiso   1.00
H28    H     0.35485   0.96005   0.32946   0.00000  Uiso   1.00
H29    H     0.32355   0.03777   0.63962   0.00000  Uiso   1.00
H30    H     0.65520   0.96176   0.34203   0.00000  Uiso   1.00
H31    H     0.32205   0.03983   0.36022   0.00000  Uiso   1.00
H32    H     0.85265   0.96053   0.83321   0.00000  Uiso   1.00
H33    H     0.69518   0.03719   0.37131   0.00000  Uiso   1.00
H34    H     0.65251   0.53890   0.16083   0.00000  Uiso   1.00
H35    H     0.35621   0.95971   0.67171   0.00000  Uiso   1.00
H36    H     0.96037   0.73193   0.38195   0.00000  Uiso   1.00
H37    H     0.04033   0.33314   0.64726   0.00000  Uiso   1.00
H38    H     0.94940   0.81411   0.86016   0.00000  Uiso   1.00
H39    H     0.09088   0.32950   0.31198   0.00000  Uiso   1.00
H40    H     0.95887   0.29459   0.62484   0.00000  Uiso   1.00
H41    H     0.04954   0.69068   0.36373   0.00000  Uiso   1.00
H42    H     0.95457   0.37809   0.27574   0.00000  Uiso   1.00
H43    H     0.03865   0.77335   0.88087   0.00000  Uiso   1.00
H44    H     0.03706   0.14067   0.17328   0.00000  Uiso   1.00
H45    H     0.83876   0.46195   0.65131   0.00000  Uiso   1.00
H46    H     0.95428   0.68362   0.63899   0.00000  Uiso   1.00
H47    H     0.09314   0.18304   0.82363   0.00000  Uiso   1.00
H48    H     0.95310   0.76114   0.11956   0.00000  Uiso   1.00
H49    H     0.03967   0.72707   0.61905   0.00000  Uiso   1.00
H50    H     0.96044   0.12039   0.21901   0.00000  Uiso   1.00
H51    H     0.09112   0.79893   0.16097   0.00000  Uiso   1.00
H52    H     0.95214   0.21802   0.87553   0.00000  Uiso   1.00
H53    H     0.66250   0.65149   0.03940   0.00000  Uiso   1.00
H54    H     0.37066   0.30344   0.95964   0.00000  Uiso   1.00
H55    H     0.84463   0.15752   0.03853   0.00000  Uiso   1.00
H56    H     0.32248   0.53934   0.13941   0.00000  Uiso   1.00
H57    H     0.14791   0.83424   0.96079   0.00000  Uiso   1.00
H58    H     0.34609   0.33967   0.04019   0.00000  Uiso   1.00
H59    H     0.63169   0.68896   0.96365   0.00000  Uiso   1.00
H60    H     0.18274   0.86453   0.03866   0.00000  Uiso   1.00
H61    H     0.86949   0.19434   0.95876   0.00000  Uiso   1.00
H62    H     0.31861   0.63743   0.95881   0.00000  Uiso   1.00
H63    H     0.62878   0.30349   0.03880   0.00000  Uiso   1.00
H64    H     0.15348   0.15889   0.96466   0.00000  Uiso   1.00
H65    H     0.86613   0.81038   0.04180   0.00000  Uiso   1.00
H66    H     0.65593   0.34315   0.96177   0.00000  Uiso   1.00
H67    H     0.69156   0.46291   0.13074   0.00000  Uiso   1.00
H68    H     0.35139   0.66504   0.03905   0.00000  Uiso   1.00
H69    H     0.83988   0.84817   0.96481   0.00000  Uiso   1.00
H70    H     0.12667   0.20271   0.03809   0.00000  Uiso   1.00
H71    H     0.69995   0.46101   0.87247   0.00000  Uiso   1.00
H72    H     0.14532   0.53988   0.33051   0.00000  Uiso   1.00
H73    H     0.84676   0.46020   0.33968   0.00000  Uiso   1.00
H74    H     0.16899   0.53995   0.64585   0.00000  Uiso   1.00
H75    H     0.17768   0.46077   0.36067   0.00000  Uiso   1.00
H76    H     0.66158   0.54095   0.84675   0.00000  Uiso   1.00
H77    H     0.13694   0.46309   0.68039   0.00000  Uiso   1.00
H78    H     0.36100   0.54083   0.82045   0.00000  Uiso   1.00
H79    H     0.81397   0.54171   0.36501   0.00000  Uiso   1.00
H80    H     0.46278   0.37293   0.19778   0.00000  Uiso   1.00
H81    H     0.53613   0.63987   0.82598   0.00000  Uiso   1.00
H82    H     0.40942   0.66994   0.18846   0.00000  Uiso   1.00
H83    H     0.54566   0.37970   0.76635   0.00000  Uiso   1.00
H84    H     0.45984   0.62044   0.77981   0.00000  Uiso   1.00
H85    H     0.54147   0.34482   0.15927   0.00000  Uiso   1.00
H86    H     0.40973   0.33524   0.80542   0.00000  Uiso   1.00
H87    H     0.54497   0.62139   0.22611   0.00000  Uiso   1.00
H88    H     0.13630   0.68467   0.54202   0.00000  Uiso   1.00
H89    H     0.45455   0.87837   0.72606   0.00000  Uiso   1.00
H90    H     0.64508   0.16910   0.46225   0.00000  Uiso   1.00
H91    H     0.81978   0.63705   0.53828   0.00000  Uiso   1.00
H92    H     0.16402   0.35022   0.46152   0.00000  Uiso   1.00
H93    H     0.62266   0.21266   0.53941   0.00000  Uiso   1.00
H94    H     0.16311   0.64936   0.46365   0.00000  Uiso   1.00
H95    H     0.20396   0.37326   0.54143   0.00000  Uiso   1.00
H96    H     0.85403   0.66845   0.46049   0.00000  Uiso   1.00
O1     O     0.25000   0.25000   0.25000   0.00000  Uiso   1.00
O2     O     0.63420   0.71971   0.71971   0.00000  Uiso   1.00
O3     O     0.21971   0.36580   0.21971   0.00000  Uiso   1.00
O4     O     0.21971   0.63420   0.21971   0.00000  Uiso   1.00
O5     O     0.78029   0.36580   0.78029   0.00000  Uiso   1.00
O6     O     0.21971   0.36580   0.78029   0.00000  Uiso   1.00
O7     O     0.78029   0.63420   0.21971   0.00000  Uiso   1.00
O8     O     0.30428   0.40344   0.15860   0.00000  Uiso   1.00
O9     O     0.82460   0.59630   0.67520   0.00000  Uiso   1.00
O10    O     0.33565   0.40151   0.80987   0.00000  Uiso   1.00
O11    O     0.70152   0.59711   0.15529   0.00000  Uiso   1.00
O12    O     0.78960   0.40372   0.65025   0.00000  Uiso   1.00
O13    O     0.28029   0.28029   0.63420   0.00000  Uiso   1.00
O14    O     0.33616   0.59612   0.18872   0.00000  Uiso   1.00
O15    O     0.67865   0.40149   0.17401   0.00000  Uiso   1.00
O16    O     0.31032   0.59570   0.83747   0.00000  Uiso   1.00
O17    O     0.40861   0.83454   0.68373   0.00000  Uiso   1.00
O18    O     0.59449   0.14943   0.28752   0.00000  Uiso   1.00
O19    O     0.41572   0.13483   0.75139   0.00000  Uiso   1.00
O20    O     0.59706   0.83855   0.30879   0.00000  Uiso   1.00
O21    O     0.40612   0.17895   0.32922   0.00000  Uiso   1.00
O22    O     0.54674   0.88207   0.72198   0.00000  Uiso   1.00
O23    O     0.40402   0.85516   0.27754   0.00000  Uiso   1.00
O24    O     0.71971   0.71971   0.36580   0.00000  Uiso   1.00
O25    O     0.59661   0.15885   0.69498   0.00000  Uiso   1.00
O26    O     0.85621   0.33355   0.54194   0.00000  Uiso   1.00
O27    O     0.32779   0.81781   0.39958   0.00000  Uiso   1.00
O28    O     0.28407   0.14716   0.59435   0.00000  Uiso   1.00
O29    O     0.66206   0.80988   0.40453   0.00000  Uiso   1.00
O30    O     0.34413   0.79979   0.59606   0.00000  Uiso   1.00
O31    O     0.83434   0.31273   0.40366   0.00000  Uiso   1.00
O32    O     0.69638   0.84166   0.59636   0.00000  Uiso   1.00
O33    O     0.31927   0.17081   0.40230   0.00000  Uiso   1.00
O34    O     0.83156   0.90455   0.18218   0.00000  Uiso   1.00
O35    O     0.63420   0.28029   0.71971   0.00000  Uiso   1.00
O36    O     0.19393   0.09690   0.83984   0.00000  Uiso   1.00
O37    O     0.16359   0.90315   0.18889   0.00000  Uiso   1.00
O38    O     0.69827   0.09572   0.65684   0.00000  Uiso   1.00
O39    O     0.16095   0.90459   0.80814   0.00000  Uiso   1.00
O40    O     0.79334   0.09571   0.15238   0.00000  Uiso   1.00
O41    O     0.66434   0.90394   0.68802   0.00000  Uiso   1.00
O42    O     0.19551   0.09577   0.15835   0.00000  Uiso   1.00
O43    O     0.83440   0.09629   0.81336   0.00000  Uiso   1.00
O44    O     0.30381   0.90462   0.34166   0.00000  Uiso   1.00
O45    O     0.33353   0.09746   0.68615   0.00000  Uiso   1.00
O46    O     0.36580   0.71971   0.28029   0.00000  Uiso   1.00
O47    O     0.70501   0.90388   0.34689   0.00000  Uiso   1.00
O48    O     0.33616   0.09618   0.31059   0.00000  Uiso   1.00
O49    O     0.80282   0.90347   0.84213   0.00000  Uiso   1.00
O50    O     0.68299   0.09987   0.32965   0.00000  Uiso   1.00
O51    O     0.30627   0.90317   0.66005   0.00000  Uiso   1.00
O52    O     0.90457   0.69767   0.34274   0.00000  Uiso   1.00
O53    O     0.09218   0.27687   0.64361   0.00000  Uiso   1.00
O54    O     0.91909   0.74377   0.86609   0.00000  Uiso   1.00
O55    O     0.04678   0.38198   0.27775   0.00000  Uiso   1.00
O56    O     0.90375   0.32111   0.67087   0.00000  Uiso   1.00
O57    O     0.71971   0.28029   0.36580   0.00000  Uiso   1.00
O58    O     0.08096   0.76070   0.36646   0.00000  Uiso   1.00
O59    O     0.90839   0.33366   0.31711   0.00000  Uiso   1.00
O60    O     0.09560   0.80461   0.84086   0.00000  Uiso   1.00
O61    O     0.09621   0.14541   0.22115   0.00000  Uiso   1.00
O62    O     0.91477   0.74943   0.63556   0.00000  Uiso   1.00
O63    O     0.04413   0.20408   0.87845   0.00000  Uiso   1.00
O64    O     0.90994   0.80983   0.15990   0.00000  Uiso   1.00
O65    O     0.09591   0.69461   0.65942   0.00000  Uiso   1.00
O66    O     0.90283   0.16190   0.19058   0.00000  Uiso   1.00
O67    O     0.04573   0.75866   0.11442   0.00000  Uiso   1.00
O68    O     0.28029   0.71971   0.63420   0.00000  Uiso   1.00
O69    O     0.91064   0.17454   0.82821   0.00000  Uiso   1.00
O70    O     0.65447   0.70242   0.09596   0.00000  Uiso   1.00
O71    O     0.32399   0.32470   0.90297   0.00000  Uiso   1.00
O72    O     0.84879   0.20844   0.09538   0.00000  Uiso   1.00
O73    O     0.19795   0.84301   0.90373   0.00000  Uiso   1.00
O74    O     0.35236   0.28511   0.09345   0.00000  Uiso   1.00
O75    O     0.67269   0.68080   0.90001   0.00000  Uiso   1.00
O76    O     0.17019   0.81834   0.09811   0.00000  Uiso   1.00
O77    O     0.82143   0.17208   0.90365   0.00000  Uiso   1.00
O78    O     0.33640   0.68817   0.90443   0.00000  Uiso   1.00
O79    O     0.36580   0.71971   0.71971   0.00000  Uiso   1.00
O80    O     0.67309   0.32105   0.09837   0.00000  Uiso   1.00
O81    O     0.15761   0.20097   0.90129   0.00000  Uiso   1.00
O82    O     0.81633   0.83251   0.09561   0.00000  Uiso   1.00
O83    O     0.65219   0.29332   0.90392   0.00000  Uiso   1.00
O84    O     0.30124   0.65683   0.09604   0.00000  Uiso   1.00
O85    O     0.83619   0.80782   0.90042   0.00000  Uiso   1.00
O86    O     0.16901   0.18450   0.09893   0.00000  Uiso   1.00
O87    O     0.68090   0.40188   0.82814   0.00000  Uiso   1.00
O88    O     0.19521   0.59668   0.34081   0.00000  Uiso   1.00
O89    O     0.79485   0.40479   0.34704   0.00000  Uiso   1.00
O90    O     0.63420   0.28029   0.28029   0.00000  Uiso   1.00
O91    O     0.15844   0.59675   0.69605   0.00000  Uiso   1.00
O92    O     0.16440   0.40355   0.31179   0.00000  Uiso   1.00
O93    O     0.71754   0.59248   0.85402   0.00000  Uiso   1.00
O94    O     0.18123   0.40156   0.67156   0.00000  Uiso   1.00
O95    O     0.83497   0.59477   0.31404   0.00000  Uiso   1.00
O96    O     0.40113   0.33077   0.18319   0.00000  Uiso   1.00
O97    O     0.59709   0.64656   0.78079   0.00000  Uiso   1.00
O98    O     0.45279   0.61776   0.22408   0.00000  Uiso   1.00
O99    O     0.58988   0.33779   0.81261   0.00000  Uiso   1.00
O100   O     0.40334   0.66230   0.81008   0.00000  Uiso   1.00
O101   O     0.28029   0.71971   0.36580   0.00000  Uiso   1.00
O102   O     0.59270   0.35296   0.21554   0.00000  Uiso   1.00
O103   O     0.45269   0.38421   0.76518   0.00000  Uiso   1.00
O104   O     0.59191   0.66499   0.18473   0.00000  Uiso   1.00
O105   O     0.18733   0.66399   0.59522   0.00000  Uiso   1.00
O106   O     0.64675   0.21848   0.40405   0.00000  Uiso   1.00
O107   O     0.83117   0.68326   0.59797   0.00000  Uiso   1.00
O108   O     0.21566   0.35231   0.40529   0.00000  Uiso   1.00
O109   O     0.66517   0.18751   0.59771   0.00000  Uiso   1.00
O110   O     0.16263   0.69291   0.40119   0.00000  Uiso   1.00
O111   O     0.17703   0.32639   0.59551   0.00000  Uiso   1.00
O112   O     0.75000   0.75000   0.75000   0.00000  Uiso   1.00
O113   O     0.71971   0.28029   0.63420   0.00000  Uiso   1.00
O114   O     0.80396   0.65835   0.40369   0.00000  Uiso   1.00
O115   O     0.63420   0.71971   0.28029   0.00000  Uiso   1.00
O116   O     0.36580   0.28029   0.71971   0.00000  Uiso   1.00
O117   O     0.71971   0.71971   0.63420   0.00000  Uiso   1.00
O118   O     0.28029   0.28029   0.36580   0.00000  Uiso   1.00
O119   O     0.28029   0.36580   0.71971   0.00000  Uiso   1.00
O120   O     0.71971   0.63420   0.28029   0.00000  Uiso   1.00
O121   O     0.28029   0.63420   0.28029   0.00000  Uiso   1.00
O122   O     0.71971   0.36580   0.71971   0.00000  Uiso   1.00
O123   O     0.71971   0.63420   0.71971   0.00000  Uiso   1.00
O124   O     0.25000   0.25000   0.75000   0.00000  Uiso   1.00
O125   O     0.28029   0.36580   0.28029   0.00000  Uiso   1.00
O126   O     0.71971   0.36580   0.28029   0.00000  Uiso   1.00
O127   O     0.28029   0.63420   0.71971   0.00000  Uiso   1.00
O128   O     0.86580   0.78029   0.28029   0.00000  Uiso   1.00
O129   O     0.13420   0.21971   0.71971   0.00000  Uiso   1.00
O130   O     0.28029   0.78029   0.13420   0.00000  Uiso   1.00
O131   O     0.71971   0.21971   0.86580   0.00000  Uiso   1.00
O132   O     0.13420   0.78029   0.71971   0.00000  Uiso   1.00
O133   O     0.86580   0.21971   0.28029   0.00000  Uiso   1.00
O134   O     0.71971   0.78029   0.86580   0.00000  Uiso   1.00
O135   O     0.75000   0.75000   0.25000   0.00000  Uiso   1.00
O136   O     0.28029   0.21971   0.13420   0.00000  Uiso   1.00
O137   O     0.86580   0.21971   0.71971   0.00000  Uiso   1.00
O138   O     0.13420   0.78029   0.28029   0.00000  Uiso   1.00
O139   O     0.28029   0.21971   0.86580   0.00000  Uiso   1.00
O140   O     0.71971   0.78029   0.13420   0.00000  Uiso   1.00
O141   O     0.13420   0.21971   0.28029   0.00000  Uiso   1.00
O142   O     0.86580   0.78029   0.71971   0.00000  Uiso   1.00
O143   O     0.71971   0.21971   0.13420   0.00000  Uiso   1.00
O144   O     0.28029   0.78029   0.86580   0.00000  Uiso   1.00
O145   O     0.78029   0.71971   0.13420   0.00000  Uiso   1.00
O146   O     0.75000   0.25000   0.75000   0.00000  Uiso   1.00
O147   O     0.21971   0.28029   0.86580   0.00000  Uiso   1.00
O148   O     0.78029   0.86580   0.71971   0.00000  Uiso   1.00
O149   O     0.21971   0.13420   0.28029   0.00000  Uiso   1.00
O150   O     0.78029   0.28029   0.86580   0.00000  Uiso   1.00
O151   O     0.21971   0.71971   0.13420   0.00000  Uiso   1.00
O152   O     0.78029   0.13420   0.28029   0.00000  Uiso   1.00
O153   O     0.21971   0.86580   0.71971   0.00000  Uiso   1.00
O154   O     0.21971   0.28029   0.13420   0.00000  Uiso   1.00
O155   O     0.78029   0.71971   0.86580   0.00000  Uiso   1.00
O156   O     0.21971   0.13420   0.71971   0.00000  Uiso   1.00
O157   O     0.25000   0.75000   0.25000   0.00000  Uiso   1.00
O158   O     0.78029   0.86580   0.28029   0.00000  Uiso   1.00
O159   O     0.21971   0.71971   0.86580   0.00000  Uiso   1.00
O160   O     0.78029   0.28029   0.13420   0.00000  Uiso   1.00
O161   O     0.21971   0.86580   0.28029   0.00000  Uiso   1.00
O162   O     0.78029   0.13420   0.71971   0.00000  Uiso   1.00
O163   O     0.71971   0.86580   0.21971   0.00000  Uiso   1.00
O164   O     0.28029   0.13420   0.78029   0.00000  Uiso   1.00
O165   O     0.86580   0.28029   0.21971   0.00000  Uiso   1.00
O166   O     0.13420   0.71971   0.78029   0.00000  Uiso   1.00
O167   O     0.28029   0.13420   0.21971   0.00000  Uiso   1.00
O168   O     0.75000   0.25000   0.25000   0.00000  Uiso   1.00
O169   O     0.71971   0.86580   0.78029   0.00000  Uiso   1.00
O170   O     0.13420   0.71971   0.21971   0.00000  Uiso   1.00
O171   O     0.86580   0.28029   0.78029   0.00000  Uiso   1.00
O172   O     0.28029   0.86580   0.78029   0.00000  Uiso   1.00
O173   O     0.71971   0.13420   0.21971   0.00000  Uiso   1.00
O174   O     0.13420   0.28029   0.78029   0.00000  Uiso   1.00
O175   O     0.86580   0.71971   0.21971   0.00000  Uiso   1.00
O176   O     0.71971   0.13420   0.78029   0.00000  Uiso   1.00
O177   O     0.28029   0.86580   0.21971   0.00000  Uiso   1.00
O178   O     0.86580   0.71971   0.78029   0.00000  Uiso   1.00
O179   O     0.25000   0.75000   0.75000   0.00000  Uiso   1.00
O180   O     0.13420   0.28029   0.21971   0.00000  Uiso   1.00
O181   O     0.36580   0.78029   0.78029   0.00000  Uiso   1.00
O182   O     0.63420   0.21971   0.21971   0.00000  Uiso   1.00
O183   O     0.78029   0.78029   0.63420   0.00000  Uiso   1.00
O184   O     0.21971   0.21971   0.36580   0.00000  Uiso   1.00
O185   O     0.63420   0.78029   0.21971   0.00000  Uiso   1.00
O186   O     0.36580   0.21971   0.78029   0.00000  Uiso   1.00
O187   O     0.21971   0.78029   0.36580   0.00000  Uiso   1.00
O188   O     0.78029   0.21971   0.63420   0.00000  Uiso   1.00
O189   O     0.36580   0.21971   0.21971   0.00000  Uiso   1.00
O190   O     0.36580   0.28029   0.28029   0.00000  Uiso   1.00
O191   O     0.63420   0.78029   0.78029   0.00000  Uiso   1.00
O192   O     0.78029   0.21971   0.36580   0.00000  Uiso   1.00
O193   O     0.21971   0.78029   0.63420   0.00000  Uiso   1.00
O194   O     0.63420   0.21971   0.78029   0.00000  Uiso   1.00
O195   O     0.36580   0.78029   0.21971   0.00000  Uiso   1.00
O196   O     0.21971   0.21971   0.63420   0.00000  Uiso   1.00
O197   O     0.78029   0.78029   0.36580   0.00000  Uiso   1.00
O198   O     0.78029   0.36580   0.21971   0.00000  Uiso   1.00
O199   O     0.21971   0.63420   0.78029   0.00000  Uiso   1.00
O200   O     0.78029   0.63420   0.78029   0.00000  Uiso   1.00
Zn1    Zn    0.20660   0.29340   0.20660   0.00000  Uiso   1.00
Zn2    Zn    0.70660   0.20660   0.20660   0.00000  Uiso   1.00
Zn3    Zn    0.29340   0.20660   0.79340   0.00000  Uiso   1.00
Zn4    Zn    0.70660   0.79340   0.20660   0.00000  Uiso   1.00
Zn5    Zn    0.29340   0.20660   0.20660   0.00000  Uiso   1.00
Zn6    Zn    0.70660   0.79340   0.79340   0.00000  Uiso   1.00
Zn7    Zn    0.29340   0.79340   0.20660   0.00000  Uiso   1.00
Zn8    Zn    0.70660   0.20660   0.79340   0.00000  Uiso   1.00
Zn9    Zn    0.79340   0.20660   0.70660   0.00000  Uiso   1.00
Zn10   Zn    0.20660   0.79340   0.29340   0.00000  Uiso   1.00
Zn11   Zn    0.20660   0.20660   0.70660   0.00000  Uiso   1.00
Zn12   Zn    0.79340   0.70660   0.79340   0.00000  Uiso   1.00
Zn13   Zn    0.79340   0.79340   0.29340   0.00000  Uiso   1.00
Zn14   Zn    0.20660   0.79340   0.70660   0.00000  Uiso   1.00
Zn15   Zn    0.79340   0.20660   0.29340   0.00000  Uiso   1.00
Zn16   Zn    0.79340   0.79340   0.70660   0.00000  Uiso   1.00
Zn17   Zn    0.20660   0.20660   0.29340   0.00000  Uiso   1.00
Zn18   Zn    0.70660   0.29340   0.70660   0.00000  Uiso   1.00
Zn19   Zn    0.29340   0.70660   0.29340   0.00000  Uiso   1.00
Zn20   Zn    0.70660   0.29340   0.29340   0.00000  Uiso   1.00
Zn21   Zn    0.29340   0.70660   0.70660   0.00000  Uiso   1.00
Zn22   Zn    0.29340   0.29340   0.29340   0.00000  Uiso   1.00
Zn23   Zn    0.20660   0.29340   0.79340   0.00000  Uiso   1.00
Zn24   Zn    0.70660   0.70660   0.70660   0.00000  Uiso   1.00
Zn25   Zn    0.29340   0.29340   0.70660   0.00000  Uiso   1.00
Zn26   Zn    0.70660   0.70660   0.29340   0.00000  Uiso   1.00
Zn27   Zn    0.79340   0.70660   0.20660   0.00000  Uiso   1.00
Zn28   Zn    0.79340   0.29340   0.79340   0.00000  Uiso   1.00
Zn29   Zn    0.20660   0.70660   0.20660   0.00000  Uiso   1.00
Zn30   Zn    0.79340   0.29340   0.20660   0.00000  Uiso   1.00
Zn31   Zn    0.20660   0.70660   0.79340   0.00000  Uiso   1.00
Zn32   Zn    0.29340   0.79340   0.79340   0.00000  Uiso   1.00
loop_
_geom_bond_atom_site_label_1
_geom_bond_atom_site_label_2
_geom_bond_distance
_geom_bond_site_symmetry_2
_ccdc_geom_bond_type
C1     C62     1.455   .     S
C1     O190    1.272   .     A
C1     O189    1.275   .     A
C2     C65     1.458   .     S
C2     O182    1.275   .     A
C2     O90     1.275   .     A
C3     C162    1.490   .     S
C3     C93     1.415   .     A
C3     C6      1.409   1_655 S
C4     C89     1.415   .     A
C4     C163    1.495   .     S
C4     C287    1.406   1_455 S
C5     C91     1.415   .     A
C5     C164    1.496   .     S
C5     C286    1.409   1_655 S
C6     C165    1.491   .     S
C6     C87     1.413   .     A
C6     C3      1.409   1_455 S
C7     C88     1.413   .     A
C7     C166    1.487   .     S
C7     C288    1.410   1_655 S
C8     C167    1.494   .     S
C8     C102    1.414   .     A
C8     C14     1.409   1_554 S
C9     C169    1.496   .     S
C9     C100    1.414   .     A
C9     C12     1.407   1_556 S
C10    C170    1.495   .     S
C10    C104    1.416   .     A
C10    C16     1.408   1_554 S
C11    C171    1.495   .     S
C11    C103    1.415   .     A
C11    C15     1.409   1_556 S
C12    C172    1.493   .     S
C12    C97     1.415   .     A
C12    C9      1.407   1_554 S
C13    O101    1.273   .     A
C13    O187    1.274   .     A
C13    C74     1.454   .     S
C14    C173    1.500   .     S
C14    C96     1.418   .     A
C14    C8      1.409   1_556 S
C15    C174    1.496   .     S
C15    C99     1.416   .     A
C15    C11     1.409   1_554 S
C16    C175    1.494   .     S
C16    C98     1.414   .     A
C16    C10     1.408   1_556 S
C17    C176    1.493   .     S
C17    C103    1.414   .     A
C17    C22     1.408   1_556 S
C18    C177    1.496   .     S
C18    C104    1.416   .     A
C18    C21     1.409   1_554 S
C19    C100    1.417   .     A
C19    C178    1.497   .     S
C19    C25     1.409   1_556 S
C20    C180    1.492   .     S
C20    C102    1.413   .     A
C20    C23     1.409   1_554 S
C21    C98     1.415   .     A
C21    C181    1.496   .     S
C21    C18     1.409   1_556 S
C22    C182    1.495   .     S
C22    C99     1.416   .     A
C22    C17     1.408   1_554 S
C23    C183    1.500   .     S
C23    C96     1.418   .     A
C23    C20     1.409   1_556 S
C24    O113    1.275   .     A
C24    O188    1.272   .     A
C24    C75     1.455   .     S
C25    C97     1.415   .     A
C25    C184    1.497   .     S
C25    C19     1.409   1_554 S
C26    C185    1.497   .     S
C26    C31     1.407   .     A
C26    C53     1.415   .     A
C27    C186    1.495   .     S
C27    C30     1.408   .     A
C27    C52     1.415   .     A
C28    C187    1.494   .     S
C28    C33     1.407   .     A
C28    C55     1.416   .     A
C29    C32     1.409   .     A
C29    C54     1.413   .     A
C29    C188    1.495   .     S
C30    C189    1.494   .     S
C30    C58     1.415   .     A
C31    C56     1.414   .     A
C31    C191    1.491   .     S
C32    C60     1.417   .     A
C32    C192    1.496   .     S
C33    C59     1.413   .     A
C33    C193    1.493   .     S
C34    C194    1.498   .     S
C34    C62     1.415   .     A
C34    C40     1.409   .     A
C35    C67     1.457   .     S
C35    O115    1.273   .     A
C35    O185    1.276   .     A
C36    C39     1.409   .     A
C36    C61     1.418   .     A
C36    C195    1.498   .     S
C37    C42     1.409   .     A
C37    C64     1.413   .     A
C37    C196    1.491   .     S
C38    C41     1.408   .     A
C38    C63     1.414   .     A
C38    C197    1.489   .     S
C39    C198    1.494   .     S
C39    C66     1.415   .     A
C40    C65     1.415   .     A
C40    C199    1.489   .     S
C41    C200    1.489   .     S
C41    C69     1.412   .     A
C42    C67     1.414   .     A
C42    C202    1.492   .     S
C43    C71     1.412   .     A
C43    C49     1.409   .     A
C43    C203    1.493   .     S
C44    C70     1.417   .     A
C44    C48     1.409   .     A
C44    C204    1.497   .     S
C45    C205    1.496   .     S
C45    C51     1.409   .     A
C45    C73     1.416   .     A
C46    O186    1.272   .     A
C46    O116    1.279   .     A
C46    C69     1.461   .     S
C47    C206    1.495   .     S
C47    C50     1.406   .     A
C47    C72     1.415   .     A
C48    C207    1.495   .     S
C48    C75     1.415   .     A
C49    C208    1.499   .     S
C49    C74     1.418   .     A
C50    C77     1.414   .     A
C50    C209    1.491   .     S
C51    C76     1.415   .     A
C51    C210    1.494   .     S
C52    C239    1.415   .     A
C52    C101    1.455   .     S
C53    C113    1.453   .     S
C53    C238    1.417   .     A
C54    C241    1.413   .     A
C54    C157    1.453   .     S
C55    C240    1.417   .     A
C55    C146    1.456   .     S
C56    C235    1.414   .     A
C56    C124    1.456   .     S
C57    C73     1.455   .     S
C57    O183    1.274   .     A
C57    O117    1.277   .     A
C58    C233    1.414   .     A
C58    C135    1.454   .     S
C59    C237    1.414   .     A
C59    C90     1.453   .     S
C60    C79     1.455   .     S
C60    C236    1.417   .     A
C61    C112    1.458   .     S
C61    C248    1.413   .     A
C62    C247    1.413   .     A
C63    C250    1.414   .     A
C63    C234    1.455   .     S
C64    C249    1.417   .     A
C64    C245    1.459   .     S
C65    C243    1.414   .     A
C66    C242    1.414   .     A
C66    C278    1.457   .     S
C67    C246    1.415   .     A
C68    O184    1.278   .     A
C68    O118    1.273   .     A
C68    C72     1.454   .     S
C69    C244    1.414   .     A
C70    C256    1.454   .     S
C70    C257    1.415   .     A
C71    C255    1.413   .     A
C71    C267    1.455   .     S
C72    C259    1.415   .     A
C73    C258    1.416   .     A
C74    C252    1.419   .     A
C75    C251    1.412   .     A
C76    C254    1.414   .     A
C76    C223    1.456   .     S
C77    C253    1.415   .     A
C77    C212    1.457   .     S
C78    C227    1.454   .     S
C78    C265    1.416   .     A
C78    C275    1.417   .     A
C79    O6      1.275   .     A
C79    O119    1.274   .     A
C80    C276    1.414   .     A
C80    C264    1.414   .     A
C80    C228    1.454   .     S
C81    C226    1.455   .     S
C81    C268    1.415   .     A
C81    C273    1.414   .     A
C82    C274    1.415   .     A
C82    C266    1.415   .     A
C82    C225    1.454   .     S
C83    C261    1.416   .     A
C83    C229    1.455   .     S
C83    C271    1.416   .     A
C84    C230    1.455   .     S
C84    C272    1.415   .     A
C84    C260    1.413   .     A
C85    C263    1.414   .     A
C85    C269    1.415   .     A
C85    C232    1.455   .     S
C86    C231    1.454   .     S
C86    C262    1.414   .     A
C86    C270    1.414   .     A
C87    C283    1.414   .     A
C87    C217    1.461   .     S
C88    C282    1.412   .     A
C88    C216    1.456   .     S
C89    C285    1.415   .     A
C89    C211    1.453   .     S
C90    O7      1.271   .     A
C90    O120    1.277   .     A
C91    C213    1.457   .     S
C91    C284    1.414   .     A
C92    C288    1.413   .     A
C92    C179    1.460   .     S
C92    C279    1.416   .     A
C93    C277    1.413   .     A
C93    C168    1.455   .     S
C94    C286    1.417   .     A
C94    C281    1.413   .     A
C94    C220    1.459   .     S
C95    C280    1.413   .     A
C95    C287    1.414   .     A
C95    C221    1.461   .     S
C96    C214    1.453   .     S
C97    C215    1.455   .     S
C98    C201    1.455   .     S
C99    C190    1.455   .     S
C100   C218    1.454   .     S
C101   O4      1.277   .     A
C101   O121    1.273   .     A
C102   C219    1.455   .     S
C103   C224    1.455   .     S
C104   C222    1.455   .     S
C105   H1      1.085   .     S
C105   O8      1.221   .     D
C105   C233    1.495   .     S
C106   C235    1.494   .     S
C106   O9      1.221   .     D
C106   H12     1.085   .     S
C107   H23     1.085   .     S
C107   C236    1.497   .     S
C107   O10     1.219   .     D
C108   O11     1.221   .     D
C108   C237    1.496   .     S
C108   H34     1.085   .     S
C109   C238    1.497   .     S
C109   O12     1.220   .     D
C109   H45     1.085   .     S
C110   H56     1.085   .     S
C110   O14     1.220   .     D
C110   C239    1.493   .     S
C111   H67     1.085   .     S
C111   C240    1.495   .     S
C111   O15     1.219   .     D
C112   O2      1.273   .     A
C112   O191    1.276   .     A
C113   O122    1.272   .     A
C113   O5      1.277   .     A
C114   O16     1.220   .     D
C114   H78     1.085   .     S
C114   C241    1.493   .     S
C115   O17     1.221   .     D
C115   C242    1.491   .     S
C115   H89     1.083   .     S
C116   O18     1.219   .     D
C116   H2      1.085   .     S
C116   C243    1.492   .     S
C117   O19     1.220   .     D
C117   H3      1.085   .     S
C117   C244    1.486   .     S
C118   O20     1.221   .     D
C118   C246    1.495   .     S
C118   H4      1.085   .     S
C119   C247    1.490   .     S
C119   O21     1.220   .     D
C119   H5      1.085   .     S
C120   H6      1.085   .     S
C120   O22     1.220   .     D
C120   C248    1.492   .     S
C121   H7      1.085   .     S
C121   C249    1.497   .     S
C121   O23     1.220   .     D
C122   O25     1.221   .     D
C122   H8      1.085   .     S
C122   C250    1.496   .     S
C123   O26     1.221   .     D
C123   H9      1.083   .     S
C123   C251    1.494   .     S
C124   O200    1.272   .     A
C124   O123    1.278   .     A
C125   H10     1.084   .     S
C125   O27     1.219   .     D
C125   C252    1.500   .     S
C126   H11     1.085   .     S
C126   O28     1.220   .     D
C126   C253    1.494   .     S
C127   C254    1.493   .     S
C127   O29     1.221   .     D
C127   H13     1.085   .     S
C128   C255    1.494   .     S
C128   O30     1.220   .     D
C128   H14     1.085   .     S
C129   O31     1.220   .     D
C129   C257    1.493   .     S
C129   H15     1.085   .     S
C130   C258    1.495   .     S
C130   H16     1.085   .     S
C130   O32     1.220   .     D
C131   H17     1.085   .     S
C131   C259    1.495   .     S
C131   O33     1.220   .     D
C132   C260    1.493   .     S
C132   H18     1.085   .     S
C132   O34     1.221   .     D
C133   O36     1.221   .     D
C133   C261    1.496   .     S
C133   H19     1.085   .     S
C134   H20     1.085   .     S
C134   O37     1.221   .     D
C134   C262    1.496   .     S
C135   O3      1.272   .     A
C135   O125    1.277   .     A
C136   C263    1.494   .     S
C136   O38     1.220   .     D
C136   H21     1.085   .     S
C137   C264    1.494   .     S
C137   O39     1.221   .     D
C137   H22     1.085   .     S
C138   C265    1.497   .     S
C138   O40     1.221   .     D
C138   H24     1.085   .     S
C139   H25     1.085   .     S
C139   O41     1.220   .     D
C139   C266    1.493   .     S
C140   O42     1.220   .     D
C140   C268    1.493   .     S
C140   H26     1.085   .     S
C141   H27     1.085   .     S
C141   C269    1.493   .     S
C141   O43     1.220   .     D
C142   C270    1.492   .     S
C142   O44     1.219   .     D
C142   H28     1.085   .     S
C143   H29     1.085   .     S
C143   C271    1.496   .     S
C143   O45     1.220   .     D
C144   C272    1.495   .     S
C144   O47     1.220   .     D
C144   H30     1.085   .     S
C145   H31     1.085   .     S
C145   C273    1.493   .     S
C145   O48     1.220   .     D
C146   O198    1.276   .     A
C146   O126    1.274   .     A
C147   H32     1.085   .     S
C147   O49     1.220   .     D
C147   C274    1.495   .     S
C148   C275    1.499   .     S
C148   H33     1.085   .     S
C148   O50     1.220   .     D
C149   C276    1.495   .     S
C149   O51     1.221   .     D
C149   H35     1.085   .     S
C150   C277    1.496   .     S
C150   H36     1.085   .     S
C150   O52     1.221   .     D
C151   O53     1.219   .     D
C151   C279    1.490   .     S
C151   H37     1.085   .     S
C152   O54     1.220   .     D
C152   H38     1.085   .     S
C152   C280    1.483   .     S
C153   C281    1.491   .     S
C153   H39     1.085   .     S
C153   O55     1.220   .     D
C154   C282    1.494   .     S
C154   O56     1.221   .     D
C154   H40     1.085   .     S
C155   O58     1.220   .     D
C155   H41     1.085   .     S
C155   C283    1.484   .     S
C156   H42     1.082   .     S
C156   C284    1.492   .     S
C156   O59     1.221   .     D
C157   O127    1.276   .     A
C157   O199    1.272   .     A
C158   C285    1.496   .     S
C158   H43     1.085   .     S
C158   O60     1.221   .     D
C159   H44     1.085   .     S
C159   O61     1.220   .     D
C159   C286    1.497   .     S
C160   H46     1.085   .     S
C160   C287    1.487   .     S
C160   O62     1.220   .     D
C161   H47     1.085   .     S
C161   C288    1.493   .     S
C161   O63     1.220   .     D
C162   O64     1.221   .     D
C162   H48     1.083   .     S
C163   O65     1.220   .     D
C163   H49     1.085   .     S
C164   O66     1.221   .     D
C164   H50     1.085   .     S
C165   H51     1.084   .     S
C165   O67     1.220   .     D
C166   O69     1.220   .     D
C166   H52     1.083   .     S
C167   O70     1.220   .     D
C167   H53     1.085   .     S
C168   O128    1.275   .     A
C168   O175    1.272   .     A
C169   O71     1.221   .     D
C169   H54     1.085   .     S
C170   O72     1.220   .     D
C170   H55     1.085   .     S
C171   H57     1.085   .     S
C171   O73     1.220   .     D
C172   O74     1.220   .     D
C172   H58     1.085   .     S
C173   H59     1.084   .     S
C173   O75     1.220   .     D
C174   H60     1.085   .     S
C174   O76     1.220   .     D
C175   O77     1.221   .     D
C175   H61     1.085   .     S
C176   H62     1.085   .     S
C176   O78     1.221   .     D
C177   O80     1.220   .     D
C177   H63     1.085   .     S
C178   H64     1.085   .     S
C178   O81     1.219   .     D
C179   O129    1.272   .     A
C179   O174    1.278   .     A
C180   O82     1.220   .     D
C180   H65     1.085   .     S
C181   H66     1.085   .     S
C181   O83     1.220   .     D
C182   O84     1.220   .     D
C182   H68     1.085   .     S
C183   H69     1.084   .     S
C183   O85     1.219   .     D
C184   O86     1.220   .     D
C184   H70     1.085   .     S
C185   O87     1.220   .     D
C185   H71     1.085   .     S
C186   O88     1.220   .     D
C186   H72     1.085   .     S
C187   O89     1.220   .     D
C187   H73     1.085   .     S
C188   H74     1.085   .     S
C188   O91     1.221   .     D
C189   H75     1.085   .     S
C189   O92     1.220   .     D
C190   O130    1.277   .     A
C190   O151    1.274   .     A
C191   H76     1.085   .     S
C191   O93     1.220   .     D
C192   O94     1.219   .     D
C192   H77     1.085   .     S
C193   O95     1.221   .     D
C193   H79     1.085   .     S
C194   H80     1.085   .     S
C194   O96     1.220   .     D
C195   H81     1.085   .     S
C195   O97     1.220   .     D
C196   H82     1.085   .     S
C196   O98     1.220   .     D
C197   H83     1.083   .     S
C197   O99     1.220   .     D
C198   H84     1.085   .     S
C198   O100    1.221   .     D
C199   H85     1.085   .     S
C199   O102    1.219   .     D
C200   H86     1.084   .     S
C200   O103    1.220   .     D
C201   O131    1.273   .     A
C201   O150    1.278   .     A
C202   O104    1.221   .     D
C202   H87     1.082   .     S
C203   O105    1.221   .     D
C203   H88     1.085   .     S
C204   O106    1.220   .     D
C204   H90     1.085   .     S
C205   H91     1.085   .     S
C205   O107    1.220   .     D
C206   O108    1.220   .     D
C206   H92     1.085   .     S
C207   O109    1.220   .     D
C207   H93     1.085   .     S
C208   H94     1.084   .     S
C208   O110    1.220   .     D
C209   H95     1.085   .     S
C209   O111    1.219   .     D
C210   H96     1.085   .     S
C210   O114    1.220   .     D
C211   O166    1.274   .     A
C211   O132    1.274   .     A
C212   O13     1.279   .     A
C212   O196    1.273   .     A
C213   O165    1.273   .     A
C213   O133    1.276   .     A
C214   O155    1.274   .     A
C214   O134    1.273   .     A
C215   O154    1.275   .     A
C215   O136    1.272   .     A
C216   O171    1.271   .     A
C216   O137    1.276   .     A
C217   O170    1.278   .     A
C217   O138    1.272   .     A
C218   O147    1.272   .     A
C218   O139    1.274   .     A
C219   O140    1.272   .     A
C219   O145    1.275   .     A
C220   O180    1.277   .     A
C220   O141    1.274   .     A
C221   O142    1.276   .     A
C221   O178    1.276   .     A
C222   O160    1.274   .     A
C222   O143    1.277   .     A
C223   O197    1.278   .     A
C223   O24     1.273   .     A
C224   O144    1.273   .     A
C224   O159    1.278   .     A
C225   O169    1.272   .     A
C225   O148    1.277   .     A
C226   O149    1.277   .     A
C226   O167    1.273   .     A
C227   O152    1.276   .     A
C227   O173    1.273   .     A
C228   O172    1.277   .     A
C228   O153    1.272   .     A
C229   O164    1.273   .     A
C229   O156    1.276   .     A
C230   O163    1.277   .     A
C230   O158    1.272   .     A
C231   O161    1.272   .     A
C231   O177    1.276   .     A
C232   O176    1.276   .     A
C232   O162    1.272   .     A
C233   C239    1.408   .     A
C234   O35     1.273   .     A
C234   O194    1.275   .     A
C235   C238    1.409   .     A
C236   C241    1.408   .     A
C237   C240    1.409   .     A
C242   C248    1.409   .     A
C243   C247    1.407   .     A
C244   C250    1.406   .     A
C245   O46     1.277   .     A
C245   O195    1.274   .     A
C246   C249    1.409   .     A
C251   C257    1.408   .     A
C252   C255    1.409   .     A
C253   C259    1.408   .     A
C254   C258    1.408   .     A
C256   O192    1.275   .     A
C256   O57     1.272   .     A
C260   C265    1.408   1_565 S
C261   C264    1.409   1_545 S
C262   C268    1.409   1_565 S
C263   C266    1.408   1_545 S
C264   C261    1.409   1_565 S
C265   C260    1.408   1_545 S
C266   C263    1.408   1_565 S
C267   O68     1.271   .     A
C267   O193    1.275   .     A
C268   C262    1.409   1_545 S
C269   C274    1.408   1_545 S
C270   C273    1.406   1_565 S
C271   C276    1.409   1_545 S
C272   C275    1.409   1_565 S
C273   C270    1.406   1_545 S
C274   C269    1.408   1_565 S
C275   C272    1.409   1_545 S
C276   C271    1.409   1_565 S
C277   C283    1.404   1_655 S
C278   O181    1.273   .     A
C278   O79     1.276   .     A
C279   C282    1.407   1_455 S
C280   C285    1.405   1_655 S
C281   C284    1.409   1_455 S
C282   C279    1.407   1_655 S
C283   C277    1.404   1_455 S
C284   C281    1.409   1_655 S
C285   C280    1.405   1_455 S
C286   C5      1.409   1_455 S
C287   C4      1.406   1_655 S
C288   C7      1.410   1_455 S
O1     Zn1     1.947   .     S
O1     Zn22    1.950   .     S
O1     Zn17    1.950   .     S
O1     Zn5     1.946   .     S
O2     Zn24    1.938   .     S
O3     Zn1     1.937   .     S
O4     Zn29    1.935   .     S
O5     Zn28    1.935   .     S
O6     Zn23    1.937   .     S
O7     Zn27    1.937   .     S
O13    Zn25    1.936   .     S
O24    Zn26    1.936   .     S
O35    Zn18    1.940   .     S
O46    Zn19    1.940   .     S
O57    Zn20    1.936   .     S
O68    Zn21    1.936   .     S
O79    Zn21    1.940   .     S
O90    Zn20    1.940   .     S
O101   Zn19    1.936   .     S
O112   Zn12    1.947   .     S
O112   Zn24    1.950   .     S
O112   Zn16    1.950   .     S
O112   Zn6     1.946   .     S
O113   Zn18    1.936   .     S
O115   Zn26    1.938   .     S
O116   Zn25    1.938   .     S
O117   Zn24    1.936   .     S
O118   Zn22    1.936   .     S
O119   Zn25    1.935   .     S
O120   Zn26    1.935   .     S
O121   Zn19    1.937   .     S
O122   Zn18    1.937   .     S
O123   Zn24    1.935   .     S
O124   Zn23    1.946   .     S
O124   Zn11    1.950   .     S
O124   Zn25    1.950   .     S
O124   Zn3     1.947   .     S
O125   Zn22    1.935   .     S
O126   Zn20    1.937   .     S
O127   Zn21    1.937   .     S
O128   Zn13    1.938   .     S
O129   Zn11    1.938   .     S
O130   Zn7     1.936   .     S
O131   Zn8     1.936   .     S
O132   Zn14    1.940   .     S
O133   Zn15    1.940   .     S
O134   Zn6     1.936   .     S
O135   Zn13    1.950   .     S
O135   Zn26    1.950   .     S
O135   Zn27    1.946   .     S
O135   Zn4     1.947   .     S
O136   Zn5     1.936   .     S
O137   Zn9     1.940   .     S
O138   Zn10    1.940   .     S
O139   Zn3     1.936   .     S
O140   Zn4     1.936   .     S
O141   Zn17    1.938   .     S
O142   Zn16    1.938   .     S
O143   Zn2     1.936   .     S
O144   Zn32    1.936   .     S
O145   Zn27    1.936   .     S
O146   Zn18    1.947   .     S
O146   Zn9     1.946   .     S
O146   Zn28    1.950   .     S
O146   Zn8     1.950   .     S
O147   Zn23    1.936   .     S
O148   Zn16    1.935   .     S
O149   Zn17    1.935   .     S
O150   Zn28    1.936   .     S
O151   Zn29    1.936   .     S
O152   Zn15    1.937   .     S
O153   Zn14    1.937   .     S
O154   Zn1     1.936   .     S
O155   Zn12    1.936   .     S
O156   Zn11    1.935   .     S
O157   Zn19    1.947   .     S
O157   Zn10    1.946   .     S
O157   Zn7     1.950   .     S
O157   Zn29    1.950   .     S
O158   Zn13    1.935   .     S
O159   Zn31    1.936   .     S
O160   Zn30    1.936   .     S
O161   Zn10    1.937   .     S
O162   Zn9     1.937   .     S
O163   Zn4     1.937   .     S
O164   Zn3     1.937   .     S
O165   Zn30    1.938   .     S
O166   Zn31    1.938   .     S
O167   Zn5     1.937   .     S
O168   Zn30    1.950   .     S
O168   Zn15    1.947   .     S
O168   Zn20    1.946   .     S
O168   Zn2     1.950   .     S
O169   Zn6     1.937   .     S
O170   Zn29    1.938   .     S
O171   Zn28    1.938   .     S
O172   Zn32    1.935   .     S
O173   Zn2     1.935   .     S
O174   Zn23    1.940   .     S
O175   Zn27    1.940   .     S
O176   Zn8     1.935   .     S
O177   Zn7     1.935   .     S
O178   Zn12    1.940   .     S
O179   Zn32    1.950   .     S
O179   Zn21    1.946   .     S
O179   Zn31    1.950   .     S
O179   Zn14    1.947   .     S
O180   Zn1     1.940   .     S
O181   Zn32    1.938   .     S
O182   Zn2     1.938   .     S
O183   Zn16    1.936   .     S
O184   Zn17    1.936   .     S
O185   Zn4     1.940   .     S
O186   Zn3     1.940   .     S
O187   Zn10    1.936   .     S
O188   Zn9     1.936   .     S
O189   Zn5     1.940   .     S
O190   Zn22    1.938   .     S
O191   Zn6     1.940   .     S
O192   Zn15    1.936   .     S
O193   Zn14    1.936   .     S
O194   Zn8     1.938   .     S
O195   Zn7     1.938   .     S
O196   Zn11    1.936   .     S
O197   Zn13    1.936   .     S
O198   Zn30    1.935   .     S
O199   Zn31    1.935   .     S
O200   Zn12    1.937   .     S
