data_str_m1_o10_o18_pcu_sym.112
_audit_creation_date              2020-01-03
_audit_creation_method            'Materials Studio'
_symmetry_space_group_name_H-M    'P1'
_symmetry_Int_Tables_number       1
_symmetry_cell_setting            triclinic
loop_
_symmetry_equiv_pos_as_xyz
  x,y,z
_cell_length_a                    32.5091
_cell_length_b                    32.7320
_cell_length_c                    35.2973
_cell_angle_alpha                 98.0723
_cell_angle_beta                  73.0964
_cell_angle_gamma                 98.1437
loop_
_atom_site_label
_atom_site_type_symbol
_atom_site_fract_x
_atom_site_fract_y
_atom_site_fract_z
_atom_site_U_iso_or_equiv
_atom_site_adp_type
_atom_site_occupancy
C1     C     0.05246   0.15985   0.25899   0.00000  Uiso   1.00
C2     C     0.22558   0.15075   0.45416   0.00000  Uiso   1.00
C3     C     0.24142   0.12687   0.47544   0.00000  Uiso   1.00
C4     C     0.28107   0.17359   0.24131   0.00000  Uiso   1.00
C5     C     0.22796   0.13032   0.01712   0.00000  Uiso   1.00
C6     C     0.20173   0.16223   0.03764   0.00000  Uiso   1.00
C7     C     0.24058   0.10331   0.03901   0.00000  Uiso   1.00
C8     C     0.22597   0.10783   0.08062   0.00000  Uiso   1.00
C9     C     0.18490   0.16322   0.07919   0.00000  Uiso   1.00
C10    C     0.32696   0.17637   0.23794   0.00000  Uiso   1.00
C11    C     0.00708   0.15755   0.26259   0.00000  Uiso   1.00
C12    C     0.12301   0.23680   0.41817   0.00000  Uiso   1.00
C13    C     0.17891   0.32189   0.23925   0.00000  Uiso   1.00
C14    C     0.15040   0.01332   0.26403   0.00000  Uiso   1.00
C15    C     0.15695   0.05626   0.25825   0.00000  Uiso   1.00
C16    C     0.17648   0.27766   0.24167   0.00000  Uiso   1.00
C17    C     0.18791   0.14574   0.14380   0.00000  Uiso   1.00
C18    C     0.14581   0.18800   0.35646   0.00000  Uiso   1.00
C19    C     0.14277   0.20144   0.39884   0.00000  Uiso   1.00
C20    C     0.19820   0.13750   0.10055   0.00000  Uiso   1.00
C21    C     0.12532   0.25203   0.45648   0.00000  Uiso   1.00
C22    C     0.13395   0.28729   0.03342   0.00000  Uiso   1.00
C23    C     0.16388   0.18106   0.41883   0.00000  Uiso   1.00
C24    C     0.24665   0.14955   0.41187   0.00000  Uiso   1.00
C25    C     0.17042   0.19808   0.45589   0.00000  Uiso   1.00
C26    C     0.14913   0.23327   0.47581   0.00000  Uiso   1.00
C27    C     0.19523   0.17933   0.47466   0.00000  Uiso   1.00
C28    C     0.19061   0.19052   0.01587   0.00000  Uiso   1.00
C29    C     0.17621   0.22990   0.03309   0.00000  Uiso   1.00
C30    C     0.15333   0.24982   0.01384   0.00000  Uiso   1.00
H31    H     0.01660   0.19375   0.21524   0.00000  Uiso   1.00
H32    H     0.30180   0.01615   0.03461   0.00000  Uiso   1.00
H33    H     0.09983   0.05730   0.34217   0.00000  Uiso   1.00
H34    H     0.13526   0.27454   0.11262   0.00000  Uiso   1.00
H35    H     0.31815   0.13999   0.28550   0.00000  Uiso   1.00
H36    H     0.20531   0.00180   0.21595   0.00000  Uiso   1.00
H37    H     0.16122   0.18395   0.09542   0.00000  Uiso   1.00
H38    H     0.23649   0.08855   0.09780   0.00000  Uiso   1.00
H39    H     0.26405   0.10522   0.45875   0.00000  Uiso   1.00
H40    H     0.10915   0.27927   0.47034   0.00000  Uiso   1.00
H41    H     0.10628   0.25312   0.40350   0.00000  Uiso   1.00
H42    H     0.17436   0.15132   0.40520   0.00000  Uiso   1.00
N43    N     0.11848   0.31718   0.04901   0.00000  Uiso   1.00
N44    N     0.26369   0.14858   0.37809   0.00000  Uiso   1.00
O45    O     0.16667   0.16667   0.25000   0.00000  Uiso   1.00
O46    O     0.15693   0.12393   0.16625   0.00000  Uiso   1.00
O47    O     0.12687   0.20646   0.33749   0.00000  Uiso   1.00
O48    O     0.21088   0.17493   0.15877   0.00000  Uiso   1.00
O49    O     0.17198   0.16135   0.33749   0.00000  Uiso   1.00
O50    O     0.25371   0.03389   0.48913   0.00000  Uiso   1.00
O51    O     0.31726   0.08341   0.49147   0.00000  Uiso   1.00
O52    O     0.28418   0.03836   0.05015   0.00000  Uiso   1.00
O53    O     0.07374   0.30123   0.28935   0.00000  Uiso   1.00
O54    O     0.12037   0.31387   0.33425   0.00000  Uiso   1.00
O55    O     0.08034   0.04106   0.32724   0.00000  Uiso   1.00
O56    O     0.17849   0.08101   0.27821   0.00000  Uiso   1.00
O57    O     0.23563   0.24268   0.07537   0.00000  Uiso   1.00
O58    O     0.20953   0.30390   0.06240   0.00000  Uiso   1.00
O59    O     0.15818   0.25937   0.11566   0.00000  Uiso   1.00
O60    O     0.14581   0.26136   0.26767   0.00000  Uiso   1.00
O61    O     0.07452   0.13251   0.23607   0.00000  Uiso   1.00
O62    O     0.26785   0.19179   0.21806   0.00000  Uiso   1.00
O63    O     0.06990   0.18960   0.27820   0.00000  Uiso   1.00
O64    O     0.25440   0.15277   0.26768   0.00000  Uiso   1.00
O65    O     0.13800   0.06903   0.23607   0.00000  Uiso   1.00
O66    O     0.20437   0.25527   0.21806   0.00000  Uiso   1.00
S67    S     0.27487   0.06400   0.01587   0.00000  Uiso   1.00
S68    S     0.10549   0.33237   0.30449   0.00000  Uiso   1.00
S69    S     0.19650   0.25971   0.07176   0.00000  Uiso   1.00
Zn70   Zn    0.19244   0.14090   0.28278   0.00000  Uiso   1.00
Zn71   Zn    0.13459   0.12378   0.22258   0.00000  Uiso   1.00
Zn72   Zn    0.21166   0.19664   0.21188   0.00000  Uiso   1.00
Zn73   Zn    0.12798   0.20535   0.28277   0.00000  Uiso   1.00
C74    C     0.38579   0.15985   0.25899   0.00000  Uiso   1.00
C75    C     0.55891   0.15075   0.45416   0.00000  Uiso   1.00
C76    C     0.57475   0.12687   0.47544   0.00000  Uiso   1.00
C77    C     0.61440   0.17359   0.24131   0.00000  Uiso   1.00
C78    C     0.56129   0.13032   0.01712   0.00000  Uiso   1.00
C79    C     0.53507   0.16223   0.03764   0.00000  Uiso   1.00
C80    C     0.57391   0.10331   0.03901   0.00000  Uiso   1.00
C81    C     0.55930   0.10783   0.08062   0.00000  Uiso   1.00
C82    C     0.51823   0.16322   0.07919   0.00000  Uiso   1.00
C83    C     0.66029   0.17637   0.23794   0.00000  Uiso   1.00
C84    C     0.34041   0.15755   0.26259   0.00000  Uiso   1.00
C85    C     0.45634   0.23680   0.41817   0.00000  Uiso   1.00
C86    C     0.51225   0.32189   0.23925   0.00000  Uiso   1.00
C87    C     0.48373   0.01332   0.26403   0.00000  Uiso   1.00
C88    C     0.49028   0.05626   0.25825   0.00000  Uiso   1.00
C89    C     0.50982   0.27766   0.24167   0.00000  Uiso   1.00
C90    C     0.52124   0.14574   0.14380   0.00000  Uiso   1.00
C91    C     0.47915   0.18800   0.35646   0.00000  Uiso   1.00
C92    C     0.47610   0.20144   0.39884   0.00000  Uiso   1.00
C93    C     0.53154   0.13750   0.10055   0.00000  Uiso   1.00
C94    C     0.45865   0.25203   0.45648   0.00000  Uiso   1.00
C95    C     0.46729   0.28729   0.03342   0.00000  Uiso   1.00
C96    C     0.49721   0.18106   0.41883   0.00000  Uiso   1.00
C97    C     0.57999   0.14955   0.41187   0.00000  Uiso   1.00
C98    C     0.50375   0.19808   0.45589   0.00000  Uiso   1.00
C99    C     0.48247   0.23327   0.47581   0.00000  Uiso   1.00
C100   C     0.52857   0.17933   0.47466   0.00000  Uiso   1.00
C101   C     0.52394   0.19052   0.01587   0.00000  Uiso   1.00
C102   C     0.50954   0.22990   0.03309   0.00000  Uiso   1.00
C103   C     0.48667   0.24982   0.01384   0.00000  Uiso   1.00
H104   H     0.34993   0.19375   0.21524   0.00000  Uiso   1.00
H105   H     0.63513   0.01615   0.03461   0.00000  Uiso   1.00
H106   H     0.43316   0.05730   0.34217   0.00000  Uiso   1.00
H107   H     0.46859   0.27454   0.11262   0.00000  Uiso   1.00
H108   H     0.65148   0.13999   0.28550   0.00000  Uiso   1.00
H109   H     0.53864   0.00180   0.21595   0.00000  Uiso   1.00
H110   H     0.49455   0.18395   0.09542   0.00000  Uiso   1.00
H111   H     0.56983   0.08855   0.09780   0.00000  Uiso   1.00
H112   H     0.59738   0.10522   0.45875   0.00000  Uiso   1.00
H113   H     0.44249   0.27927   0.47034   0.00000  Uiso   1.00
H114   H     0.43961   0.25312   0.40350   0.00000  Uiso   1.00
H115   H     0.50769   0.15132   0.40520   0.00000  Uiso   1.00
N116   N     0.45182   0.31718   0.04901   0.00000  Uiso   1.00
N117   N     0.59702   0.14858   0.37809   0.00000  Uiso   1.00
O118   O     0.50000   0.16667   0.25000   0.00000  Uiso   1.00
O119   O     0.49027   0.12393   0.16625   0.00000  Uiso   1.00
O120   O     0.46020   0.20646   0.33749   0.00000  Uiso   1.00
O121   O     0.54421   0.17493   0.15877   0.00000  Uiso   1.00
O122   O     0.50532   0.16135   0.33749   0.00000  Uiso   1.00
O123   O     0.58704   0.03389   0.48913   0.00000  Uiso   1.00
O124   O     0.65060   0.08341   0.49147   0.00000  Uiso   1.00
O125   O     0.61751   0.03836   0.05015   0.00000  Uiso   1.00
O126   O     0.40708   0.30123   0.28935   0.00000  Uiso   1.00
O127   O     0.45371   0.31387   0.33425   0.00000  Uiso   1.00
O128   O     0.41367   0.04106   0.32724   0.00000  Uiso   1.00
O129   O     0.51182   0.08101   0.27821   0.00000  Uiso   1.00
O130   O     0.56896   0.24268   0.07537   0.00000  Uiso   1.00
O131   O     0.54286   0.30390   0.06240   0.00000  Uiso   1.00
O132   O     0.49152   0.25937   0.11566   0.00000  Uiso   1.00
O133   O     0.47914   0.26136   0.26767   0.00000  Uiso   1.00
O134   O     0.40785   0.13251   0.23607   0.00000  Uiso   1.00
O135   O     0.60119   0.19179   0.21806   0.00000  Uiso   1.00
O136   O     0.40323   0.18960   0.27820   0.00000  Uiso   1.00
O137   O     0.58773   0.15277   0.26768   0.00000  Uiso   1.00
O138   O     0.47133   0.06903   0.23607   0.00000  Uiso   1.00
O139   O     0.53771   0.25527   0.21806   0.00000  Uiso   1.00
S140   S     0.60820   0.06400   0.01587   0.00000  Uiso   1.00
S141   S     0.43883   0.33237   0.30449   0.00000  Uiso   1.00
S142   S     0.52984   0.25971   0.07176   0.00000  Uiso   1.00
Zn143  Zn    0.52577   0.14090   0.28278   0.00000  Uiso   1.00
Zn144  Zn    0.46792   0.12378   0.22258   0.00000  Uiso   1.00
Zn145  Zn    0.54500   0.19664   0.21188   0.00000  Uiso   1.00
Zn146  Zn    0.46131   0.20535   0.28277   0.00000  Uiso   1.00
C147   C     0.71913   0.15985   0.25899   0.00000  Uiso   1.00
C148   C     0.89225   0.15075   0.45416   0.00000  Uiso   1.00
C149   C     0.90808   0.12687   0.47544   0.00000  Uiso   1.00
C150   C     0.94774   0.17359   0.24131   0.00000  Uiso   1.00
C151   C     0.89463   0.13032   0.01712   0.00000  Uiso   1.00
C152   C     0.86840   0.16223   0.03764   0.00000  Uiso   1.00
C153   C     0.90724   0.10331   0.03901   0.00000  Uiso   1.00
C154   C     0.89264   0.10783   0.08062   0.00000  Uiso   1.00
C155   C     0.85157   0.16322   0.07919   0.00000  Uiso   1.00
C156   C     0.99363   0.17637   0.23794   0.00000  Uiso   1.00
C157   C     0.67375   0.15755   0.26259   0.00000  Uiso   1.00
C158   C     0.78968   0.23680   0.41817   0.00000  Uiso   1.00
C159   C     0.84558   0.32189   0.23925   0.00000  Uiso   1.00
C160   C     0.81706   0.01332   0.26403   0.00000  Uiso   1.00
C161   C     0.82361   0.05626   0.25825   0.00000  Uiso   1.00
C162   C     0.84315   0.27766   0.24167   0.00000  Uiso   1.00
C163   C     0.85458   0.14574   0.14380   0.00000  Uiso   1.00
C164   C     0.81248   0.18800   0.35646   0.00000  Uiso   1.00
C165   C     0.80944   0.20144   0.39884   0.00000  Uiso   1.00
C166   C     0.86487   0.13750   0.10055   0.00000  Uiso   1.00
C167   C     0.79198   0.25203   0.45648   0.00000  Uiso   1.00
C168   C     0.80062   0.28729   0.03342   0.00000  Uiso   1.00
C169   C     0.83054   0.18106   0.41883   0.00000  Uiso   1.00
C170   C     0.91332   0.14955   0.41187   0.00000  Uiso   1.00
C171   C     0.83709   0.19808   0.45589   0.00000  Uiso   1.00
C172   C     0.81580   0.23327   0.47581   0.00000  Uiso   1.00
C173   C     0.86190   0.17933   0.47466   0.00000  Uiso   1.00
C174   C     0.85727   0.19052   0.01587   0.00000  Uiso   1.00
C175   C     0.84287   0.22990   0.03309   0.00000  Uiso   1.00
C176   C     0.82000   0.24982   0.01384   0.00000  Uiso   1.00
H177   H     0.68326   0.19375   0.21524   0.00000  Uiso   1.00
H178   H     0.96847   0.01615   0.03461   0.00000  Uiso   1.00
H179   H     0.76650   0.05730   0.34217   0.00000  Uiso   1.00
H180   H     0.80192   0.27454   0.11262   0.00000  Uiso   1.00
H181   H     0.98481   0.13999   0.28550   0.00000  Uiso   1.00
H182   H     0.87197   0.00180   0.21595   0.00000  Uiso   1.00
H183   H     0.82789   0.18395   0.09542   0.00000  Uiso   1.00
H184   H     0.90316   0.08855   0.09780   0.00000  Uiso   1.00
H185   H     0.93071   0.10522   0.45875   0.00000  Uiso   1.00
H186   H     0.77582   0.27927   0.47034   0.00000  Uiso   1.00
H187   H     0.77295   0.25312   0.40350   0.00000  Uiso   1.00
H188   H     0.84103   0.15132   0.40520   0.00000  Uiso   1.00
N189   N     0.78515   0.31718   0.04901   0.00000  Uiso   1.00
N190   N     0.93035   0.14858   0.37809   0.00000  Uiso   1.00
O191   O     0.83333   0.16667   0.25000   0.00000  Uiso   1.00
O192   O     0.82360   0.12393   0.16625   0.00000  Uiso   1.00
O193   O     0.79354   0.20646   0.33749   0.00000  Uiso   1.00
O194   O     0.87755   0.17493   0.15877   0.00000  Uiso   1.00
O195   O     0.83865   0.16135   0.33749   0.00000  Uiso   1.00
O196   O     0.92037   0.03389   0.48913   0.00000  Uiso   1.00
O197   O     0.98393   0.08341   0.49147   0.00000  Uiso   1.00
O198   O     0.95084   0.03836   0.05015   0.00000  Uiso   1.00
O199   O     0.74041   0.30123   0.28935   0.00000  Uiso   1.00
O200   O     0.78704   0.31387   0.33425   0.00000  Uiso   1.00
O201   O     0.74700   0.04106   0.32724   0.00000  Uiso   1.00
O202   O     0.84515   0.08101   0.27821   0.00000  Uiso   1.00
O203   O     0.90229   0.24268   0.07537   0.00000  Uiso   1.00
O204   O     0.87620   0.30390   0.06240   0.00000  Uiso   1.00
O205   O     0.82485   0.25937   0.11566   0.00000  Uiso   1.00
O206   O     0.81247   0.26136   0.26767   0.00000  Uiso   1.00
O207   O     0.74119   0.13251   0.23607   0.00000  Uiso   1.00
O208   O     0.93452   0.19179   0.21806   0.00000  Uiso   1.00
O209   O     0.73656   0.18960   0.27820   0.00000  Uiso   1.00
O210   O     0.92106   0.15277   0.26768   0.00000  Uiso   1.00
O211   O     0.80467   0.06903   0.23607   0.00000  Uiso   1.00
O212   O     0.87104   0.25527   0.21806   0.00000  Uiso   1.00
S213   S     0.94154   0.06400   0.01587   0.00000  Uiso   1.00
S214   S     0.77216   0.33237   0.30449   0.00000  Uiso   1.00
S215   S     0.86317   0.25971   0.07176   0.00000  Uiso   1.00
Zn216  Zn    0.85910   0.14090   0.28278   0.00000  Uiso   1.00
Zn217  Zn    0.80125   0.12378   0.22258   0.00000  Uiso   1.00
Zn218  Zn    0.87833   0.19664   0.21188   0.00000  Uiso   1.00
Zn219  Zn    0.79465   0.20535   0.28277   0.00000  Uiso   1.00
C220   C     0.05246   0.49318   0.25899   0.00000  Uiso   1.00
C221   C     0.22558   0.48408   0.45416   0.00000  Uiso   1.00
C222   C     0.24142   0.46020   0.47544   0.00000  Uiso   1.00
C223   C     0.28107   0.50692   0.24131   0.00000  Uiso   1.00
C224   C     0.22796   0.46365   0.01712   0.00000  Uiso   1.00
C225   C     0.20173   0.49556   0.03764   0.00000  Uiso   1.00
C226   C     0.24058   0.43664   0.03901   0.00000  Uiso   1.00
C227   C     0.22597   0.44116   0.08062   0.00000  Uiso   1.00
C228   C     0.18490   0.49656   0.07919   0.00000  Uiso   1.00
C229   C     0.32696   0.50971   0.23794   0.00000  Uiso   1.00
C230   C     0.00708   0.49088   0.26259   0.00000  Uiso   1.00
C231   C     0.12301   0.57014   0.41817   0.00000  Uiso   1.00
C232   C     0.17891   0.65522   0.23925   0.00000  Uiso   1.00
C233   C     0.15040   0.34666   0.26403   0.00000  Uiso   1.00
C234   C     0.15695   0.38960   0.25825   0.00000  Uiso   1.00
C235   C     0.17648   0.61099   0.24167   0.00000  Uiso   1.00
C236   C     0.18791   0.47908   0.14380   0.00000  Uiso   1.00
C237   C     0.14581   0.52134   0.35646   0.00000  Uiso   1.00
C238   C     0.14277   0.53477   0.39884   0.00000  Uiso   1.00
C239   C     0.19820   0.47083   0.10055   0.00000  Uiso   1.00
C240   C     0.12532   0.58537   0.45648   0.00000  Uiso   1.00
C241   C     0.13395   0.62062   0.03342   0.00000  Uiso   1.00
C242   C     0.16388   0.51439   0.41883   0.00000  Uiso   1.00
C243   C     0.24665   0.48288   0.41187   0.00000  Uiso   1.00
C244   C     0.17042   0.53141   0.45589   0.00000  Uiso   1.00
C245   C     0.14913   0.56660   0.47581   0.00000  Uiso   1.00
C246   C     0.19523   0.51266   0.47466   0.00000  Uiso   1.00
C247   C     0.19061   0.52386   0.01587   0.00000  Uiso   1.00
C248   C     0.17621   0.56324   0.03309   0.00000  Uiso   1.00
C249   C     0.15333   0.58315   0.01384   0.00000  Uiso   1.00
H250   H     0.01660   0.52709   0.21524   0.00000  Uiso   1.00
H251   H     0.30180   0.34948   0.03461   0.00000  Uiso   1.00
H252   H     0.09983   0.39063   0.34217   0.00000  Uiso   1.00
H253   H     0.13526   0.60787   0.11262   0.00000  Uiso   1.00
H254   H     0.31815   0.47332   0.28550   0.00000  Uiso   1.00
H255   H     0.20531   0.33513   0.21595   0.00000  Uiso   1.00
H256   H     0.16122   0.51728   0.09542   0.00000  Uiso   1.00
H257   H     0.23649   0.42188   0.09780   0.00000  Uiso   1.00
H258   H     0.26405   0.43855   0.45875   0.00000  Uiso   1.00
H259   H     0.10915   0.61260   0.47034   0.00000  Uiso   1.00
H260   H     0.10628   0.58645   0.40350   0.00000  Uiso   1.00
H261   H     0.17436   0.48465   0.40520   0.00000  Uiso   1.00
N262   N     0.11848   0.65051   0.04901   0.00000  Uiso   1.00
N263   N     0.26369   0.48191   0.37809   0.00000  Uiso   1.00
O264   O     0.16667   0.50000   0.25000   0.00000  Uiso   1.00
O265   O     0.15693   0.45726   0.16625   0.00000  Uiso   1.00
O266   O     0.12687   0.53979   0.33749   0.00000  Uiso   1.00
O267   O     0.21088   0.50826   0.15877   0.00000  Uiso   1.00
O268   O     0.17198   0.49468   0.33749   0.00000  Uiso   1.00
O269   O     0.25371   0.36722   0.48913   0.00000  Uiso   1.00
O270   O     0.31726   0.41674   0.49147   0.00000  Uiso   1.00
O271   O     0.28418   0.37170   0.05015   0.00000  Uiso   1.00
O272   O     0.07374   0.63456   0.28935   0.00000  Uiso   1.00
O273   O     0.12037   0.64720   0.33425   0.00000  Uiso   1.00
O274   O     0.08034   0.37440   0.32724   0.00000  Uiso   1.00
O275   O     0.17849   0.41434   0.27821   0.00000  Uiso   1.00
O276   O     0.23563   0.57601   0.07537   0.00000  Uiso   1.00
O277   O     0.20953   0.63723   0.06240   0.00000  Uiso   1.00
O278   O     0.15818   0.59270   0.11566   0.00000  Uiso   1.00
O279   O     0.14581   0.59469   0.26767   0.00000  Uiso   1.00
O280   O     0.07452   0.46584   0.23607   0.00000  Uiso   1.00
O281   O     0.26785   0.52512   0.21806   0.00000  Uiso   1.00
O282   O     0.06990   0.52293   0.27820   0.00000  Uiso   1.00
O283   O     0.25440   0.48610   0.26768   0.00000  Uiso   1.00
O284   O     0.13800   0.40236   0.23607   0.00000  Uiso   1.00
O285   O     0.20437   0.58860   0.21806   0.00000  Uiso   1.00
S286   S     0.27487   0.39733   0.01587   0.00000  Uiso   1.00
S287   S     0.10549   0.66571   0.30449   0.00000  Uiso   1.00
S288   S     0.19650   0.59305   0.07176   0.00000  Uiso   1.00
Zn289  Zn    0.19244   0.47423   0.28278   0.00000  Uiso   1.00
Zn290  Zn    0.13459   0.45711   0.22258   0.00000  Uiso   1.00
Zn291  Zn    0.21166   0.52997   0.21188   0.00000  Uiso   1.00
Zn292  Zn    0.12798   0.53868   0.28277   0.00000  Uiso   1.00
C293   C     0.38579   0.49318   0.25899   0.00000  Uiso   1.00
C294   C     0.55891   0.48408   0.45416   0.00000  Uiso   1.00
C295   C     0.57475   0.46020   0.47544   0.00000  Uiso   1.00
C296   C     0.61440   0.50692   0.24131   0.00000  Uiso   1.00
C297   C     0.56129   0.46365   0.01712   0.00000  Uiso   1.00
C298   C     0.53507   0.49556   0.03764   0.00000  Uiso   1.00
C299   C     0.57391   0.43664   0.03901   0.00000  Uiso   1.00
C300   C     0.55930   0.44116   0.08062   0.00000  Uiso   1.00
C301   C     0.51823   0.49656   0.07919   0.00000  Uiso   1.00
C302   C     0.66029   0.50971   0.23794   0.00000  Uiso   1.00
C303   C     0.34041   0.49088   0.26259   0.00000  Uiso   1.00
C304   C     0.45634   0.57014   0.41817   0.00000  Uiso   1.00
C305   C     0.51225   0.65522   0.23925   0.00000  Uiso   1.00
C306   C     0.48373   0.34666   0.26403   0.00000  Uiso   1.00
C307   C     0.49028   0.38960   0.25825   0.00000  Uiso   1.00
C308   C     0.50982   0.61099   0.24167   0.00000  Uiso   1.00
C309   C     0.52124   0.47908   0.14380   0.00000  Uiso   1.00
C310   C     0.47915   0.52134   0.35646   0.00000  Uiso   1.00
C311   C     0.47610   0.53477   0.39884   0.00000  Uiso   1.00
C312   C     0.53154   0.47083   0.10055   0.00000  Uiso   1.00
C313   C     0.45865   0.58537   0.45648   0.00000  Uiso   1.00
C314   C     0.46729   0.62062   0.03342   0.00000  Uiso   1.00
C315   C     0.49721   0.51439   0.41883   0.00000  Uiso   1.00
C316   C     0.57999   0.48288   0.41187   0.00000  Uiso   1.00
C317   C     0.50375   0.53141   0.45589   0.00000  Uiso   1.00
C318   C     0.48247   0.56660   0.47581   0.00000  Uiso   1.00
C319   C     0.52857   0.51266   0.47466   0.00000  Uiso   1.00
C320   C     0.52394   0.52386   0.01587   0.00000  Uiso   1.00
C321   C     0.50954   0.56324   0.03309   0.00000  Uiso   1.00
C322   C     0.48667   0.58315   0.01384   0.00000  Uiso   1.00
H323   H     0.34993   0.52709   0.21524   0.00000  Uiso   1.00
H324   H     0.63513   0.34948   0.03461   0.00000  Uiso   1.00
H325   H     0.43316   0.39063   0.34217   0.00000  Uiso   1.00
H326   H     0.46859   0.60787   0.11262   0.00000  Uiso   1.00
H327   H     0.65148   0.47332   0.28550   0.00000  Uiso   1.00
H328   H     0.53864   0.33513   0.21595   0.00000  Uiso   1.00
H329   H     0.49455   0.51728   0.09542   0.00000  Uiso   1.00
H330   H     0.56983   0.42188   0.09780   0.00000  Uiso   1.00
H331   H     0.59738   0.43855   0.45875   0.00000  Uiso   1.00
H332   H     0.44249   0.61260   0.47034   0.00000  Uiso   1.00
H333   H     0.43961   0.58645   0.40350   0.00000  Uiso   1.00
H334   H     0.50769   0.48465   0.40520   0.00000  Uiso   1.00
N335   N     0.45182   0.65051   0.04901   0.00000  Uiso   1.00
N336   N     0.59702   0.48191   0.37809   0.00000  Uiso   1.00
O337   O     0.50000   0.50000   0.25000   0.00000  Uiso   1.00
O338   O     0.49027   0.45726   0.16625   0.00000  Uiso   1.00
O339   O     0.46020   0.53979   0.33749   0.00000  Uiso   1.00
O340   O     0.54421   0.50826   0.15877   0.00000  Uiso   1.00
O341   O     0.50532   0.49468   0.33749   0.00000  Uiso   1.00
O342   O     0.58704   0.36722   0.48913   0.00000  Uiso   1.00
O343   O     0.65060   0.41674   0.49147   0.00000  Uiso   1.00
O344   O     0.61751   0.37170   0.05015   0.00000  Uiso   1.00
O345   O     0.40708   0.63456   0.28935   0.00000  Uiso   1.00
O346   O     0.45371   0.64720   0.33425   0.00000  Uiso   1.00
O347   O     0.41367   0.37440   0.32724   0.00000  Uiso   1.00
O348   O     0.51182   0.41434   0.27821   0.00000  Uiso   1.00
O349   O     0.56896   0.57601   0.07537   0.00000  Uiso   1.00
O350   O     0.54286   0.63723   0.06240   0.00000  Uiso   1.00
O351   O     0.49152   0.59270   0.11566   0.00000  Uiso   1.00
O352   O     0.47914   0.59469   0.26767   0.00000  Uiso   1.00
O353   O     0.40785   0.46584   0.23607   0.00000  Uiso   1.00
O354   O     0.60119   0.52512   0.21806   0.00000  Uiso   1.00
O355   O     0.40323   0.52293   0.27820   0.00000  Uiso   1.00
O356   O     0.58773   0.48610   0.26768   0.00000  Uiso   1.00
O357   O     0.47133   0.40236   0.23607   0.00000  Uiso   1.00
O358   O     0.53771   0.58860   0.21806   0.00000  Uiso   1.00
S359   S     0.60820   0.39733   0.01587   0.00000  Uiso   1.00
S360   S     0.43883   0.66571   0.30449   0.00000  Uiso   1.00
S361   S     0.52984   0.59305   0.07176   0.00000  Uiso   1.00
Zn362  Zn    0.52577   0.47423   0.28278   0.00000  Uiso   1.00
Zn363  Zn    0.46792   0.45711   0.22258   0.00000  Uiso   1.00
Zn364  Zn    0.54500   0.52997   0.21188   0.00000  Uiso   1.00
Zn365  Zn    0.46131   0.53868   0.28277   0.00000  Uiso   1.00
C366   C     0.71913   0.49318   0.25899   0.00000  Uiso   1.00
C367   C     0.89225   0.48408   0.45416   0.00000  Uiso   1.00
C368   C     0.90808   0.46020   0.47544   0.00000  Uiso   1.00
C369   C     0.94774   0.50692   0.24131   0.00000  Uiso   1.00
C370   C     0.89463   0.46365   0.01712   0.00000  Uiso   1.00
C371   C     0.86840   0.49556   0.03764   0.00000  Uiso   1.00
C372   C     0.90724   0.43664   0.03901   0.00000  Uiso   1.00
C373   C     0.89264   0.44116   0.08062   0.00000  Uiso   1.00
C374   C     0.85157   0.49656   0.07919   0.00000  Uiso   1.00
C375   C     0.99363   0.50971   0.23794   0.00000  Uiso   1.00
C376   C     0.67375   0.49088   0.26259   0.00000  Uiso   1.00
C377   C     0.78968   0.57014   0.41817   0.00000  Uiso   1.00
C378   C     0.84558   0.65522   0.23925   0.00000  Uiso   1.00
C379   C     0.81706   0.34666   0.26403   0.00000  Uiso   1.00
C380   C     0.82361   0.38960   0.25825   0.00000  Uiso   1.00
C381   C     0.84315   0.61099   0.24167   0.00000  Uiso   1.00
C382   C     0.85458   0.47908   0.14380   0.00000  Uiso   1.00
C383   C     0.81248   0.52134   0.35646   0.00000  Uiso   1.00
C384   C     0.80944   0.53477   0.39884   0.00000  Uiso   1.00
C385   C     0.86487   0.47083   0.10055   0.00000  Uiso   1.00
C386   C     0.79198   0.58537   0.45648   0.00000  Uiso   1.00
C387   C     0.80062   0.62062   0.03342   0.00000  Uiso   1.00
C388   C     0.83054   0.51439   0.41883   0.00000  Uiso   1.00
C389   C     0.91332   0.48288   0.41187   0.00000  Uiso   1.00
C390   C     0.83709   0.53141   0.45589   0.00000  Uiso   1.00
C391   C     0.81580   0.56660   0.47581   0.00000  Uiso   1.00
C392   C     0.86190   0.51266   0.47466   0.00000  Uiso   1.00
C393   C     0.85727   0.52386   0.01587   0.00000  Uiso   1.00
C394   C     0.84287   0.56324   0.03309   0.00000  Uiso   1.00
C395   C     0.82000   0.58315   0.01384   0.00000  Uiso   1.00
H396   H     0.68326   0.52709   0.21524   0.00000  Uiso   1.00
H397   H     0.96847   0.34948   0.03461   0.00000  Uiso   1.00
H398   H     0.76650   0.39063   0.34217   0.00000  Uiso   1.00
H399   H     0.80192   0.60787   0.11262   0.00000  Uiso   1.00
H400   H     0.98481   0.47332   0.28550   0.00000  Uiso   1.00
H401   H     0.87197   0.33513   0.21595   0.00000  Uiso   1.00
H402   H     0.82789   0.51728   0.09542   0.00000  Uiso   1.00
H403   H     0.90316   0.42188   0.09780   0.00000  Uiso   1.00
H404   H     0.93071   0.43855   0.45875   0.00000  Uiso   1.00
H405   H     0.77582   0.61260   0.47034   0.00000  Uiso   1.00
H406   H     0.77295   0.58645   0.40350   0.00000  Uiso   1.00
H407   H     0.84103   0.48465   0.40520   0.00000  Uiso   1.00
N408   N     0.78515   0.65051   0.04901   0.00000  Uiso   1.00
N409   N     0.93035   0.48191   0.37809   0.00000  Uiso   1.00
O410   O     0.83333   0.50000   0.25000   0.00000  Uiso   1.00
O411   O     0.82360   0.45726   0.16625   0.00000  Uiso   1.00
O412   O     0.79354   0.53979   0.33749   0.00000  Uiso   1.00
O413   O     0.87755   0.50826   0.15877   0.00000  Uiso   1.00
O414   O     0.83865   0.49468   0.33749   0.00000  Uiso   1.00
O415   O     0.92037   0.36722   0.48913   0.00000  Uiso   1.00
O416   O     0.98393   0.41674   0.49147   0.00000  Uiso   1.00
O417   O     0.95084   0.37170   0.05015   0.00000  Uiso   1.00
O418   O     0.74041   0.63456   0.28935   0.00000  Uiso   1.00
O419   O     0.78704   0.64720   0.33425   0.00000  Uiso   1.00
O420   O     0.74700   0.37440   0.32724   0.00000  Uiso   1.00
O421   O     0.84515   0.41434   0.27821   0.00000  Uiso   1.00
O422   O     0.90229   0.57601   0.07537   0.00000  Uiso   1.00
O423   O     0.87620   0.63723   0.06240   0.00000  Uiso   1.00
O424   O     0.82485   0.59270   0.11566   0.00000  Uiso   1.00
O425   O     0.81247   0.59469   0.26767   0.00000  Uiso   1.00
O426   O     0.74119   0.46584   0.23607   0.00000  Uiso   1.00
O427   O     0.93452   0.52512   0.21806   0.00000  Uiso   1.00
O428   O     0.73656   0.52293   0.27820   0.00000  Uiso   1.00
O429   O     0.92106   0.48610   0.26768   0.00000  Uiso   1.00
O430   O     0.80467   0.40236   0.23607   0.00000  Uiso   1.00
O431   O     0.87104   0.58860   0.21806   0.00000  Uiso   1.00
S432   S     0.94154   0.39733   0.01587   0.00000  Uiso   1.00
S433   S     0.77216   0.66571   0.30449   0.00000  Uiso   1.00
S434   S     0.86317   0.59305   0.07176   0.00000  Uiso   1.00
Zn435  Zn    0.85910   0.47423   0.28278   0.00000  Uiso   1.00
Zn436  Zn    0.80125   0.45711   0.22258   0.00000  Uiso   1.00
Zn437  Zn    0.87833   0.52997   0.21188   0.00000  Uiso   1.00
Zn438  Zn    0.79465   0.53868   0.28277   0.00000  Uiso   1.00
C439   C     0.05246   0.82652   0.25899   0.00000  Uiso   1.00
C440   C     0.22558   0.81742   0.45416   0.00000  Uiso   1.00
C441   C     0.24142   0.79353   0.47544   0.00000  Uiso   1.00
C442   C     0.28107   0.84025   0.24131   0.00000  Uiso   1.00
C443   C     0.22796   0.79698   0.01712   0.00000  Uiso   1.00
C444   C     0.20173   0.82889   0.03764   0.00000  Uiso   1.00
C445   C     0.24058   0.76997   0.03901   0.00000  Uiso   1.00
C446   C     0.22597   0.77450   0.08062   0.00000  Uiso   1.00
C447   C     0.18490   0.82989   0.07919   0.00000  Uiso   1.00
C448   C     0.32696   0.84304   0.23794   0.00000  Uiso   1.00
C449   C     0.00708   0.82421   0.26259   0.00000  Uiso   1.00
C450   C     0.12301   0.90347   0.41817   0.00000  Uiso   1.00
C451   C     0.17891   0.98855   0.23925   0.00000  Uiso   1.00
C452   C     0.15040   0.67999   0.26403   0.00000  Uiso   1.00
C453   C     0.15695   0.72293   0.25825   0.00000  Uiso   1.00
C454   C     0.17648   0.94432   0.24167   0.00000  Uiso   1.00
C455   C     0.18791   0.81241   0.14380   0.00000  Uiso   1.00
C456   C     0.14581   0.85467   0.35646   0.00000  Uiso   1.00
C457   C     0.14277   0.86811   0.39884   0.00000  Uiso   1.00
C458   C     0.19820   0.80417   0.10055   0.00000  Uiso   1.00
C459   C     0.12532   0.91870   0.45648   0.00000  Uiso   1.00
C460   C     0.13395   0.95396   0.03342   0.00000  Uiso   1.00
C461   C     0.16388   0.84772   0.41883   0.00000  Uiso   1.00
C462   C     0.24665   0.81621   0.41187   0.00000  Uiso   1.00
C463   C     0.17042   0.86474   0.45589   0.00000  Uiso   1.00
C464   C     0.14913   0.89994   0.47581   0.00000  Uiso   1.00
C465   C     0.19523   0.84599   0.47466   0.00000  Uiso   1.00
C466   C     0.19061   0.85719   0.01587   0.00000  Uiso   1.00
C467   C     0.17621   0.89657   0.03309   0.00000  Uiso   1.00
C468   C     0.15333   0.91649   0.01384   0.00000  Uiso   1.00
H469   H     0.01660   0.86042   0.21524   0.00000  Uiso   1.00
H470   H     0.30180   0.68281   0.03461   0.00000  Uiso   1.00
H471   H     0.09983   0.72397   0.34217   0.00000  Uiso   1.00
H472   H     0.13526   0.94121   0.11262   0.00000  Uiso   1.00
H473   H     0.31815   0.80666   0.28550   0.00000  Uiso   1.00
H474   H     0.20531   0.66846   0.21595   0.00000  Uiso   1.00
H475   H     0.16122   0.85061   0.09542   0.00000  Uiso   1.00
H476   H     0.23649   0.75521   0.09780   0.00000  Uiso   1.00
H477   H     0.26405   0.77188   0.45875   0.00000  Uiso   1.00
H478   H     0.10915   0.94594   0.47034   0.00000  Uiso   1.00
H479   H     0.10628   0.91979   0.40350   0.00000  Uiso   1.00
H480   H     0.17436   0.81799   0.40520   0.00000  Uiso   1.00
N481   N     0.11848   0.98384   0.04901   0.00000  Uiso   1.00
N482   N     0.26369   0.81525   0.37809   0.00000  Uiso   1.00
O483   O     0.16667   0.83333   0.25000   0.00000  Uiso   1.00
O484   O     0.15693   0.79060   0.16625   0.00000  Uiso   1.00
O485   O     0.12687   0.87313   0.33749   0.00000  Uiso   1.00
O486   O     0.21088   0.84159   0.15877   0.00000  Uiso   1.00
O487   O     0.17198   0.82802   0.33749   0.00000  Uiso   1.00
O488   O     0.25371   0.70055   0.48913   0.00000  Uiso   1.00
O489   O     0.31726   0.75008   0.49147   0.00000  Uiso   1.00
O490   O     0.28418   0.70503   0.05015   0.00000  Uiso   1.00
O491   O     0.07374   0.96789   0.28935   0.00000  Uiso   1.00
O492   O     0.12037   0.98053   0.33425   0.00000  Uiso   1.00
O493   O     0.08034   0.70773   0.32724   0.00000  Uiso   1.00
O494   O     0.17849   0.74768   0.27821   0.00000  Uiso   1.00
O495   O     0.23563   0.90935   0.07537   0.00000  Uiso   1.00
O496   O     0.20953   0.97057   0.06240   0.00000  Uiso   1.00
O497   O     0.15818   0.92604   0.11566   0.00000  Uiso   1.00
O498   O     0.14581   0.92803   0.26767   0.00000  Uiso   1.00
O499   O     0.07452   0.79917   0.23607   0.00000  Uiso   1.00
O500   O     0.26785   0.85845   0.21806   0.00000  Uiso   1.00
O501   O     0.06990   0.85627   0.27820   0.00000  Uiso   1.00
O502   O     0.25440   0.81944   0.26768   0.00000  Uiso   1.00
O503   O     0.13800   0.73570   0.23607   0.00000  Uiso   1.00
O504   O     0.20437   0.92193   0.21806   0.00000  Uiso   1.00
S505   S     0.27487   0.73067   0.01587   0.00000  Uiso   1.00
S506   S     0.10549   0.99904   0.30449   0.00000  Uiso   1.00
S507   S     0.19650   0.92638   0.07176   0.00000  Uiso   1.00
Zn508  Zn    0.19244   0.80756   0.28278   0.00000  Uiso   1.00
Zn509  Zn    0.13459   0.79044   0.22258   0.00000  Uiso   1.00
Zn510  Zn    0.21166   0.86331   0.21188   0.00000  Uiso   1.00
Zn511  Zn    0.12798   0.87202   0.28277   0.00000  Uiso   1.00
C512   C     0.38579   0.82652   0.25899   0.00000  Uiso   1.00
C513   C     0.55891   0.81742   0.45416   0.00000  Uiso   1.00
C514   C     0.57475   0.79353   0.47544   0.00000  Uiso   1.00
C515   C     0.61440   0.84025   0.24131   0.00000  Uiso   1.00
C516   C     0.56129   0.79698   0.01712   0.00000  Uiso   1.00
C517   C     0.53507   0.82889   0.03764   0.00000  Uiso   1.00
C518   C     0.57391   0.76997   0.03901   0.00000  Uiso   1.00
C519   C     0.55930   0.77450   0.08062   0.00000  Uiso   1.00
C520   C     0.51823   0.82989   0.07919   0.00000  Uiso   1.00
C521   C     0.66029   0.84304   0.23794   0.00000  Uiso   1.00
C522   C     0.34041   0.82421   0.26259   0.00000  Uiso   1.00
C523   C     0.45634   0.90347   0.41817   0.00000  Uiso   1.00
C524   C     0.51225   0.98855   0.23925   0.00000  Uiso   1.00
C525   C     0.48373   0.67999   0.26403   0.00000  Uiso   1.00
C526   C     0.49028   0.72293   0.25825   0.00000  Uiso   1.00
C527   C     0.50982   0.94432   0.24167   0.00000  Uiso   1.00
C528   C     0.52124   0.81241   0.14380   0.00000  Uiso   1.00
C529   C     0.47915   0.85467   0.35646   0.00000  Uiso   1.00
C530   C     0.47610   0.86811   0.39884   0.00000  Uiso   1.00
C531   C     0.53154   0.80417   0.10055   0.00000  Uiso   1.00
C532   C     0.45865   0.91870   0.45648   0.00000  Uiso   1.00
C533   C     0.46729   0.95396   0.03342   0.00000  Uiso   1.00
C534   C     0.49721   0.84772   0.41883   0.00000  Uiso   1.00
C535   C     0.57999   0.81621   0.41187   0.00000  Uiso   1.00
C536   C     0.50375   0.86474   0.45589   0.00000  Uiso   1.00
C537   C     0.48247   0.89994   0.47581   0.00000  Uiso   1.00
C538   C     0.52857   0.84599   0.47466   0.00000  Uiso   1.00
C539   C     0.52394   0.85719   0.01587   0.00000  Uiso   1.00
C540   C     0.50954   0.89657   0.03309   0.00000  Uiso   1.00
C541   C     0.48667   0.91649   0.01384   0.00000  Uiso   1.00
H542   H     0.34993   0.86042   0.21524   0.00000  Uiso   1.00
H543   H     0.63513   0.68281   0.03461   0.00000  Uiso   1.00
H544   H     0.43316   0.72397   0.34217   0.00000  Uiso   1.00
H545   H     0.46859   0.94121   0.11262   0.00000  Uiso   1.00
H546   H     0.65148   0.80666   0.28550   0.00000  Uiso   1.00
H547   H     0.53864   0.66846   0.21595   0.00000  Uiso   1.00
H548   H     0.49455   0.85061   0.09542   0.00000  Uiso   1.00
H549   H     0.56983   0.75521   0.09780   0.00000  Uiso   1.00
H550   H     0.59738   0.77188   0.45875   0.00000  Uiso   1.00
H551   H     0.44249   0.94594   0.47034   0.00000  Uiso   1.00
H552   H     0.43961   0.91979   0.40350   0.00000  Uiso   1.00
H553   H     0.50769   0.81799   0.40520   0.00000  Uiso   1.00
N554   N     0.45182   0.98384   0.04901   0.00000  Uiso   1.00
N555   N     0.59702   0.81525   0.37809   0.00000  Uiso   1.00
O556   O     0.50000   0.83333   0.25000   0.00000  Uiso   1.00
O557   O     0.49027   0.79060   0.16625   0.00000  Uiso   1.00
O558   O     0.46020   0.87313   0.33749   0.00000  Uiso   1.00
O559   O     0.54421   0.84159   0.15877   0.00000  Uiso   1.00
O560   O     0.50532   0.82802   0.33749   0.00000  Uiso   1.00
O561   O     0.58704   0.70055   0.48913   0.00000  Uiso   1.00
O562   O     0.65060   0.75008   0.49147   0.00000  Uiso   1.00
O563   O     0.61751   0.70503   0.05015   0.00000  Uiso   1.00
O564   O     0.40708   0.96789   0.28935   0.00000  Uiso   1.00
O565   O     0.45371   0.98053   0.33425   0.00000  Uiso   1.00
O566   O     0.41367   0.70773   0.32724   0.00000  Uiso   1.00
O567   O     0.51182   0.74768   0.27821   0.00000  Uiso   1.00
O568   O     0.56896   0.90935   0.07537   0.00000  Uiso   1.00
O569   O     0.54286   0.97057   0.06240   0.00000  Uiso   1.00
O570   O     0.49152   0.92604   0.11566   0.00000  Uiso   1.00
O571   O     0.47914   0.92803   0.26767   0.00000  Uiso   1.00
O572   O     0.40785   0.79917   0.23607   0.00000  Uiso   1.00
O573   O     0.60119   0.85845   0.21806   0.00000  Uiso   1.00
O574   O     0.40323   0.85627   0.27820   0.00000  Uiso   1.00
O575   O     0.58773   0.81944   0.26768   0.00000  Uiso   1.00
O576   O     0.47133   0.73570   0.23607   0.00000  Uiso   1.00
O577   O     0.53771   0.92193   0.21806   0.00000  Uiso   1.00
S578   S     0.60820   0.73067   0.01587   0.00000  Uiso   1.00
S579   S     0.43883   0.99904   0.30449   0.00000  Uiso   1.00
S580   S     0.52984   0.92638   0.07176   0.00000  Uiso   1.00
Zn581  Zn    0.52577   0.80756   0.28278   0.00000  Uiso   1.00
Zn582  Zn    0.46792   0.79044   0.22258   0.00000  Uiso   1.00
Zn583  Zn    0.54500   0.86331   0.21188   0.00000  Uiso   1.00
Zn584  Zn    0.46131   0.87202   0.28277   0.00000  Uiso   1.00
C585   C     0.71913   0.82652   0.25899   0.00000  Uiso   1.00
C586   C     0.89225   0.81742   0.45416   0.00000  Uiso   1.00
C587   C     0.90808   0.79353   0.47544   0.00000  Uiso   1.00
C588   C     0.94774   0.84025   0.24131   0.00000  Uiso   1.00
C589   C     0.89463   0.79698   0.01712   0.00000  Uiso   1.00
C590   C     0.86840   0.82889   0.03764   0.00000  Uiso   1.00
C591   C     0.90724   0.76997   0.03901   0.00000  Uiso   1.00
C592   C     0.89264   0.77450   0.08062   0.00000  Uiso   1.00
C593   C     0.85157   0.82989   0.07919   0.00000  Uiso   1.00
C594   C     0.99363   0.84304   0.23794   0.00000  Uiso   1.00
C595   C     0.67375   0.82421   0.26259   0.00000  Uiso   1.00
C596   C     0.78968   0.90347   0.41817   0.00000  Uiso   1.00
C597   C     0.84558   0.98855   0.23925   0.00000  Uiso   1.00
C598   C     0.81706   0.67999   0.26403   0.00000  Uiso   1.00
C599   C     0.82361   0.72293   0.25825   0.00000  Uiso   1.00
C600   C     0.84315   0.94432   0.24167   0.00000  Uiso   1.00
C601   C     0.85458   0.81241   0.14380   0.00000  Uiso   1.00
C602   C     0.81248   0.85467   0.35646   0.00000  Uiso   1.00
C603   C     0.80944   0.86811   0.39884   0.00000  Uiso   1.00
C604   C     0.86487   0.80417   0.10055   0.00000  Uiso   1.00
C605   C     0.79198   0.91870   0.45648   0.00000  Uiso   1.00
C606   C     0.80062   0.95396   0.03342   0.00000  Uiso   1.00
C607   C     0.83054   0.84772   0.41883   0.00000  Uiso   1.00
C608   C     0.91332   0.81621   0.41187   0.00000  Uiso   1.00
C609   C     0.83709   0.86474   0.45589   0.00000  Uiso   1.00
C610   C     0.81580   0.89994   0.47581   0.00000  Uiso   1.00
C611   C     0.86190   0.84599   0.47466   0.00000  Uiso   1.00
C612   C     0.85727   0.85719   0.01587   0.00000  Uiso   1.00
C613   C     0.84287   0.89657   0.03309   0.00000  Uiso   1.00
C614   C     0.82000   0.91649   0.01384   0.00000  Uiso   1.00
H615   H     0.68326   0.86042   0.21524   0.00000  Uiso   1.00
H616   H     0.96847   0.68281   0.03461   0.00000  Uiso   1.00
H617   H     0.76650   0.72397   0.34217   0.00000  Uiso   1.00
H618   H     0.80192   0.94121   0.11262   0.00000  Uiso   1.00
H619   H     0.98481   0.80666   0.28550   0.00000  Uiso   1.00
H620   H     0.87197   0.66846   0.21595   0.00000  Uiso   1.00
H621   H     0.82789   0.85061   0.09542   0.00000  Uiso   1.00
H622   H     0.90316   0.75521   0.09780   0.00000  Uiso   1.00
H623   H     0.93071   0.77188   0.45875   0.00000  Uiso   1.00
H624   H     0.77582   0.94594   0.47034   0.00000  Uiso   1.00
H625   H     0.77295   0.91979   0.40350   0.00000  Uiso   1.00
H626   H     0.84103   0.81799   0.40520   0.00000  Uiso   1.00
N627   N     0.78515   0.98384   0.04901   0.00000  Uiso   1.00
N628   N     0.93035   0.81525   0.37809   0.00000  Uiso   1.00
O629   O     0.83333   0.83333   0.25000   0.00000  Uiso   1.00
O630   O     0.82360   0.79060   0.16625   0.00000  Uiso   1.00
O631   O     0.79354   0.87313   0.33749   0.00000  Uiso   1.00
O632   O     0.87755   0.84159   0.15877   0.00000  Uiso   1.00
O633   O     0.83865   0.82802   0.33749   0.00000  Uiso   1.00
O634   O     0.92037   0.70055   0.48913   0.00000  Uiso   1.00
O635   O     0.98393   0.75008   0.49147   0.00000  Uiso   1.00
O636   O     0.95084   0.70503   0.05015   0.00000  Uiso   1.00
O637   O     0.74041   0.96789   0.28935   0.00000  Uiso   1.00
O638   O     0.78704   0.98053   0.33425   0.00000  Uiso   1.00
O639   O     0.74700   0.70773   0.32724   0.00000  Uiso   1.00
O640   O     0.84515   0.74768   0.27821   0.00000  Uiso   1.00
O641   O     0.90229   0.90935   0.07537   0.00000  Uiso   1.00
O642   O     0.87620   0.97057   0.06240   0.00000  Uiso   1.00
O643   O     0.82485   0.92604   0.11566   0.00000  Uiso   1.00
O644   O     0.81247   0.92803   0.26767   0.00000  Uiso   1.00
O645   O     0.74119   0.79917   0.23607   0.00000  Uiso   1.00
O646   O     0.93452   0.85845   0.21806   0.00000  Uiso   1.00
O647   O     0.73656   0.85627   0.27820   0.00000  Uiso   1.00
O648   O     0.92106   0.81944   0.26768   0.00000  Uiso   1.00
O649   O     0.80467   0.73570   0.23607   0.00000  Uiso   1.00
O650   O     0.87104   0.92193   0.21806   0.00000  Uiso   1.00
S651   S     0.94154   0.73067   0.01587   0.00000  Uiso   1.00
S652   S     0.77216   0.99904   0.30449   0.00000  Uiso   1.00
S653   S     0.86317   0.92638   0.07176   0.00000  Uiso   1.00
Zn654  Zn    0.85910   0.80756   0.28278   0.00000  Uiso   1.00
Zn655  Zn    0.80125   0.79044   0.22258   0.00000  Uiso   1.00
Zn656  Zn    0.87833   0.86331   0.21188   0.00000  Uiso   1.00
Zn657  Zn    0.79465   0.87202   0.28277   0.00000  Uiso   1.00
C658   C     0.05246   0.15985   0.75899   0.00000  Uiso   1.00
C659   C     0.22558   0.15075   0.95416   0.00000  Uiso   1.00
C660   C     0.24142   0.12687   0.97544   0.00000  Uiso   1.00
C661   C     0.28107   0.17359   0.74131   0.00000  Uiso   1.00
C662   C     0.22796   0.13032   0.51712   0.00000  Uiso   1.00
C663   C     0.20173   0.16223   0.53764   0.00000  Uiso   1.00
C664   C     0.24058   0.10331   0.53901   0.00000  Uiso   1.00
C665   C     0.22597   0.10783   0.58062   0.00000  Uiso   1.00
C666   C     0.18490   0.16322   0.57919   0.00000  Uiso   1.00
C667   C     0.32696   0.17637   0.73794   0.00000  Uiso   1.00
C668   C     0.00708   0.15755   0.76259   0.00000  Uiso   1.00
C669   C     0.12301   0.23680   0.91817   0.00000  Uiso   1.00
C670   C     0.17891   0.32189   0.73925   0.00000  Uiso   1.00
C671   C     0.15040   0.01332   0.76403   0.00000  Uiso   1.00
C672   C     0.15695   0.05626   0.75825   0.00000  Uiso   1.00
C673   C     0.17648   0.27766   0.74167   0.00000  Uiso   1.00
C674   C     0.18791   0.14574   0.64380   0.00000  Uiso   1.00
C675   C     0.14581   0.18800   0.85646   0.00000  Uiso   1.00
C676   C     0.14277   0.20144   0.89884   0.00000  Uiso   1.00
C677   C     0.19820   0.13750   0.60055   0.00000  Uiso   1.00
C678   C     0.12532   0.25203   0.95648   0.00000  Uiso   1.00
C679   C     0.13395   0.28729   0.53342   0.00000  Uiso   1.00
C680   C     0.16388   0.18106   0.91883   0.00000  Uiso   1.00
C681   C     0.24665   0.14955   0.91187   0.00000  Uiso   1.00
C682   C     0.17042   0.19808   0.95589   0.00000  Uiso   1.00
C683   C     0.14913   0.23327   0.97581   0.00000  Uiso   1.00
C684   C     0.19523   0.17933   0.97466   0.00000  Uiso   1.00
C685   C     0.19061   0.19052   0.51587   0.00000  Uiso   1.00
C686   C     0.17621   0.22990   0.53309   0.00000  Uiso   1.00
C687   C     0.15333   0.24982   0.51384   0.00000  Uiso   1.00
H688   H     0.01660   0.19375   0.71524   0.00000  Uiso   1.00
H689   H     0.30180   0.01615   0.53461   0.00000  Uiso   1.00
H690   H     0.09983   0.05730   0.84217   0.00000  Uiso   1.00
H691   H     0.13526   0.27454   0.61262   0.00000  Uiso   1.00
H692   H     0.31815   0.13999   0.78550   0.00000  Uiso   1.00
H693   H     0.20531   0.00180   0.71595   0.00000  Uiso   1.00
H694   H     0.16122   0.18395   0.59542   0.00000  Uiso   1.00
H695   H     0.23649   0.08855   0.59780   0.00000  Uiso   1.00
H696   H     0.26405   0.10522   0.95875   0.00000  Uiso   1.00
H697   H     0.10915   0.27927   0.97034   0.00000  Uiso   1.00
H698   H     0.10628   0.25312   0.90350   0.00000  Uiso   1.00
H699   H     0.17436   0.15132   0.90520   0.00000  Uiso   1.00
N700   N     0.11848   0.31718   0.54901   0.00000  Uiso   1.00
N701   N     0.26369   0.14858   0.87809   0.00000  Uiso   1.00
O702   O     0.16667   0.16667   0.75000   0.00000  Uiso   1.00
O703   O     0.15693   0.12393   0.66625   0.00000  Uiso   1.00
O704   O     0.12687   0.20646   0.83749   0.00000  Uiso   1.00
O705   O     0.21088   0.17493   0.65877   0.00000  Uiso   1.00
O706   O     0.17198   0.16135   0.83749   0.00000  Uiso   1.00
O707   O     0.25371   0.03389   0.98913   0.00000  Uiso   1.00
O708   O     0.31726   0.08341   0.99147   0.00000  Uiso   1.00
O709   O     0.28418   0.03836   0.55015   0.00000  Uiso   1.00
O710   O     0.07374   0.30123   0.78935   0.00000  Uiso   1.00
O711   O     0.12037   0.31387   0.83425   0.00000  Uiso   1.00
O712   O     0.08034   0.04106   0.82724   0.00000  Uiso   1.00
O713   O     0.17849   0.08101   0.77821   0.00000  Uiso   1.00
O714   O     0.23563   0.24268   0.57537   0.00000  Uiso   1.00
O715   O     0.20953   0.30390   0.56240   0.00000  Uiso   1.00
O716   O     0.15818   0.25937   0.61566   0.00000  Uiso   1.00
O717   O     0.14581   0.26136   0.76767   0.00000  Uiso   1.00
O718   O     0.07452   0.13251   0.73607   0.00000  Uiso   1.00
O719   O     0.26785   0.19179   0.71806   0.00000  Uiso   1.00
O720   O     0.06990   0.18960   0.77820   0.00000  Uiso   1.00
O721   O     0.25440   0.15277   0.76768   0.00000  Uiso   1.00
O722   O     0.13800   0.06903   0.73607   0.00000  Uiso   1.00
O723   O     0.20437   0.25527   0.71806   0.00000  Uiso   1.00
S724   S     0.27487   0.06400   0.51587   0.00000  Uiso   1.00
S725   S     0.10549   0.33237   0.80449   0.00000  Uiso   1.00
S726   S     0.19650   0.25971   0.57176   0.00000  Uiso   1.00
Zn727  Zn    0.19244   0.14090   0.78278   0.00000  Uiso   1.00
Zn728  Zn    0.13459   0.12378   0.72258   0.00000  Uiso   1.00
Zn729  Zn    0.21166   0.19664   0.71188   0.00000  Uiso   1.00
Zn730  Zn    0.12798   0.20535   0.78277   0.00000  Uiso   1.00
C731   C     0.38579   0.15985   0.75899   0.00000  Uiso   1.00
C732   C     0.55891   0.15075   0.95416   0.00000  Uiso   1.00
C733   C     0.57475   0.12687   0.97544   0.00000  Uiso   1.00
C734   C     0.61440   0.17359   0.74131   0.00000  Uiso   1.00
C735   C     0.56129   0.13032   0.51712   0.00000  Uiso   1.00
C736   C     0.53507   0.16223   0.53764   0.00000  Uiso   1.00
C737   C     0.57391   0.10331   0.53901   0.00000  Uiso   1.00
C738   C     0.55930   0.10783   0.58062   0.00000  Uiso   1.00
C739   C     0.51823   0.16322   0.57919   0.00000  Uiso   1.00
C740   C     0.66029   0.17637   0.73794   0.00000  Uiso   1.00
C741   C     0.34041   0.15755   0.76259   0.00000  Uiso   1.00
C742   C     0.45634   0.23680   0.91817   0.00000  Uiso   1.00
C743   C     0.51225   0.32189   0.73925   0.00000  Uiso   1.00
C744   C     0.48373   0.01332   0.76403   0.00000  Uiso   1.00
C745   C     0.49028   0.05626   0.75825   0.00000  Uiso   1.00
C746   C     0.50982   0.27766   0.74167   0.00000  Uiso   1.00
C747   C     0.52124   0.14574   0.64380   0.00000  Uiso   1.00
C748   C     0.47915   0.18800   0.85646   0.00000  Uiso   1.00
C749   C     0.47610   0.20144   0.89884   0.00000  Uiso   1.00
C750   C     0.53154   0.13750   0.60055   0.00000  Uiso   1.00
C751   C     0.45865   0.25203   0.95648   0.00000  Uiso   1.00
C752   C     0.46729   0.28729   0.53342   0.00000  Uiso   1.00
C753   C     0.49721   0.18106   0.91883   0.00000  Uiso   1.00
C754   C     0.57999   0.14955   0.91187   0.00000  Uiso   1.00
C755   C     0.50375   0.19808   0.95589   0.00000  Uiso   1.00
C756   C     0.48247   0.23327   0.97581   0.00000  Uiso   1.00
C757   C     0.52857   0.17933   0.97466   0.00000  Uiso   1.00
C758   C     0.52394   0.19052   0.51587   0.00000  Uiso   1.00
C759   C     0.50954   0.22990   0.53309   0.00000  Uiso   1.00
C760   C     0.48667   0.24982   0.51384   0.00000  Uiso   1.00
H761   H     0.34993   0.19375   0.71524   0.00000  Uiso   1.00
H762   H     0.63513   0.01615   0.53461   0.00000  Uiso   1.00
H763   H     0.43316   0.05730   0.84217   0.00000  Uiso   1.00
H764   H     0.46859   0.27454   0.61262   0.00000  Uiso   1.00
H765   H     0.65148   0.13999   0.78550   0.00000  Uiso   1.00
H766   H     0.53864   0.00180   0.71595   0.00000  Uiso   1.00
H767   H     0.49455   0.18395   0.59542   0.00000  Uiso   1.00
H768   H     0.56983   0.08855   0.59780   0.00000  Uiso   1.00
H769   H     0.59738   0.10522   0.95875   0.00000  Uiso   1.00
H770   H     0.44249   0.27927   0.97034   0.00000  Uiso   1.00
H771   H     0.43961   0.25312   0.90350   0.00000  Uiso   1.00
H772   H     0.50769   0.15132   0.90520   0.00000  Uiso   1.00
N773   N     0.45182   0.31718   0.54901   0.00000  Uiso   1.00
N774   N     0.59702   0.14858   0.87809   0.00000  Uiso   1.00
O775   O     0.50000   0.16667   0.75000   0.00000  Uiso   1.00
O776   O     0.49027   0.12393   0.66625   0.00000  Uiso   1.00
O777   O     0.46020   0.20646   0.83749   0.00000  Uiso   1.00
O778   O     0.54421   0.17493   0.65877   0.00000  Uiso   1.00
O779   O     0.50532   0.16135   0.83749   0.00000  Uiso   1.00
O780   O     0.58704   0.03389   0.98913   0.00000  Uiso   1.00
O781   O     0.65060   0.08341   0.99147   0.00000  Uiso   1.00
O782   O     0.61751   0.03836   0.55015   0.00000  Uiso   1.00
O783   O     0.40708   0.30123   0.78935   0.00000  Uiso   1.00
O784   O     0.45371   0.31387   0.83425   0.00000  Uiso   1.00
O785   O     0.41367   0.04106   0.82724   0.00000  Uiso   1.00
O786   O     0.51182   0.08101   0.77821   0.00000  Uiso   1.00
O787   O     0.56896   0.24268   0.57537   0.00000  Uiso   1.00
O788   O     0.54286   0.30390   0.56240   0.00000  Uiso   1.00
O789   O     0.49152   0.25937   0.61566   0.00000  Uiso   1.00
O790   O     0.47914   0.26136   0.76767   0.00000  Uiso   1.00
O791   O     0.40785   0.13251   0.73607   0.00000  Uiso   1.00
O792   O     0.60119   0.19179   0.71806   0.00000  Uiso   1.00
O793   O     0.40323   0.18960   0.77820   0.00000  Uiso   1.00
O794   O     0.58773   0.15277   0.76768   0.00000  Uiso   1.00
O795   O     0.47133   0.06903   0.73607   0.00000  Uiso   1.00
O796   O     0.53771   0.25527   0.71806   0.00000  Uiso   1.00
S797   S     0.60820   0.06400   0.51587   0.00000  Uiso   1.00
S798   S     0.43883   0.33237   0.80449   0.00000  Uiso   1.00
S799   S     0.52984   0.25971   0.57176   0.00000  Uiso   1.00
Zn800  Zn    0.52577   0.14090   0.78278   0.00000  Uiso   1.00
Zn801  Zn    0.46792   0.12378   0.72258   0.00000  Uiso   1.00
Zn802  Zn    0.54500   0.19664   0.71188   0.00000  Uiso   1.00
Zn803  Zn    0.46131   0.20535   0.78277   0.00000  Uiso   1.00
C804   C     0.71913   0.15985   0.75899   0.00000  Uiso   1.00
C805   C     0.89225   0.15075   0.95416   0.00000  Uiso   1.00
C806   C     0.90808   0.12687   0.97544   0.00000  Uiso   1.00
C807   C     0.94774   0.17359   0.74131   0.00000  Uiso   1.00
C808   C     0.89463   0.13032   0.51712   0.00000  Uiso   1.00
C809   C     0.86840   0.16223   0.53764   0.00000  Uiso   1.00
C810   C     0.90724   0.10331   0.53901   0.00000  Uiso   1.00
C811   C     0.89264   0.10783   0.58062   0.00000  Uiso   1.00
C812   C     0.85157   0.16322   0.57919   0.00000  Uiso   1.00
C813   C     0.99363   0.17637   0.73794   0.00000  Uiso   1.00
C814   C     0.67375   0.15755   0.76259   0.00000  Uiso   1.00
C815   C     0.78968   0.23680   0.91817   0.00000  Uiso   1.00
C816   C     0.84558   0.32189   0.73925   0.00000  Uiso   1.00
C817   C     0.81706   0.01332   0.76403   0.00000  Uiso   1.00
C818   C     0.82361   0.05626   0.75825   0.00000  Uiso   1.00
C819   C     0.84315   0.27766   0.74167   0.00000  Uiso   1.00
C820   C     0.85458   0.14574   0.64380   0.00000  Uiso   1.00
C821   C     0.81248   0.18800   0.85646   0.00000  Uiso   1.00
C822   C     0.80944   0.20144   0.89884   0.00000  Uiso   1.00
C823   C     0.86487   0.13750   0.60055   0.00000  Uiso   1.00
C824   C     0.79198   0.25203   0.95648   0.00000  Uiso   1.00
C825   C     0.80062   0.28729   0.53342   0.00000  Uiso   1.00
C826   C     0.83054   0.18106   0.91883   0.00000  Uiso   1.00
C827   C     0.91332   0.14955   0.91187   0.00000  Uiso   1.00
C828   C     0.83709   0.19808   0.95589   0.00000  Uiso   1.00
C829   C     0.81580   0.23327   0.97581   0.00000  Uiso   1.00
C830   C     0.86190   0.17933   0.97466   0.00000  Uiso   1.00
C831   C     0.85727   0.19052   0.51587   0.00000  Uiso   1.00
C832   C     0.84287   0.22990   0.53309   0.00000  Uiso   1.00
C833   C     0.82000   0.24982   0.51384   0.00000  Uiso   1.00
H834   H     0.68326   0.19375   0.71524   0.00000  Uiso   1.00
H835   H     0.96847   0.01615   0.53461   0.00000  Uiso   1.00
H836   H     0.76650   0.05730   0.84217   0.00000  Uiso   1.00
H837   H     0.80192   0.27454   0.61262   0.00000  Uiso   1.00
H838   H     0.98481   0.13999   0.78550   0.00000  Uiso   1.00
H839   H     0.87197   0.00180   0.71595   0.00000  Uiso   1.00
H840   H     0.82789   0.18395   0.59542   0.00000  Uiso   1.00
H841   H     0.90316   0.08855   0.59780   0.00000  Uiso   1.00
H842   H     0.93071   0.10522   0.95875   0.00000  Uiso   1.00
H843   H     0.77582   0.27927   0.97034   0.00000  Uiso   1.00
H844   H     0.77295   0.25312   0.90350   0.00000  Uiso   1.00
H845   H     0.84103   0.15132   0.90520   0.00000  Uiso   1.00
N846   N     0.78515   0.31718   0.54901   0.00000  Uiso   1.00
N847   N     0.93035   0.14858   0.87809   0.00000  Uiso   1.00
O848   O     0.83333   0.16667   0.75000   0.00000  Uiso   1.00
O849   O     0.82360   0.12393   0.66625   0.00000  Uiso   1.00
O850   O     0.79354   0.20646   0.83749   0.00000  Uiso   1.00
O851   O     0.87755   0.17493   0.65877   0.00000  Uiso   1.00
O852   O     0.83865   0.16135   0.83749   0.00000  Uiso   1.00
O853   O     0.92037   0.03389   0.98913   0.00000  Uiso   1.00
O854   O     0.98393   0.08341   0.99147   0.00000  Uiso   1.00
O855   O     0.95084   0.03836   0.55015   0.00000  Uiso   1.00
O856   O     0.74041   0.30123   0.78935   0.00000  Uiso   1.00
O857   O     0.78704   0.31387   0.83425   0.00000  Uiso   1.00
O858   O     0.74700   0.04106   0.82724   0.00000  Uiso   1.00
O859   O     0.84515   0.08101   0.77821   0.00000  Uiso   1.00
O860   O     0.90229   0.24268   0.57537   0.00000  Uiso   1.00
O861   O     0.87620   0.30390   0.56240   0.00000  Uiso   1.00
O862   O     0.82485   0.25937   0.61566   0.00000  Uiso   1.00
O863   O     0.81247   0.26136   0.76767   0.00000  Uiso   1.00
O864   O     0.74119   0.13251   0.73607   0.00000  Uiso   1.00
O865   O     0.93452   0.19179   0.71806   0.00000  Uiso   1.00
O866   O     0.73656   0.18960   0.77820   0.00000  Uiso   1.00
O867   O     0.92106   0.15277   0.76768   0.00000  Uiso   1.00
O868   O     0.80467   0.06903   0.73607   0.00000  Uiso   1.00
O869   O     0.87104   0.25527   0.71806   0.00000  Uiso   1.00
S870   S     0.94154   0.06400   0.51587   0.00000  Uiso   1.00
S871   S     0.77216   0.33237   0.80449   0.00000  Uiso   1.00
S872   S     0.86317   0.25971   0.57176   0.00000  Uiso   1.00
Zn873  Zn    0.85910   0.14090   0.78278   0.00000  Uiso   1.00
Zn874  Zn    0.80125   0.12378   0.72258   0.00000  Uiso   1.00
Zn875  Zn    0.87833   0.19664   0.71188   0.00000  Uiso   1.00
Zn876  Zn    0.79465   0.20535   0.78277   0.00000  Uiso   1.00
C877   C     0.05246   0.49318   0.75899   0.00000  Uiso   1.00
C878   C     0.22558   0.48408   0.95416   0.00000  Uiso   1.00
C879   C     0.24142   0.46020   0.97544   0.00000  Uiso   1.00
C880   C     0.28107   0.50692   0.74131   0.00000  Uiso   1.00
C881   C     0.22796   0.46365   0.51712   0.00000  Uiso   1.00
C882   C     0.20173   0.49556   0.53764   0.00000  Uiso   1.00
C883   C     0.24058   0.43664   0.53901   0.00000  Uiso   1.00
C884   C     0.22597   0.44116   0.58062   0.00000  Uiso   1.00
C885   C     0.18490   0.49656   0.57919   0.00000  Uiso   1.00
C886   C     0.32696   0.50971   0.73794   0.00000  Uiso   1.00
C887   C     0.00708   0.49088   0.76259   0.00000  Uiso   1.00
C888   C     0.12301   0.57014   0.91817   0.00000  Uiso   1.00
C889   C     0.17891   0.65522   0.73925   0.00000  Uiso   1.00
C890   C     0.15040   0.34666   0.76403   0.00000  Uiso   1.00
C891   C     0.15695   0.38960   0.75825   0.00000  Uiso   1.00
C892   C     0.17648   0.61099   0.74167   0.00000  Uiso   1.00
C893   C     0.18791   0.47908   0.64380   0.00000  Uiso   1.00
C894   C     0.14581   0.52134   0.85646   0.00000  Uiso   1.00
C895   C     0.14277   0.53477   0.89884   0.00000  Uiso   1.00
C896   C     0.19820   0.47083   0.60055   0.00000  Uiso   1.00
C897   C     0.12532   0.58537   0.95648   0.00000  Uiso   1.00
C898   C     0.13395   0.62062   0.53342   0.00000  Uiso   1.00
C899   C     0.16388   0.51439   0.91883   0.00000  Uiso   1.00
C900   C     0.24665   0.48288   0.91187   0.00000  Uiso   1.00
C901   C     0.17042   0.53141   0.95589   0.00000  Uiso   1.00
C902   C     0.14913   0.56660   0.97581   0.00000  Uiso   1.00
C903   C     0.19523   0.51266   0.97466   0.00000  Uiso   1.00
C904   C     0.19061   0.52386   0.51587   0.00000  Uiso   1.00
C905   C     0.17621   0.56324   0.53309   0.00000  Uiso   1.00
C906   C     0.15333   0.58315   0.51384   0.00000  Uiso   1.00
H907   H     0.01660   0.52709   0.71524   0.00000  Uiso   1.00
H908   H     0.30180   0.34948   0.53461   0.00000  Uiso   1.00
H909   H     0.09983   0.39063   0.84217   0.00000  Uiso   1.00
H910   H     0.13526   0.60787   0.61262   0.00000  Uiso   1.00
H911   H     0.31815   0.47332   0.78550   0.00000  Uiso   1.00
H912   H     0.20531   0.33513   0.71595   0.00000  Uiso   1.00
H913   H     0.16122   0.51728   0.59542   0.00000  Uiso   1.00
H914   H     0.23649   0.42188   0.59780   0.00000  Uiso   1.00
H915   H     0.26405   0.43855   0.95875   0.00000  Uiso   1.00
H916   H     0.10915   0.61260   0.97034   0.00000  Uiso   1.00
H917   H     0.10628   0.58645   0.90350   0.00000  Uiso   1.00
H918   H     0.17436   0.48465   0.90520   0.00000  Uiso   1.00
N919   N     0.11848   0.65051   0.54901   0.00000  Uiso   1.00
N920   N     0.26369   0.48191   0.87809   0.00000  Uiso   1.00
O921   O     0.16667   0.50000   0.75000   0.00000  Uiso   1.00
O922   O     0.15693   0.45726   0.66625   0.00000  Uiso   1.00
O923   O     0.12687   0.53979   0.83749   0.00000  Uiso   1.00
O924   O     0.21088   0.50826   0.65877   0.00000  Uiso   1.00
O925   O     0.17198   0.49468   0.83749   0.00000  Uiso   1.00
O926   O     0.25371   0.36722   0.98913   0.00000  Uiso   1.00
O927   O     0.31726   0.41674   0.99147   0.00000  Uiso   1.00
O928   O     0.28418   0.37170   0.55015   0.00000  Uiso   1.00
O929   O     0.07374   0.63456   0.78935   0.00000  Uiso   1.00
O930   O     0.12037   0.64720   0.83425   0.00000  Uiso   1.00
O931   O     0.08034   0.37440   0.82724   0.00000  Uiso   1.00
O932   O     0.17849   0.41434   0.77821   0.00000  Uiso   1.00
O933   O     0.23563   0.57601   0.57537   0.00000  Uiso   1.00
O934   O     0.20953   0.63723   0.56240   0.00000  Uiso   1.00
O935   O     0.15818   0.59270   0.61566   0.00000  Uiso   1.00
O936   O     0.14581   0.59469   0.76767   0.00000  Uiso   1.00
O937   O     0.07452   0.46584   0.73607   0.00000  Uiso   1.00
O938   O     0.26785   0.52512   0.71806   0.00000  Uiso   1.00
O939   O     0.06990   0.52293   0.77820   0.00000  Uiso   1.00
O940   O     0.25440   0.48610   0.76768   0.00000  Uiso   1.00
O941   O     0.13800   0.40236   0.73607   0.00000  Uiso   1.00
O942   O     0.20437   0.58860   0.71806   0.00000  Uiso   1.00
S943   S     0.27487   0.39733   0.51587   0.00000  Uiso   1.00
S944   S     0.10549   0.66571   0.80449   0.00000  Uiso   1.00
S945   S     0.19650   0.59305   0.57176   0.00000  Uiso   1.00
Zn946  Zn    0.19244   0.47423   0.78278   0.00000  Uiso   1.00
Zn947  Zn    0.13459   0.45711   0.72258   0.00000  Uiso   1.00
Zn948  Zn    0.21166   0.52997   0.71188   0.00000  Uiso   1.00
Zn949  Zn    0.12798   0.53868   0.78277   0.00000  Uiso   1.00
C950   C     0.38579   0.49318   0.75899   0.00000  Uiso   1.00
C951   C     0.55891   0.48408   0.95416   0.00000  Uiso   1.00
C952   C     0.57475   0.46020   0.97544   0.00000  Uiso   1.00
C953   C     0.61440   0.50692   0.74131   0.00000  Uiso   1.00
C954   C     0.56129   0.46365   0.51712   0.00000  Uiso   1.00
C955   C     0.53507   0.49556   0.53764   0.00000  Uiso   1.00
C956   C     0.57391   0.43664   0.53901   0.00000  Uiso   1.00
C957   C     0.55930   0.44116   0.58062   0.00000  Uiso   1.00
C958   C     0.51823   0.49656   0.57919   0.00000  Uiso   1.00
C959   C     0.66029   0.50971   0.73794   0.00000  Uiso   1.00
C960   C     0.34041   0.49088   0.76259   0.00000  Uiso   1.00
C961   C     0.45634   0.57014   0.91817   0.00000  Uiso   1.00
C962   C     0.51225   0.65522   0.73925   0.00000  Uiso   1.00
C963   C     0.48373   0.34666   0.76403   0.00000  Uiso   1.00
C964   C     0.49028   0.38960   0.75825   0.00000  Uiso   1.00
C965   C     0.50982   0.61099   0.74167   0.00000  Uiso   1.00
C966   C     0.52124   0.47908   0.64380   0.00000  Uiso   1.00
C967   C     0.47915   0.52134   0.85646   0.00000  Uiso   1.00
C968   C     0.47610   0.53477   0.89884   0.00000  Uiso   1.00
C969   C     0.53154   0.47083   0.60055   0.00000  Uiso   1.00
C970   C     0.45865   0.58537   0.95648   0.00000  Uiso   1.00
C971   C     0.46729   0.62062   0.53342   0.00000  Uiso   1.00
C972   C     0.49721   0.51439   0.91883   0.00000  Uiso   1.00
C973   C     0.57999   0.48288   0.91187   0.00000  Uiso   1.00
C974   C     0.50375   0.53141   0.95589   0.00000  Uiso   1.00
C975   C     0.48247   0.56660   0.97581   0.00000  Uiso   1.00
C976   C     0.52857   0.51266   0.97466   0.00000  Uiso   1.00
C977   C     0.52394   0.52386   0.51587   0.00000  Uiso   1.00
C978   C     0.50954   0.56324   0.53309   0.00000  Uiso   1.00
C979   C     0.48667   0.58315   0.51384   0.00000  Uiso   1.00
H980   H     0.34993   0.52709   0.71524   0.00000  Uiso   1.00
H981   H     0.63513   0.34948   0.53461   0.00000  Uiso   1.00
H982   H     0.43316   0.39063   0.84217   0.00000  Uiso   1.00
H983   H     0.46859   0.60787   0.61262   0.00000  Uiso   1.00
H984   H     0.65148   0.47332   0.78550   0.00000  Uiso   1.00
H985   H     0.53864   0.33513   0.71595   0.00000  Uiso   1.00
H986   H     0.49455   0.51728   0.59542   0.00000  Uiso   1.00
H987   H     0.56983   0.42188   0.59780   0.00000  Uiso   1.00
H988   H     0.59738   0.43855   0.95875   0.00000  Uiso   1.00
H989   H     0.44249   0.61260   0.97034   0.00000  Uiso   1.00
H990   H     0.43961   0.58645   0.90350   0.00000  Uiso   1.00
H991   H     0.50769   0.48465   0.90520   0.00000  Uiso   1.00
N992   N     0.45182   0.65051   0.54901   0.00000  Uiso   1.00
N993   N     0.59702   0.48191   0.87809   0.00000  Uiso   1.00
O994   O     0.50000   0.50000   0.75000   0.00000  Uiso   1.00
O995   O     0.49027   0.45726   0.66625   0.00000  Uiso   1.00
O996   O     0.46020   0.53979   0.83749   0.00000  Uiso   1.00
O997   O     0.54421   0.50826   0.65877   0.00000  Uiso   1.00
O998   O     0.50532   0.49468   0.83749   0.00000  Uiso   1.00
O999   O     0.58704   0.36722   0.98913   0.00000  Uiso   1.00
O1000  O     0.65060   0.41674   0.99147   0.00000  Uiso   1.00
O1001  O     0.61751   0.37170   0.55015   0.00000  Uiso   1.00
O1002  O     0.40708   0.63456   0.78935   0.00000  Uiso   1.00
O1003  O     0.45371   0.64720   0.83425   0.00000  Uiso   1.00
O1004  O     0.41367   0.37440   0.82724   0.00000  Uiso   1.00
O1005  O     0.51182   0.41434   0.77821   0.00000  Uiso   1.00
O1006  O     0.56896   0.57601   0.57537   0.00000  Uiso   1.00
O1007  O     0.54286   0.63723   0.56240   0.00000  Uiso   1.00
O1008  O     0.49152   0.59270   0.61566   0.00000  Uiso   1.00
O1009  O     0.47914   0.59469   0.76767   0.00000  Uiso   1.00
O1010  O     0.40785   0.46584   0.73607   0.00000  Uiso   1.00
O1011  O     0.60119   0.52512   0.71806   0.00000  Uiso   1.00
O1012  O     0.40323   0.52293   0.77820   0.00000  Uiso   1.00
O1013  O     0.58773   0.48610   0.76768   0.00000  Uiso   1.00
O1014  O     0.47133   0.40236   0.73607   0.00000  Uiso   1.00
O1015  O     0.53771   0.58860   0.71806   0.00000  Uiso   1.00
S1016  S     0.60820   0.39733   0.51587   0.00000  Uiso   1.00
S1017  S     0.43883   0.66571   0.80449   0.00000  Uiso   1.00
S1018  S     0.52984   0.59305   0.57176   0.00000  Uiso   1.00
Zn1019 Zn    0.52577   0.47423   0.78278   0.00000  Uiso   1.00
Zn1020 Zn    0.46792   0.45711   0.72258   0.00000  Uiso   1.00
Zn1021 Zn    0.54500   0.52997   0.71188   0.00000  Uiso   1.00
Zn1022 Zn    0.46131   0.53868   0.78277   0.00000  Uiso   1.00
C1023  C     0.71913   0.49318   0.75899   0.00000  Uiso   1.00
C1024  C     0.89225   0.48408   0.95416   0.00000  Uiso   1.00
C1025  C     0.90808   0.46020   0.97544   0.00000  Uiso   1.00
C1026  C     0.94774   0.50692   0.74131   0.00000  Uiso   1.00
C1027  C     0.89463   0.46365   0.51712   0.00000  Uiso   1.00
C1028  C     0.86840   0.49556   0.53764   0.00000  Uiso   1.00
C1029  C     0.90724   0.43664   0.53901   0.00000  Uiso   1.00
C1030  C     0.89264   0.44116   0.58062   0.00000  Uiso   1.00
C1031  C     0.85157   0.49656   0.57919   0.00000  Uiso   1.00
C1032  C     0.99363   0.50971   0.73794   0.00000  Uiso   1.00
C1033  C     0.67375   0.49088   0.76259   0.00000  Uiso   1.00
C1034  C     0.78968   0.57014   0.91817   0.00000  Uiso   1.00
C1035  C     0.84558   0.65522   0.73925   0.00000  Uiso   1.00
C1036  C     0.81706   0.34666   0.76403   0.00000  Uiso   1.00
C1037  C     0.82361   0.38960   0.75825   0.00000  Uiso   1.00
C1038  C     0.84315   0.61099   0.74167   0.00000  Uiso   1.00
C1039  C     0.85458   0.47908   0.64380   0.00000  Uiso   1.00
C1040  C     0.81248   0.52134   0.85646   0.00000  Uiso   1.00
C1041  C     0.80944   0.53477   0.89884   0.00000  Uiso   1.00
C1042  C     0.86487   0.47083   0.60055   0.00000  Uiso   1.00
C1043  C     0.79198   0.58537   0.95648   0.00000  Uiso   1.00
C1044  C     0.80062   0.62062   0.53342   0.00000  Uiso   1.00
C1045  C     0.83054   0.51439   0.91883   0.00000  Uiso   1.00
C1046  C     0.91332   0.48288   0.91187   0.00000  Uiso   1.00
C1047  C     0.83709   0.53141   0.95589   0.00000  Uiso   1.00
C1048  C     0.81580   0.56660   0.97581   0.00000  Uiso   1.00
C1049  C     0.86190   0.51266   0.97466   0.00000  Uiso   1.00
C1050  C     0.85727   0.52386   0.51587   0.00000  Uiso   1.00
C1051  C     0.84287   0.56324   0.53309   0.00000  Uiso   1.00
C1052  C     0.82000   0.58315   0.51384   0.00000  Uiso   1.00
H1053  H     0.68326   0.52709   0.71524   0.00000  Uiso   1.00
H1054  H     0.96847   0.34948   0.53461   0.00000  Uiso   1.00
H1055  H     0.76650   0.39063   0.84217   0.00000  Uiso   1.00
H1056  H     0.80192   0.60787   0.61262   0.00000  Uiso   1.00
H1057  H     0.98481   0.47332   0.78550   0.00000  Uiso   1.00
H1058  H     0.87197   0.33513   0.71595   0.00000  Uiso   1.00
H1059  H     0.82789   0.51728   0.59542   0.00000  Uiso   1.00
H1060  H     0.90316   0.42188   0.59780   0.00000  Uiso   1.00
H1061  H     0.93071   0.43855   0.95875   0.00000  Uiso   1.00
H1062  H     0.77582   0.61260   0.97034   0.00000  Uiso   1.00
H1063  H     0.77295   0.58645   0.90350   0.00000  Uiso   1.00
H1064  H     0.84103   0.48465   0.90520   0.00000  Uiso   1.00
N1065  N     0.78515   0.65051   0.54901   0.00000  Uiso   1.00
N1066  N     0.93035   0.48191   0.87809   0.00000  Uiso   1.00
O1067  O     0.83333   0.50000   0.75000   0.00000  Uiso   1.00
O1068  O     0.82360   0.45726   0.66625   0.00000  Uiso   1.00
O1069  O     0.79354   0.53979   0.83749   0.00000  Uiso   1.00
O1070  O     0.87755   0.50826   0.65877   0.00000  Uiso   1.00
O1071  O     0.83865   0.49468   0.83749   0.00000  Uiso   1.00
O1072  O     0.92037   0.36722   0.98913   0.00000  Uiso   1.00
O1073  O     0.98393   0.41674   0.99147   0.00000  Uiso   1.00
O1074  O     0.95084   0.37170   0.55015   0.00000  Uiso   1.00
O1075  O     0.74041   0.63456   0.78935   0.00000  Uiso   1.00
O1076  O     0.78704   0.64720   0.83425   0.00000  Uiso   1.00
O1077  O     0.74700   0.37440   0.82724   0.00000  Uiso   1.00
O1078  O     0.84515   0.41434   0.77821   0.00000  Uiso   1.00
O1079  O     0.90229   0.57601   0.57537   0.00000  Uiso   1.00
O1080  O     0.87620   0.63723   0.56240   0.00000  Uiso   1.00
O1081  O     0.82485   0.59270   0.61566   0.00000  Uiso   1.00
O1082  O     0.81247   0.59469   0.76767   0.00000  Uiso   1.00
O1083  O     0.74119   0.46584   0.73607   0.00000  Uiso   1.00
O1084  O     0.93452   0.52512   0.71806   0.00000  Uiso   1.00
O1085  O     0.73656   0.52293   0.77820   0.00000  Uiso   1.00
O1086  O     0.92106   0.48610   0.76768   0.00000  Uiso   1.00
O1087  O     0.80467   0.40236   0.73607   0.00000  Uiso   1.00
O1088  O     0.87104   0.58860   0.71806   0.00000  Uiso   1.00
S1089  S     0.94154   0.39733   0.51587   0.00000  Uiso   1.00
S1090  S     0.77216   0.66571   0.80449   0.00000  Uiso   1.00
S1091  S     0.86317   0.59305   0.57176   0.00000  Uiso   1.00
Zn1092 Zn    0.85910   0.47423   0.78278   0.00000  Uiso   1.00
Zn1093 Zn    0.80125   0.45711   0.72258   0.00000  Uiso   1.00
Zn1094 Zn    0.87833   0.52997   0.71188   0.00000  Uiso   1.00
Zn1095 Zn    0.79465   0.53868   0.78277   0.00000  Uiso   1.00
C1096  C     0.05246   0.82652   0.75899   0.00000  Uiso   1.00
C1097  C     0.22558   0.81742   0.95416   0.00000  Uiso   1.00
C1098  C     0.24142   0.79353   0.97544   0.00000  Uiso   1.00
C1099  C     0.28107   0.84025   0.74131   0.00000  Uiso   1.00
C1100  C     0.22796   0.79698   0.51712   0.00000  Uiso   1.00
C1101  C     0.20173   0.82889   0.53764   0.00000  Uiso   1.00
C1102  C     0.24058   0.76997   0.53901   0.00000  Uiso   1.00
C1103  C     0.22597   0.77450   0.58062   0.00000  Uiso   1.00
C1104  C     0.18490   0.82989   0.57919   0.00000  Uiso   1.00
C1105  C     0.32696   0.84304   0.73794   0.00000  Uiso   1.00
C1106  C     0.00708   0.82421   0.76259   0.00000  Uiso   1.00
C1107  C     0.12301   0.90347   0.91817   0.00000  Uiso   1.00
C1108  C     0.17891   0.98855   0.73925   0.00000  Uiso   1.00
C1109  C     0.15040   0.67999   0.76403   0.00000  Uiso   1.00
C1110  C     0.15695   0.72293   0.75825   0.00000  Uiso   1.00
C1111  C     0.17648   0.94432   0.74167   0.00000  Uiso   1.00
C1112  C     0.18791   0.81241   0.64380   0.00000  Uiso   1.00
C1113  C     0.14581   0.85467   0.85646   0.00000  Uiso   1.00
C1114  C     0.14277   0.86811   0.89884   0.00000  Uiso   1.00
C1115  C     0.19820   0.80417   0.60055   0.00000  Uiso   1.00
C1116  C     0.12532   0.91870   0.95648   0.00000  Uiso   1.00
C1117  C     0.13395   0.95396   0.53342   0.00000  Uiso   1.00
C1118  C     0.16388   0.84772   0.91883   0.00000  Uiso   1.00
C1119  C     0.24665   0.81621   0.91187   0.00000  Uiso   1.00
C1120  C     0.17042   0.86474   0.95589   0.00000  Uiso   1.00
C1121  C     0.14913   0.89994   0.97581   0.00000  Uiso   1.00
C1122  C     0.19523   0.84599   0.97466   0.00000  Uiso   1.00
C1123  C     0.19061   0.85719   0.51587   0.00000  Uiso   1.00
C1124  C     0.17621   0.89657   0.53309   0.00000  Uiso   1.00
C1125  C     0.15333   0.91649   0.51384   0.00000  Uiso   1.00
H1126  H     0.01660   0.86042   0.71524   0.00000  Uiso   1.00
H1127  H     0.30180   0.68281   0.53461   0.00000  Uiso   1.00
H1128  H     0.09983   0.72397   0.84217   0.00000  Uiso   1.00
H1129  H     0.13526   0.94121   0.61262   0.00000  Uiso   1.00
H1130  H     0.31815   0.80666   0.78550   0.00000  Uiso   1.00
H1131  H     0.20531   0.66846   0.71595   0.00000  Uiso   1.00
H1132  H     0.16122   0.85061   0.59542   0.00000  Uiso   1.00
H1133  H     0.23649   0.75521   0.59780   0.00000  Uiso   1.00
H1134  H     0.26405   0.77188   0.95875   0.00000  Uiso   1.00
H1135  H     0.10915   0.94594   0.97034   0.00000  Uiso   1.00
H1136  H     0.10628   0.91979   0.90350   0.00000  Uiso   1.00
H1137  H     0.17436   0.81799   0.90520   0.00000  Uiso   1.00
N1138  N     0.11848   0.98384   0.54901   0.00000  Uiso   1.00
N1139  N     0.26369   0.81525   0.87809   0.00000  Uiso   1.00
O1140  O     0.16667   0.83333   0.75000   0.00000  Uiso   1.00
O1141  O     0.15693   0.79060   0.66625   0.00000  Uiso   1.00
O1142  O     0.12687   0.87313   0.83749   0.00000  Uiso   1.00
O1143  O     0.21088   0.84159   0.65877   0.00000  Uiso   1.00
O1144  O     0.17198   0.82802   0.83749   0.00000  Uiso   1.00
O1145  O     0.25371   0.70055   0.98913   0.00000  Uiso   1.00
O1146  O     0.31726   0.75008   0.99147   0.00000  Uiso   1.00
O1147  O     0.28418   0.70503   0.55015   0.00000  Uiso   1.00
O1148  O     0.07374   0.96789   0.78935   0.00000  Uiso   1.00
O1149  O     0.12037   0.98053   0.83425   0.00000  Uiso   1.00
O1150  O     0.08034   0.70773   0.82724   0.00000  Uiso   1.00
O1151  O     0.17849   0.74768   0.77821   0.00000  Uiso   1.00
O1152  O     0.23563   0.90935   0.57537   0.00000  Uiso   1.00
O1153  O     0.20953   0.97057   0.56240   0.00000  Uiso   1.00
O1154  O     0.15818   0.92604   0.61566   0.00000  Uiso   1.00
O1155  O     0.14581   0.92803   0.76767   0.00000  Uiso   1.00
O1156  O     0.07452   0.79917   0.73607   0.00000  Uiso   1.00
O1157  O     0.26785   0.85845   0.71806   0.00000  Uiso   1.00
O1158  O     0.06990   0.85627   0.77820   0.00000  Uiso   1.00
O1159  O     0.25440   0.81944   0.76768   0.00000  Uiso   1.00
O1160  O     0.13800   0.73570   0.73607   0.00000  Uiso   1.00
O1161  O     0.20437   0.92193   0.71806   0.00000  Uiso   1.00
S1162  S     0.27487   0.73067   0.51587   0.00000  Uiso   1.00
S1163  S     0.10549   0.99904   0.80449   0.00000  Uiso   1.00
S1164  S     0.19650   0.92638   0.57176   0.00000  Uiso   1.00
Zn1165 Zn    0.19244   0.80756   0.78278   0.00000  Uiso   1.00
Zn1166 Zn    0.13459   0.79044   0.72258   0.00000  Uiso   1.00
Zn1167 Zn    0.21166   0.86331   0.71188   0.00000  Uiso   1.00
Zn1168 Zn    0.12798   0.87202   0.78277   0.00000  Uiso   1.00
C1169  C     0.38579   0.82652   0.75899   0.00000  Uiso   1.00
C1170  C     0.55891   0.81742   0.95416   0.00000  Uiso   1.00
C1171  C     0.57475   0.79353   0.97544   0.00000  Uiso   1.00
C1172  C     0.61440   0.84025   0.74131   0.00000  Uiso   1.00
C1173  C     0.56129   0.79698   0.51712   0.00000  Uiso   1.00
C1174  C     0.53507   0.82889   0.53764   0.00000  Uiso   1.00
C1175  C     0.57391   0.76997   0.53901   0.00000  Uiso   1.00
C1176  C     0.55930   0.77450   0.58062   0.00000  Uiso   1.00
C1177  C     0.51823   0.82989   0.57919   0.00000  Uiso   1.00
C1178  C     0.66029   0.84304   0.73794   0.00000  Uiso   1.00
C1179  C     0.34041   0.82421   0.76259   0.00000  Uiso   1.00
C1180  C     0.45634   0.90347   0.91817   0.00000  Uiso   1.00
C1181  C     0.51225   0.98855   0.73925   0.00000  Uiso   1.00
C1182  C     0.48373   0.67999   0.76403   0.00000  Uiso   1.00
C1183  C     0.49028   0.72293   0.75825   0.00000  Uiso   1.00
C1184  C     0.50982   0.94432   0.74167   0.00000  Uiso   1.00
C1185  C     0.52124   0.81241   0.64380   0.00000  Uiso   1.00
C1186  C     0.47915   0.85467   0.85646   0.00000  Uiso   1.00
C1187  C     0.47610   0.86811   0.89884   0.00000  Uiso   1.00
C1188  C     0.53154   0.80417   0.60055   0.00000  Uiso   1.00
C1189  C     0.45865   0.91870   0.95648   0.00000  Uiso   1.00
C1190  C     0.46729   0.95396   0.53342   0.00000  Uiso   1.00
C1191  C     0.49721   0.84772   0.91883   0.00000  Uiso   1.00
C1192  C     0.57999   0.81621   0.91187   0.00000  Uiso   1.00
C1193  C     0.50375   0.86474   0.95589   0.00000  Uiso   1.00
C1194  C     0.48247   0.89994   0.97581   0.00000  Uiso   1.00
C1195  C     0.52857   0.84599   0.97466   0.00000  Uiso   1.00
C1196  C     0.52394   0.85719   0.51587   0.00000  Uiso   1.00
C1197  C     0.50954   0.89657   0.53309   0.00000  Uiso   1.00
C1198  C     0.48667   0.91649   0.51384   0.00000  Uiso   1.00
H1199  H     0.34993   0.86042   0.71524   0.00000  Uiso   1.00
H1200  H     0.63513   0.68281   0.53461   0.00000  Uiso   1.00
H1201  H     0.43316   0.72397   0.84217   0.00000  Uiso   1.00
H1202  H     0.46859   0.94121   0.61262   0.00000  Uiso   1.00
H1203  H     0.65148   0.80666   0.78550   0.00000  Uiso   1.00
H1204  H     0.53864   0.66846   0.71595   0.00000  Uiso   1.00
H1205  H     0.49455   0.85061   0.59542   0.00000  Uiso   1.00
H1206  H     0.56983   0.75521   0.59780   0.00000  Uiso   1.00
H1207  H     0.59738   0.77188   0.95875   0.00000  Uiso   1.00
H1208  H     0.44249   0.94594   0.97034   0.00000  Uiso   1.00
H1209  H     0.43961   0.91979   0.90350   0.00000  Uiso   1.00
H1210  H     0.50769   0.81799   0.90520   0.00000  Uiso   1.00
N1211  N     0.45182   0.98384   0.54901   0.00000  Uiso   1.00
N1212  N     0.59702   0.81525   0.87809   0.00000  Uiso   1.00
O1213  O     0.50000   0.83333   0.75000   0.00000  Uiso   1.00
O1214  O     0.49027   0.79060   0.66625   0.00000  Uiso   1.00
O1215  O     0.46020   0.87313   0.83749   0.00000  Uiso   1.00
O1216  O     0.54421   0.84159   0.65877   0.00000  Uiso   1.00
O1217  O     0.50532   0.82802   0.83749   0.00000  Uiso   1.00
O1218  O     0.58704   0.70055   0.98913   0.00000  Uiso   1.00
O1219  O     0.65060   0.75008   0.99147   0.00000  Uiso   1.00
O1220  O     0.61751   0.70503   0.55015   0.00000  Uiso   1.00
O1221  O     0.40708   0.96789   0.78935   0.00000  Uiso   1.00
O1222  O     0.45371   0.98053   0.83425   0.00000  Uiso   1.00
O1223  O     0.41367   0.70773   0.82724   0.00000  Uiso   1.00
O1224  O     0.51182   0.74768   0.77821   0.00000  Uiso   1.00
O1225  O     0.56896   0.90935   0.57537   0.00000  Uiso   1.00
O1226  O     0.54286   0.97057   0.56240   0.00000  Uiso   1.00
O1227  O     0.49152   0.92604   0.61566   0.00000  Uiso   1.00
O1228  O     0.47914   0.92803   0.76767   0.00000  Uiso   1.00
O1229  O     0.40785   0.79917   0.73607   0.00000  Uiso   1.00
O1230  O     0.60119   0.85845   0.71806   0.00000  Uiso   1.00
O1231  O     0.40323   0.85627   0.77820   0.00000  Uiso   1.00
O1232  O     0.58773   0.81944   0.76768   0.00000  Uiso   1.00
O1233  O     0.47133   0.73570   0.73607   0.00000  Uiso   1.00
O1234  O     0.53771   0.92193   0.71806   0.00000  Uiso   1.00
S1235  S     0.60820   0.73067   0.51587   0.00000  Uiso   1.00
S1236  S     0.43883   0.99904   0.80449   0.00000  Uiso   1.00
S1237  S     0.52984   0.92638   0.57176   0.00000  Uiso   1.00
Zn1238 Zn    0.52577   0.80756   0.78278   0.00000  Uiso   1.00
Zn1239 Zn    0.46792   0.79044   0.72258   0.00000  Uiso   1.00
Zn1240 Zn    0.54500   0.86331   0.71188   0.00000  Uiso   1.00
Zn1241 Zn    0.46131   0.87202   0.78277   0.00000  Uiso   1.00
C1242  C     0.71913   0.82652   0.75899   0.00000  Uiso   1.00
C1243  C     0.89225   0.81742   0.95416   0.00000  Uiso   1.00
C1244  C     0.90808   0.79353   0.97544   0.00000  Uiso   1.00
C1245  C     0.94774   0.84025   0.74131   0.00000  Uiso   1.00
C1246  C     0.89463   0.79698   0.51712   0.00000  Uiso   1.00
C1247  C     0.86840   0.82889   0.53764   0.00000  Uiso   1.00
C1248  C     0.90724   0.76997   0.53901   0.00000  Uiso   1.00
C1249  C     0.89264   0.77450   0.58062   0.00000  Uiso   1.00
C1250  C     0.85157   0.82989   0.57919   0.00000  Uiso   1.00
C1251  C     0.99363   0.84304   0.73794   0.00000  Uiso   1.00
C1252  C     0.67375   0.82421   0.76259   0.00000  Uiso   1.00
C1253  C     0.78968   0.90347   0.91817   0.00000  Uiso   1.00
C1254  C     0.84558   0.98855   0.73925   0.00000  Uiso   1.00
C1255  C     0.81706   0.67999   0.76403   0.00000  Uiso   1.00
C1256  C     0.82361   0.72293   0.75825   0.00000  Uiso   1.00
C1257  C     0.84315   0.94432   0.74167   0.00000  Uiso   1.00
C1258  C     0.85458   0.81241   0.64380   0.00000  Uiso   1.00
C1259  C     0.81248   0.85467   0.85646   0.00000  Uiso   1.00
C1260  C     0.80944   0.86811   0.89884   0.00000  Uiso   1.00
C1261  C     0.86487   0.80417   0.60055   0.00000  Uiso   1.00
C1262  C     0.79198   0.91870   0.95648   0.00000  Uiso   1.00
C1263  C     0.80062   0.95396   0.53342   0.00000  Uiso   1.00
C1264  C     0.83054   0.84772   0.91883   0.00000  Uiso   1.00
C1265  C     0.91332   0.81621   0.91187   0.00000  Uiso   1.00
C1266  C     0.83709   0.86474   0.95589   0.00000  Uiso   1.00
C1267  C     0.81580   0.89994   0.97581   0.00000  Uiso   1.00
C1268  C     0.86190   0.84599   0.97466   0.00000  Uiso   1.00
C1269  C     0.85727   0.85719   0.51587   0.00000  Uiso   1.00
C1270  C     0.84287   0.89657   0.53309   0.00000  Uiso   1.00
C1271  C     0.82000   0.91649   0.51384   0.00000  Uiso   1.00
H1272  H     0.68326   0.86042   0.71524   0.00000  Uiso   1.00
H1273  H     0.96847   0.68281   0.53461   0.00000  Uiso   1.00
H1274  H     0.76650   0.72397   0.84217   0.00000  Uiso   1.00
H1275  H     0.80192   0.94121   0.61262   0.00000  Uiso   1.00
H1276  H     0.98481   0.80666   0.78550   0.00000  Uiso   1.00
H1277  H     0.87197   0.66846   0.71595   0.00000  Uiso   1.00
H1278  H     0.82789   0.85061   0.59542   0.00000  Uiso   1.00
H1279  H     0.90316   0.75521   0.59780   0.00000  Uiso   1.00
H1280  H     0.93071   0.77188   0.95875   0.00000  Uiso   1.00
H1281  H     0.77582   0.94594   0.97034   0.00000  Uiso   1.00
H1282  H     0.77295   0.91979   0.90350   0.00000  Uiso   1.00
H1283  H     0.84103   0.81799   0.90520   0.00000  Uiso   1.00
N1284  N     0.78515   0.98384   0.54901   0.00000  Uiso   1.00
N1285  N     0.93035   0.81525   0.87809   0.00000  Uiso   1.00
O1286  O     0.83333   0.83333   0.75000   0.00000  Uiso   1.00
O1287  O     0.82360   0.79060   0.66625   0.00000  Uiso   1.00
O1288  O     0.79354   0.87313   0.83749   0.00000  Uiso   1.00
O1289  O     0.87755   0.84159   0.65877   0.00000  Uiso   1.00
O1290  O     0.83865   0.82802   0.83749   0.00000  Uiso   1.00
O1291  O     0.92037   0.70055   0.98913   0.00000  Uiso   1.00
O1292  O     0.98393   0.75008   0.99147   0.00000  Uiso   1.00
O1293  O     0.95084   0.70503   0.55015   0.00000  Uiso   1.00
O1294  O     0.74041   0.96789   0.78935   0.00000  Uiso   1.00
O1295  O     0.78704   0.98053   0.83425   0.00000  Uiso   1.00
O1296  O     0.74700   0.70773   0.82724   0.00000  Uiso   1.00
O1297  O     0.84515   0.74768   0.77821   0.00000  Uiso   1.00
O1298  O     0.90229   0.90935   0.57537   0.00000  Uiso   1.00
O1299  O     0.87620   0.97057   0.56240   0.00000  Uiso   1.00
O1300  O     0.82485   0.92604   0.61566   0.00000  Uiso   1.00
O1301  O     0.81247   0.92803   0.76767   0.00000  Uiso   1.00
O1302  O     0.74119   0.79917   0.73607   0.00000  Uiso   1.00
O1303  O     0.93452   0.85845   0.71806   0.00000  Uiso   1.00
O1304  O     0.73656   0.85627   0.77820   0.00000  Uiso   1.00
O1305  O     0.92106   0.81944   0.76768   0.00000  Uiso   1.00
O1306  O     0.80467   0.73570   0.73607   0.00000  Uiso   1.00
O1307  O     0.87104   0.92193   0.71806   0.00000  Uiso   1.00
S1308  S     0.94154   0.73067   0.51587   0.00000  Uiso   1.00
S1309  S     0.77216   0.99904   0.80449   0.00000  Uiso   1.00
S1310  S     0.86317   0.92638   0.57176   0.00000  Uiso   1.00
Zn1311 Zn    0.85910   0.80756   0.78278   0.00000  Uiso   1.00
Zn1312 Zn    0.80125   0.79044   0.72258   0.00000  Uiso   1.00
Zn1313 Zn    0.87833   0.86331   0.71188   0.00000  Uiso   1.00
Zn1314 Zn    0.79465   0.87202   0.78277   0.00000  Uiso   1.00
loop_
_geom_bond_atom_site_label_1
_geom_bond_atom_site_label_2
_geom_bond_distance
_geom_bond_site_symmetry_2
_ccdc_geom_bond_type
C1     C11     1.435   .     S
C1     O63     1.269   .     A
C1     O61     1.269   .     A
C2     C3      1.394   .     A
C2     C27     1.424   .     A
C2     C24     1.447   .     S
C3     H39     1.081   .     S
C3     C662    1.401   .     S
C4     O64     1.274   .     A
C4     C10     1.452   .     S
C4     O62     1.276   .     A
C5     C6      1.422   .     A
C5     C7      1.423   .     A
C5     C660    1.401   1_554 S
C6     C9      1.406   .     A
C6     C28     1.427   .     A
C7     C8      1.399   .     A
C7     S67     1.774   .     S
C8     H38     1.083   .     S
C8     C20     1.393   .     A
C9     C20     1.391   .     A
C9     H37     1.079   .     S
C10    C84     1.333   .     S
C10    H104    1.088   .     S
C11    C156    1.333   1_455 S
C11    H181    1.086   1_455 S
C12    C21     1.393   .     A
C12    C19     1.397   .     A
C12    H41     1.083   .     S
C13    C16     1.452   .     S
C13    C233    1.351   .     S
C13    H255    1.088   .     S
C14    C15     1.426   .     S
C14    C451    1.351   1_545 S
C14    S506    1.781   1_545 S
C15    O56     1.268   .     A
C15    O65     1.270   .     A
C16    O60     1.255   .     A
C16    O66     1.277   .     A
C17    O48     1.279   .     A
C17    C20     1.459   .     S
C17    O46     1.282   .     A
C18    O47     1.285   .     A
C18    C19     1.477   .     S
C18    O49     1.284   .     A
C19    C23     1.399   .     A
C21    C26     1.415   .     A
C21    H40     1.082   .     S
C22    N43     1.158   .     T
C22    C30     1.451   .     S
C23    H42     1.078   .     S
C23    C25     1.411   .     A
C24    N44     1.158   .     T
C25    C26     1.420   .     A
C25    C27     1.425   .     A
C26    C687    1.412   .     S
C27    C685    1.418   .     S
C28    C29     1.427   .     A
C28    C684    1.418   1_554 S
C29    C30     1.413   .     A
C29    S69     1.794   .     S
C30    C683    1.412   1_554 S
H31    C156    1.088   1_455 S
H32    O52     0.991   .     S
H33    O55     0.991   .     S
H34    O59     0.990   .     S
H35    C84     1.086   .     S
H36    C451    1.088   1_545 S
O45    Zn71    1.946   .     S
O45    Zn72    1.932   .     S
O45    Zn73    1.928   .     S
O45    Zn70    1.947   .     S
O46    Zn71    1.908   .     S
O47    Zn73    1.917   .     S
O48    Zn72    1.915   .     S
O49    Zn70    1.907   .     S
O50    S724    1.503   .     S
O51    S724    1.503   .     S
O52    S67     1.682   .     S
O53    S68     1.503   .     D
O54    S68     1.504   .     D
O55    S506    1.683   1_545 S
O56    Zn70    1.943   .     S
O57    S69     1.503   .     D
O58    S69     1.503   .     D
O59    S69     1.683   .     S
O60    Zn73    1.943   .     S
O61    Zn71    1.924   .     S
O62    Zn72    1.932   .     S
O63    Zn73    1.933   .     S
O64    Zn70    1.925   .     S
O65    Zn71    1.943   .     S
O66    Zn72    1.941   .     S
S67    O708    1.503   1_554 S
S67    O707    1.503   1_554 S
S68    C233    1.781   .     S
S68    O274    1.683   .     S
C74    C84     1.435   .     S
C74    O136    1.269   .     A
C74    O134    1.269   .     A
C75    C76     1.394   .     A
C75    C100    1.424   .     A
C75    C97     1.447   .     S
C76    H112    1.081   .     S
C76    C735    1.401   .     S
C77    O137    1.274   .     A
C77    C83     1.452   .     S
C77    O135    1.276   .     A
C78    C79     1.422   .     A
C78    C80     1.423   .     A
C78    C733    1.401   1_554 S
C79    C82     1.406   .     A
C79    C101    1.427   .     A
C80    C81     1.399   .     A
C80    S140    1.774   .     S
C81    H111    1.083   .     S
C81    C93     1.393   .     A
C82    C93     1.391   .     A
C82    H110    1.079   .     S
C83    C157    1.333   .     S
C83    H177    1.088   .     S
C85    C94     1.393   .     A
C85    C92     1.397   .     A
C85    H114    1.083   .     S
C86    C89     1.452   .     S
C86    C306    1.351   .     S
C86    H328    1.088   .     S
C87    C88     1.426   .     S
C87    C524    1.351   1_545 S
C87    S579    1.781   1_545 S
C88    O129    1.268   .     A
C88    O138    1.270   .     A
C89    O133    1.255   .     A
C89    O139    1.277   .     A
C90    O121    1.279   .     A
C90    C93     1.459   .     S
C90    O119    1.282   .     A
C91    O120    1.285   .     A
C91    C92     1.477   .     S
C91    O122    1.284   .     A
C92    C96     1.399   .     A
C94    C99     1.415   .     A
C94    H113    1.082   .     S
C95    N116    1.158   .     T
C95    C103    1.451   .     S
C96    H115    1.078   .     S
C96    C98     1.411   .     A
C97    N117    1.158   .     T
C98    C99     1.420   .     A
C98    C100    1.425   .     A
C99    C760    1.412   .     S
C100   C758    1.418   .     S
C101   C102    1.427   .     A
C101   C757    1.418   1_554 S
C102   C103    1.413   .     A
C102   S142    1.794   .     S
C103   C756    1.412   1_554 S
H105   O125    0.991   .     S
H106   O128    0.991   .     S
H107   O132    0.990   .     S
H108   C157    1.086   .     S
H109   C524    1.088   1_545 S
O118   Zn144   1.946   .     S
O118   Zn145   1.932   .     S
O118   Zn146   1.928   .     S
O118   Zn143   1.947   .     S
O119   Zn144   1.908   .     S
O120   Zn146   1.917   .     S
O121   Zn145   1.915   .     S
O122   Zn143   1.907   .     S
O123   S797    1.503   .     S
O124   S797    1.503   .     S
O125   S140    1.682   .     S
O126   S141    1.503   .     D
O127   S141    1.504   .     D
O128   S579    1.683   1_545 S
O129   Zn143   1.943   .     S
O130   S142    1.503   .     D
O131   S142    1.503   .     D
O132   S142    1.683   .     S
O133   Zn146   1.943   .     S
O134   Zn144   1.924   .     S
O135   Zn145   1.932   .     S
O136   Zn146   1.933   .     S
O137   Zn143   1.925   .     S
O138   Zn144   1.943   .     S
O139   Zn145   1.941   .     S
S140   O781    1.503   1_554 S
S140   O780    1.503   1_554 S
S141   C306    1.781   .     S
S141   O347    1.683   .     S
C147   C157    1.435   .     S
C147   O209    1.269   .     A
C147   O207    1.269   .     A
C148   C149    1.394   .     A
C148   C173    1.424   .     A
C148   C170    1.447   .     S
C149   H185    1.081   .     S
C149   C808    1.401   .     S
C150   O210    1.274   .     A
C150   C156    1.452   .     S
C150   O208    1.276   .     A
C151   C152    1.422   .     A
C151   C153    1.423   .     A
C151   C806    1.401   1_554 S
C152   C155    1.406   .     A
C152   C174    1.427   .     A
C153   C154    1.399   .     A
C153   S213    1.774   .     S
C154   H184    1.083   .     S
C154   C166    1.393   .     A
C155   C166    1.391   .     A
C155   H183    1.079   .     S
C156   C11     1.333   1_655 S
C156   H31     1.088   1_655 S
C158   C167    1.393   .     A
C158   C165    1.397   .     A
C158   H187    1.083   .     S
C159   C162    1.452   .     S
C159   C379    1.351   .     S
C159   H401    1.088   .     S
C160   C161    1.426   .     S
C160   C597    1.351   1_545 S
C160   S652    1.781   1_545 S
C161   O202    1.268   .     A
C161   O211    1.270   .     A
C162   O206    1.255   .     A
C162   O212    1.277   .     A
C163   O194    1.279   .     A
C163   C166    1.459   .     S
C163   O192    1.282   .     A
C164   O193    1.285   .     A
C164   C165    1.477   .     S
C164   O195    1.284   .     A
C165   C169    1.399   .     A
C167   C172    1.415   .     A
C167   H186    1.082   .     S
C168   N189    1.158   .     T
C168   C176    1.451   .     S
C169   H188    1.078   .     S
C169   C171    1.411   .     A
C170   N190    1.158   .     T
C171   C172    1.420   .     A
C171   C173    1.425   .     A
C172   C833    1.412   .     S
C173   C831    1.418   .     S
C174   C175    1.427   .     A
C174   C830    1.418   1_554 S
C175   C176    1.413   .     A
C175   S215    1.794   .     S
C176   C829    1.412   1_554 S
H178   O198    0.991   .     S
H179   O201    0.991   .     S
H180   O205    0.990   .     S
H181   C11     1.086   1_655 S
H182   C597    1.088   1_545 S
O191   Zn217   1.946   .     S
O191   Zn218   1.932   .     S
O191   Zn219   1.928   .     S
O191   Zn216   1.947   .     S
O192   Zn217   1.908   .     S
O193   Zn219   1.917   .     S
O194   Zn218   1.915   .     S
O195   Zn216   1.907   .     S
O196   S870    1.503   .     S
O197   S870    1.503   .     S
O198   S213    1.682   .     S
O199   S214    1.503   .     D
O200   S214    1.504   .     D
O201   S652    1.683   1_545 S
O202   Zn216   1.943   .     S
O203   S215    1.503   .     D
O204   S215    1.503   .     D
O205   S215    1.683   .     S
O206   Zn219   1.943   .     S
O207   Zn217   1.924   .     S
O208   Zn218   1.932   .     S
O209   Zn219   1.933   .     S
O210   Zn216   1.925   .     S
O211   Zn217   1.943   .     S
O212   Zn218   1.941   .     S
S213   O854    1.503   1_554 S
S213   O853    1.503   1_554 S
S214   C379    1.781   .     S
S214   O420    1.683   .     S
C220   C230    1.435   .     S
C220   O282    1.269   .     A
C220   O280    1.269   .     A
C221   C222    1.394   .     A
C221   C246    1.424   .     A
C221   C243    1.447   .     S
C222   H258    1.081   .     S
C222   C881    1.401   .     S
C223   O283    1.274   .     A
C223   C229    1.452   .     S
C223   O281    1.276   .     A
C224   C225    1.422   .     A
C224   C226    1.423   .     A
C224   C879    1.401   1_554 S
C225   C228    1.406   .     A
C225   C247    1.427   .     A
C226   C227    1.399   .     A
C226   S286    1.774   .     S
C227   H257    1.083   .     S
C227   C239    1.393   .     A
C228   C239    1.391   .     A
C228   H256    1.079   .     S
C229   C303    1.333   .     S
C229   H323    1.088   .     S
C230   C375    1.333   1_455 S
C230   H400    1.086   1_455 S
C231   C240    1.393   .     A
C231   C238    1.397   .     A
C231   H260    1.083   .     S
C232   C235    1.452   .     S
C232   C452    1.351   .     S
C232   H474    1.088   .     S
C233   C234    1.426   .     S
C234   O275    1.268   .     A
C234   O284    1.270   .     A
C235   O279    1.255   .     A
C235   O285    1.277   .     A
C236   O267    1.279   .     A
C236   C239    1.459   .     S
C236   O265    1.282   .     A
C237   O266    1.285   .     A
C237   C238    1.477   .     S
C237   O268    1.284   .     A
C238   C242    1.399   .     A
C240   C245    1.415   .     A
C240   H259    1.082   .     S
C241   N262    1.158   .     T
C241   C249    1.451   .     S
C242   H261    1.078   .     S
C242   C244    1.411   .     A
C243   N263    1.158   .     T
C244   C245    1.420   .     A
C244   C246    1.425   .     A
C245   C906    1.412   .     S
C246   C904    1.418   .     S
C247   C248    1.427   .     A
C247   C903    1.418   1_554 S
C248   C249    1.413   .     A
C248   S288    1.794   .     S
C249   C902    1.412   1_554 S
H250   C375    1.088   1_455 S
H251   O271    0.991   .     S
H252   O274    0.991   .     S
H253   O278    0.990   .     S
H254   C303    1.086   .     S
O264   Zn290   1.946   .     S
O264   Zn291   1.932   .     S
O264   Zn292   1.928   .     S
O264   Zn289   1.947   .     S
O265   Zn290   1.908   .     S
O266   Zn292   1.917   .     S
O267   Zn291   1.915   .     S
O268   Zn289   1.907   .     S
O269   S943    1.503   .     S
O270   S943    1.503   .     S
O271   S286    1.682   .     S
O272   S287    1.503   .     D
O273   S287    1.504   .     D
O275   Zn289   1.943   .     S
O276   S288    1.503   .     D
O277   S288    1.503   .     D
O278   S288    1.683   .     S
O279   Zn292   1.943   .     S
O280   Zn290   1.924   .     S
O281   Zn291   1.932   .     S
O282   Zn292   1.933   .     S
O283   Zn289   1.925   .     S
O284   Zn290   1.943   .     S
O285   Zn291   1.941   .     S
S286   O927    1.503   1_554 S
S286   O926    1.503   1_554 S
S287   C452    1.781   .     S
S287   O493    1.683   .     S
C293   C303    1.435   .     S
C293   O355    1.269   .     A
C293   O353    1.269   .     A
C294   C295    1.394   .     A
C294   C319    1.424   .     A
C294   C316    1.447   .     S
C295   H331    1.081   .     S
C295   C954    1.401   .     S
C296   O356    1.274   .     A
C296   C302    1.452   .     S
C296   O354    1.276   .     A
C297   C298    1.422   .     A
C297   C299    1.423   .     A
C297   C952    1.401   1_554 S
C298   C301    1.406   .     A
C298   C320    1.427   .     A
C299   C300    1.399   .     A
C299   S359    1.774   .     S
C300   H330    1.083   .     S
C300   C312    1.393   .     A
C301   C312    1.391   .     A
C301   H329    1.079   .     S
C302   C376    1.333   .     S
C302   H396    1.088   .     S
C304   C313    1.393   .     A
C304   C311    1.397   .     A
C304   H333    1.083   .     S
C305   C308    1.452   .     S
C305   C525    1.351   .     S
C305   H547    1.088   .     S
C306   C307    1.426   .     S
C307   O348    1.268   .     A
C307   O357    1.270   .     A
C308   O352    1.255   .     A
C308   O358    1.277   .     A
C309   O340    1.279   .     A
C309   C312    1.459   .     S
C309   O338    1.282   .     A
C310   O339    1.285   .     A
C310   C311    1.477   .     S
C310   O341    1.284   .     A
C311   C315    1.399   .     A
C313   C318    1.415   .     A
C313   H332    1.082   .     S
C314   N335    1.158   .     T
C314   C322    1.451   .     S
C315   H334    1.078   .     S
C315   C317    1.411   .     A
C316   N336    1.158   .     T
C317   C318    1.420   .     A
C317   C319    1.425   .     A
C318   C979    1.412   .     S
C319   C977    1.418   .     S
C320   C321    1.427   .     A
C320   C976    1.418   1_554 S
C321   C322    1.413   .     A
C321   S361    1.794   .     S
C322   C975    1.412   1_554 S
H324   O344    0.991   .     S
H325   O347    0.991   .     S
H326   O351    0.990   .     S
H327   C376    1.086   .     S
O337   Zn363   1.946   .     S
O337   Zn364   1.932   .     S
O337   Zn365   1.928   .     S
O337   Zn362   1.947   .     S
O338   Zn363   1.908   .     S
O339   Zn365   1.917   .     S
O340   Zn364   1.915   .     S
O341   Zn362   1.907   .     S
O342   S1016   1.503   .     S
O343   S1016   1.503   .     S
O344   S359    1.682   .     S
O345   S360    1.503   .     D
O346   S360    1.504   .     D
O348   Zn362   1.943   .     S
O349   S361    1.503   .     D
O350   S361    1.503   .     D
O351   S361    1.683   .     S
O352   Zn365   1.943   .     S
O353   Zn363   1.924   .     S
O354   Zn364   1.932   .     S
O355   Zn365   1.933   .     S
O356   Zn362   1.925   .     S
O357   Zn363   1.943   .     S
O358   Zn364   1.941   .     S
S359   O1000   1.503   1_554 S
S359   O999    1.503   1_554 S
S360   C525    1.781   .     S
S360   O566    1.683   .     S
C366   C376    1.435   .     S
C366   O428    1.269   .     A
C366   O426    1.269   .     A
C367   C368    1.394   .     A
C367   C392    1.424   .     A
C367   C389    1.447   .     S
C368   H404    1.081   .     S
C368   C1027   1.401   .     S
C369   O429    1.274   .     A
C369   C375    1.452   .     S
C369   O427    1.276   .     A
C370   C371    1.422   .     A
C370   C372    1.423   .     A
C370   C1025   1.401   1_554 S
C371   C374    1.406   .     A
C371   C393    1.427   .     A
C372   C373    1.399   .     A
C372   S432    1.774   .     S
C373   H403    1.083   .     S
C373   C385    1.393   .     A
C374   C385    1.391   .     A
C374   H402    1.079   .     S
C375   C230    1.333   1_655 S
C375   H250    1.088   1_655 S
C377   C386    1.393   .     A
C377   C384    1.397   .     A
C377   H406    1.083   .     S
C378   C381    1.452   .     S
C378   C598    1.351   .     S
C378   H620    1.088   .     S
C379   C380    1.426   .     S
C380   O421    1.268   .     A
C380   O430    1.270   .     A
C381   O425    1.255   .     A
C381   O431    1.277   .     A
C382   O413    1.279   .     A
C382   C385    1.459   .     S
C382   O411    1.282   .     A
C383   O412    1.285   .     A
C383   C384    1.477   .     S
C383   O414    1.284   .     A
C384   C388    1.399   .     A
C386   C391    1.415   .     A
C386   H405    1.082   .     S
C387   N408    1.158   .     T
C387   C395    1.451   .     S
C388   H407    1.078   .     S
C388   C390    1.411   .     A
C389   N409    1.158   .     T
C390   C391    1.420   .     A
C390   C392    1.425   .     A
C391   C1052   1.412   .     S
C392   C1050   1.418   .     S
C393   C394    1.427   .     A
C393   C1049   1.418   1_554 S
C394   C395    1.413   .     A
C394   S434    1.794   .     S
C395   C1048   1.412   1_554 S
H397   O417    0.991   .     S
H398   O420    0.991   .     S
H399   O424    0.990   .     S
H400   C230    1.086   1_655 S
O410   Zn436   1.946   .     S
O410   Zn437   1.932   .     S
O410   Zn438   1.928   .     S
O410   Zn435   1.947   .     S
O411   Zn436   1.908   .     S
O412   Zn438   1.917   .     S
O413   Zn437   1.915   .     S
O414   Zn435   1.907   .     S
O415   S1089   1.503   .     S
O416   S1089   1.503   .     S
O417   S432    1.682   .     S
O418   S433    1.503   .     D
O419   S433    1.504   .     D
O421   Zn435   1.943   .     S
O422   S434    1.503   .     D
O423   S434    1.503   .     D
O424   S434    1.683   .     S
O425   Zn438   1.943   .     S
O426   Zn436   1.924   .     S
O427   Zn437   1.932   .     S
O428   Zn438   1.933   .     S
O429   Zn435   1.925   .     S
O430   Zn436   1.943   .     S
O431   Zn437   1.941   .     S
S432   O1073   1.503   1_554 S
S432   O1072   1.503   1_554 S
S433   C598    1.781   .     S
S433   O639    1.683   .     S
C439   C449    1.435   .     S
C439   O501    1.269   .     A
C439   O499    1.269   .     A
C440   C441    1.394   .     A
C440   C465    1.424   .     A
C440   C462    1.447   .     S
C441   H477    1.081   .     S
C441   C1100   1.401   .     S
C442   O502    1.274   .     A
C442   C448    1.452   .     S
C442   O500    1.276   .     A
C443   C444    1.422   .     A
C443   C445    1.423   .     A
C443   C1098   1.401   1_554 S
C444   C447    1.406   .     A
C444   C466    1.427   .     A
C445   C446    1.399   .     A
C445   S505    1.774   .     S
C446   H476    1.083   .     S
C446   C458    1.393   .     A
C447   C458    1.391   .     A
C447   H475    1.079   .     S
C448   C522    1.333   .     S
C448   H542    1.088   .     S
C449   C594    1.333   1_455 S
C449   H619    1.086   1_455 S
C450   C459    1.393   .     A
C450   C457    1.397   .     A
C450   H479    1.083   .     S
C451   C454    1.452   .     S
C451   C14     1.351   1_565 S
C451   H36     1.088   1_565 S
C452   C453    1.426   .     S
C453   O494    1.268   .     A
C453   O503    1.270   .     A
C454   O498    1.255   .     A
C454   O504    1.277   .     A
C455   O486    1.279   .     A
C455   C458    1.459   .     S
C455   O484    1.282   .     A
C456   O485    1.285   .     A
C456   C457    1.477   .     S
C456   O487    1.284   .     A
C457   C461    1.399   .     A
C459   C464    1.415   .     A
C459   H478    1.082   .     S
C460   N481    1.158   .     T
C460   C468    1.451   .     S
C461   H480    1.078   .     S
C461   C463    1.411   .     A
C462   N482    1.158   .     T
C463   C464    1.420   .     A
C463   C465    1.425   .     A
C464   C1125   1.412   .     S
C465   C1123   1.418   .     S
C466   C467    1.427   .     A
C466   C1122   1.418   1_554 S
C467   C468    1.413   .     A
C467   S507    1.794   .     S
C468   C1121   1.412   1_554 S
H469   C594    1.088   1_455 S
H470   O490    0.991   .     S
H471   O493    0.991   .     S
H472   O497    0.990   .     S
H473   C522    1.086   .     S
O483   Zn509   1.946   .     S
O483   Zn510   1.932   .     S
O483   Zn511   1.928   .     S
O483   Zn508   1.947   .     S
O484   Zn509   1.908   .     S
O485   Zn511   1.917   .     S
O486   Zn510   1.915   .     S
O487   Zn508   1.907   .     S
O488   S1162   1.503   .     S
O489   S1162   1.503   .     S
O490   S505    1.682   .     S
O491   S506    1.503   .     D
O492   S506    1.504   .     D
O494   Zn508   1.943   .     S
O495   S507    1.503   .     D
O496   S507    1.503   .     D
O497   S507    1.683   .     S
O498   Zn511   1.943   .     S
O499   Zn509   1.924   .     S
O500   Zn510   1.932   .     S
O501   Zn511   1.933   .     S
O502   Zn508   1.925   .     S
O503   Zn509   1.943   .     S
O504   Zn510   1.941   .     S
S505   O1146   1.503   1_554 S
S505   O1145   1.503   1_554 S
S506   C14     1.781   1_565 S
S506   O55     1.683   1_565 S
C512   C522    1.435   .     S
C512   O574    1.269   .     A
C512   O572    1.269   .     A
C513   C514    1.394   .     A
C513   C538    1.424   .     A
C513   C535    1.447   .     S
C514   H550    1.081   .     S
C514   C1173   1.401   .     S
C515   O575    1.274   .     A
C515   C521    1.452   .     S
C515   O573    1.276   .     A
C516   C517    1.422   .     A
C516   C518    1.423   .     A
C516   C1171   1.401   1_554 S
C517   C520    1.406   .     A
C517   C539    1.427   .     A
C518   C519    1.399   .     A
C518   S578    1.774   .     S
C519   H549    1.083   .     S
C519   C531    1.393   .     A
C520   C531    1.391   .     A
C520   H548    1.079   .     S
C521   C595    1.333   .     S
C521   H615    1.088   .     S
C523   C532    1.393   .     A
C523   C530    1.397   .     A
C523   H552    1.083   .     S
C524   C527    1.452   .     S
C524   C87     1.351   1_565 S
C524   H109    1.088   1_565 S
C525   C526    1.426   .     S
C526   O567    1.268   .     A
C526   O576    1.270   .     A
C527   O571    1.255   .     A
C527   O577    1.277   .     A
C528   O559    1.279   .     A
C528   C531    1.459   .     S
C528   O557    1.282   .     A
C529   O558    1.285   .     A
C529   C530    1.477   .     S
C529   O560    1.284   .     A
C530   C534    1.399   .     A
C532   C537    1.415   .     A
C532   H551    1.082   .     S
C533   N554    1.158   .     T
C533   C541    1.451   .     S
C534   H553    1.078   .     S
C534   C536    1.411   .     A
C535   N555    1.158   .     T
C536   C537    1.420   .     A
C536   C538    1.425   .     A
C537   C1198   1.412   .     S
C538   C1196   1.418   .     S
C539   C540    1.427   .     A
C539   C1195   1.418   1_554 S
C540   C541    1.413   .     A
C540   S580    1.794   .     S
C541   C1194   1.412   1_554 S
H543   O563    0.991   .     S
H544   O566    0.991   .     S
H545   O570    0.990   .     S
H546   C595    1.086   .     S
O556   Zn582   1.946   .     S
O556   Zn583   1.932   .     S
O556   Zn584   1.928   .     S
O556   Zn581   1.947   .     S
O557   Zn582   1.908   .     S
O558   Zn584   1.917   .     S
O559   Zn583   1.915   .     S
O560   Zn581   1.907   .     S
O561   S1235   1.503   .     S
O562   S1235   1.503   .     S
O563   S578    1.682   .     S
O564   S579    1.503   .     D
O565   S579    1.504   .     D
O567   Zn581   1.943   .     S
O568   S580    1.503   .     D
O569   S580    1.503   .     D
O570   S580    1.683   .     S
O571   Zn584   1.943   .     S
O572   Zn582   1.924   .     S
O573   Zn583   1.932   .     S
O574   Zn584   1.933   .     S
O575   Zn581   1.925   .     S
O576   Zn582   1.943   .     S
O577   Zn583   1.941   .     S
S578   O1219   1.503   1_554 S
S578   O1218   1.503   1_554 S
S579   C87     1.781   1_565 S
S579   O128    1.683   1_565 S
C585   C595    1.435   .     S
C585   O647    1.269   .     A
C585   O645    1.269   .     A
C586   C587    1.394   .     A
C586   C611    1.424   .     A
C586   C608    1.447   .     S
C587   H623    1.081   .     S
C587   C1246   1.401   .     S
C588   O648    1.274   .     A
C588   C594    1.452   .     S
C588   O646    1.276   .     A
C589   C590    1.422   .     A
C589   C591    1.423   .     A
C589   C1244   1.401   1_554 S
C590   C593    1.406   .     A
C590   C612    1.427   .     A
C591   C592    1.399   .     A
C591   S651    1.774   .     S
C592   H622    1.083   .     S
C592   C604    1.393   .     A
C593   C604    1.391   .     A
C593   H621    1.079   .     S
C594   C449    1.333   1_655 S
C594   H469    1.088   1_655 S
C596   C605    1.393   .     A
C596   C603    1.397   .     A
C596   H625    1.083   .     S
C597   C600    1.452   .     S
C597   C160    1.351   1_565 S
C597   H182    1.088   1_565 S
C598   C599    1.426   .     S
C599   O640    1.268   .     A
C599   O649    1.270   .     A
C600   O644    1.255   .     A
C600   O650    1.277   .     A
C601   O632    1.279   .     A
C601   C604    1.459   .     S
C601   O630    1.282   .     A
C602   O631    1.285   .     A
C602   C603    1.477   .     S
C602   O633    1.284   .     A
C603   C607    1.399   .     A
C605   C610    1.415   .     A
C605   H624    1.082   .     S
C606   N627    1.158   .     T
C606   C614    1.451   .     S
C607   H626    1.078   .     S
C607   C609    1.411   .     A
C608   N628    1.158   .     T
C609   C610    1.420   .     A
C609   C611    1.425   .     A
C610   C1271   1.412   .     S
C611   C1269   1.418   .     S
C612   C613    1.427   .     A
C612   C1268   1.418   1_554 S
C613   C614    1.413   .     A
C613   S653    1.794   .     S
C614   C1267   1.412   1_554 S
H616   O636    0.991   .     S
H617   O639    0.991   .     S
H618   O643    0.990   .     S
H619   C449    1.086   1_655 S
O629   Zn655   1.946   .     S
O629   Zn656   1.932   .     S
O629   Zn657   1.928   .     S
O629   Zn654   1.947   .     S
O630   Zn655   1.908   .     S
O631   Zn657   1.917   .     S
O632   Zn656   1.915   .     S
O633   Zn654   1.907   .     S
O634   S1308   1.503   .     S
O635   S1308   1.503   .     S
O636   S651    1.682   .     S
O637   S652    1.503   .     D
O638   S652    1.504   .     D
O640   Zn654   1.943   .     S
O641   S653    1.503   .     D
O642   S653    1.503   .     D
O643   S653    1.683   .     S
O644   Zn657   1.943   .     S
O645   Zn655   1.924   .     S
O646   Zn656   1.932   .     S
O647   Zn657   1.933   .     S
O648   Zn654   1.925   .     S
O649   Zn655   1.943   .     S
O650   Zn656   1.941   .     S
S651   O1292   1.503   1_554 S
S651   O1291   1.503   1_554 S
S652   C160    1.781   1_565 S
S652   O201    1.683   1_565 S
C658   C668    1.435   .     S
C658   O720    1.269   .     A
C658   O718    1.269   .     A
C659   C660    1.394   .     A
C659   C684    1.424   .     A
C659   C681    1.447   .     S
C660   H696    1.081   .     S
C660   C5      1.401   1_556 S
C661   O721    1.274   .     A
C661   C667    1.452   .     S
C661   O719    1.276   .     A
C662   C663    1.422   .     A
C662   C664    1.423   .     A
C663   C666    1.406   .     A
C663   C685    1.427   .     A
C664   C665    1.399   .     A
C664   S724    1.774   .     S
C665   H695    1.083   .     S
C665   C677    1.393   .     A
C666   C677    1.391   .     A
C666   H694    1.079   .     S
C667   C741    1.333   .     S
C667   H761    1.088   .     S
C668   C813    1.333   1_455 S
C668   H838    1.086   1_455 S
C669   C678    1.393   .     A
C669   C676    1.397   .     A
C669   H698    1.083   .     S
C670   C673    1.452   .     S
C670   C890    1.351   .     S
C670   H912    1.088   .     S
C671   C672    1.426   .     S
C671   C1108   1.351   1_545 S
C671   S1163   1.781   1_545 S
C672   O713    1.268   .     A
C672   O722    1.270   .     A
C673   O717    1.255   .     A
C673   O723    1.277   .     A
C674   O705    1.279   .     A
C674   C677    1.459   .     S
C674   O703    1.282   .     A
C675   O704    1.285   .     A
C675   C676    1.477   .     S
C675   O706    1.284   .     A
C676   C680    1.399   .     A
C678   C683    1.415   .     A
C678   H697    1.082   .     S
C679   N700    1.158   .     T
C679   C687    1.451   .     S
C680   H699    1.078   .     S
C680   C682    1.411   .     A
C681   N701    1.158   .     T
C682   C683    1.420   .     A
C682   C684    1.425   .     A
C683   C30     1.412   1_556 S
C684   C28     1.418   1_556 S
C685   C686    1.427   .     A
C686   C687    1.413   .     A
C686   S726    1.794   .     S
H688   C813    1.088   1_455 S
H689   O709    0.991   .     S
H690   O712    0.991   .     S
H691   O716    0.990   .     S
H692   C741    1.086   .     S
H693   C1108   1.088   1_545 S
O702   Zn728   1.946   .     S
O702   Zn729   1.932   .     S
O702   Zn730   1.928   .     S
O702   Zn727   1.947   .     S
O703   Zn728   1.908   .     S
O704   Zn730   1.917   .     S
O705   Zn729   1.915   .     S
O706   Zn727   1.907   .     S
O707   S67     1.503   1_556 S
O708   S67     1.503   1_556 S
O709   S724    1.682   .     S
O710   S725    1.503   .     D
O711   S725    1.504   .     D
O712   S1163   1.683   1_545 S
O713   Zn727   1.943   .     S
O714   S726    1.503   .     D
O715   S726    1.503   .     D
O716   S726    1.683   .     S
O717   Zn730   1.943   .     S
O718   Zn728   1.924   .     S
O719   Zn729   1.932   .     S
O720   Zn730   1.933   .     S
O721   Zn727   1.925   .     S
O722   Zn728   1.943   .     S
O723   Zn729   1.941   .     S
S725   C890    1.781   .     S
S725   O931    1.683   .     S
C731   C741    1.435   .     S
C731   O793    1.269   .     A
C731   O791    1.269   .     A
C732   C733    1.394   .     A
C732   C757    1.424   .     A
C732   C754    1.447   .     S
C733   H769    1.081   .     S
C733   C78     1.401   1_556 S
C734   O794    1.274   .     A
C734   C740    1.452   .     S
C734   O792    1.276   .     A
C735   C736    1.422   .     A
C735   C737    1.423   .     A
C736   C739    1.406   .     A
C736   C758    1.427   .     A
C737   C738    1.399   .     A
C737   S797    1.774   .     S
C738   H768    1.083   .     S
C738   C750    1.393   .     A
C739   C750    1.391   .     A
C739   H767    1.079   .     S
C740   C814    1.333   .     S
C740   H834    1.088   .     S
C742   C751    1.393   .     A
C742   C749    1.397   .     A
C742   H771    1.083   .     S
C743   C746    1.452   .     S
C743   C963    1.351   .     S
C743   H985    1.088   .     S
C744   C745    1.426   .     S
C744   C1181   1.351   1_545 S
C744   S1236   1.781   1_545 S
C745   O786    1.268   .     A
C745   O795    1.270   .     A
C746   O790    1.255   .     A
C746   O796    1.277   .     A
C747   O778    1.279   .     A
C747   C750    1.459   .     S
C747   O776    1.282   .     A
C748   O777    1.285   .     A
C748   C749    1.477   .     S
C748   O779    1.284   .     A
C749   C753    1.399   .     A
C751   C756    1.415   .     A
C751   H770    1.082   .     S
C752   N773    1.158   .     T
C752   C760    1.451   .     S
C753   H772    1.078   .     S
C753   C755    1.411   .     A
C754   N774    1.158   .     T
C755   C756    1.420   .     A
C755   C757    1.425   .     A
C756   C103    1.412   1_556 S
C757   C101    1.418   1_556 S
C758   C759    1.427   .     A
C759   C760    1.413   .     A
C759   S799    1.794   .     S
H762   O782    0.991   .     S
H763   O785    0.991   .     S
H764   O789    0.990   .     S
H765   C814    1.086   .     S
H766   C1181   1.088   1_545 S
O775   Zn801   1.946   .     S
O775   Zn802   1.932   .     S
O775   Zn803   1.928   .     S
O775   Zn800   1.947   .     S
O776   Zn801   1.908   .     S
O777   Zn803   1.917   .     S
O778   Zn802   1.915   .     S
O779   Zn800   1.907   .     S
O780   S140    1.503   1_556 S
O781   S140    1.503   1_556 S
O782   S797    1.682   .     S
O783   S798    1.503   .     D
O784   S798    1.504   .     D
O785   S1236   1.683   1_545 S
O786   Zn800   1.943   .     S
O787   S799    1.503   .     D
O788   S799    1.503   .     D
O789   S799    1.683   .     S
O790   Zn803   1.943   .     S
O791   Zn801   1.924   .     S
O792   Zn802   1.932   .     S
O793   Zn803   1.933   .     S
O794   Zn800   1.925   .     S
O795   Zn801   1.943   .     S
O796   Zn802   1.941   .     S
S798   C963    1.781   .     S
S798   O1004   1.683   .     S
C804   C814    1.435   .     S
C804   O866    1.269   .     A
C804   O864    1.269   .     A
C805   C806    1.394   .     A
C805   C830    1.424   .     A
C805   C827    1.447   .     S
C806   H842    1.081   .     S
C806   C151    1.401   1_556 S
C807   O867    1.274   .     A
C807   C813    1.452   .     S
C807   O865    1.276   .     A
C808   C809    1.422   .     A
C808   C810    1.423   .     A
C809   C812    1.406   .     A
C809   C831    1.427   .     A
C810   C811    1.399   .     A
C810   S870    1.774   .     S
C811   H841    1.083   .     S
C811   C823    1.393   .     A
C812   C823    1.391   .     A
C812   H840    1.079   .     S
C813   C668    1.333   1_655 S
C813   H688    1.088   1_655 S
C815   C824    1.393   .     A
C815   C822    1.397   .     A
C815   H844    1.083   .     S
C816   C819    1.452   .     S
C816   C1036   1.351   .     S
C816   H1058   1.088   .     S
C817   C818    1.426   .     S
C817   C1254   1.351   1_545 S
C817   S1309   1.781   1_545 S
C818   O859    1.268   .     A
C818   O868    1.270   .     A
C819   O863    1.255   .     A
C819   O869    1.277   .     A
C820   O851    1.279   .     A
C820   C823    1.459   .     S
C820   O849    1.282   .     A
C821   O850    1.285   .     A
C821   C822    1.477   .     S
C821   O852    1.284   .     A
C822   C826    1.399   .     A
C824   C829    1.415   .     A
C824   H843    1.082   .     S
C825   N846    1.158   .     T
C825   C833    1.451   .     S
C826   H845    1.078   .     S
C826   C828    1.411   .     A
C827   N847    1.158   .     T
C828   C829    1.420   .     A
C828   C830    1.425   .     A
C829   C176    1.412   1_556 S
C830   C174    1.418   1_556 S
C831   C832    1.427   .     A
C832   C833    1.413   .     A
C832   S872    1.794   .     S
H835   O855    0.991   .     S
H836   O858    0.991   .     S
H837   O862    0.990   .     S
H838   C668    1.086   1_655 S
H839   C1254   1.088   1_545 S
O848   Zn874   1.946   .     S
O848   Zn875   1.932   .     S
O848   Zn876   1.928   .     S
O848   Zn873   1.947   .     S
O849   Zn874   1.908   .     S
O850   Zn876   1.917   .     S
O851   Zn875   1.915   .     S
O852   Zn873   1.907   .     S
O853   S213    1.503   1_556 S
O854   S213    1.503   1_556 S
O855   S870    1.682   .     S
O856   S871    1.503   .     D
O857   S871    1.504   .     D
O858   S1309   1.683   1_545 S
O859   Zn873   1.943   .     S
O860   S872    1.503   .     D
O861   S872    1.503   .     D
O862   S872    1.683   .     S
O863   Zn876   1.943   .     S
O864   Zn874   1.924   .     S
O865   Zn875   1.932   .     S
O866   Zn876   1.933   .     S
O867   Zn873   1.925   .     S
O868   Zn874   1.943   .     S
O869   Zn875   1.941   .     S
S871   C1036   1.781   .     S
S871   O1077   1.683   .     S
C877   C887    1.435   .     S
C877   O939    1.269   .     A
C877   O937    1.269   .     A
C878   C879    1.394   .     A
C878   C903    1.424   .     A
C878   C900    1.447   .     S
C879   H915    1.081   .     S
C879   C224    1.401   1_556 S
C880   O940    1.274   .     A
C880   C886    1.452   .     S
C880   O938    1.276   .     A
C881   C882    1.422   .     A
C881   C883    1.423   .     A
C882   C885    1.406   .     A
C882   C904    1.427   .     A
C883   C884    1.399   .     A
C883   S943    1.774   .     S
C884   H914    1.083   .     S
C884   C896    1.393   .     A
C885   C896    1.391   .     A
C885   H913    1.079   .     S
C886   C960    1.333   .     S
C886   H980    1.088   .     S
C887   C1032   1.333   1_455 S
C887   H1057   1.086   1_455 S
C888   C897    1.393   .     A
C888   C895    1.397   .     A
C888   H917    1.083   .     S
C889   C892    1.452   .     S
C889   C1109   1.351   .     S
C889   H1131   1.088   .     S
C890   C891    1.426   .     S
C891   O932    1.268   .     A
C891   O941    1.270   .     A
C892   O936    1.255   .     A
C892   O942    1.277   .     A
C893   O924    1.279   .     A
C893   C896    1.459   .     S
C893   O922    1.282   .     A
C894   O923    1.285   .     A
C894   C895    1.477   .     S
C894   O925    1.284   .     A
C895   C899    1.399   .     A
C897   C902    1.415   .     A
C897   H916    1.082   .     S
C898   N919    1.158   .     T
C898   C906    1.451   .     S
C899   H918    1.078   .     S
C899   C901    1.411   .     A
C900   N920    1.158   .     T
C901   C902    1.420   .     A
C901   C903    1.425   .     A
C902   C249    1.412   1_556 S
C903   C247    1.418   1_556 S
C904   C905    1.427   .     A
C905   C906    1.413   .     A
C905   S945    1.794   .     S
H907   C1032   1.088   1_455 S
H908   O928    0.991   .     S
H909   O931    0.991   .     S
H910   O935    0.990   .     S
H911   C960    1.086   .     S
O921   Zn947   1.946   .     S
O921   Zn948   1.932   .     S
O921   Zn949   1.928   .     S
O921   Zn946   1.947   .     S
O922   Zn947   1.908   .     S
O923   Zn949   1.917   .     S
O924   Zn948   1.915   .     S
O925   Zn946   1.907   .     S
O926   S286    1.503   1_556 S
O927   S286    1.503   1_556 S
O928   S943    1.682   .     S
O929   S944    1.503   .     D
O930   S944    1.504   .     D
O932   Zn946   1.943   .     S
O933   S945    1.503   .     D
O934   S945    1.503   .     D
O935   S945    1.683   .     S
O936   Zn949   1.943   .     S
O937   Zn947   1.924   .     S
O938   Zn948   1.932   .     S
O939   Zn949   1.933   .     S
O940   Zn946   1.925   .     S
O941   Zn947   1.943   .     S
O942   Zn948   1.941   .     S
S944   C1109   1.781   .     S
S944   O1150   1.683   .     S
C950   C960    1.435   .     S
C950   O1012   1.269   .     A
C950   O1010   1.269   .     A
C951   C952    1.394   .     A
C951   C976    1.424   .     A
C951   C973    1.447   .     S
C952   H988    1.081   .     S
C952   C297    1.401   1_556 S
C953   O1013   1.274   .     A
C953   C959    1.452   .     S
C953   O1011   1.276   .     A
C954   C955    1.422   .     A
C954   C956    1.423   .     A
C955   C958    1.406   .     A
C955   C977    1.427   .     A
C956   C957    1.399   .     A
C956   S1016   1.774   .     S
C957   H987    1.083   .     S
C957   C969    1.393   .     A
C958   C969    1.391   .     A
C958   H986    1.079   .     S
C959   C1033   1.333   .     S
C959   H1053   1.088   .     S
C961   C970    1.393   .     A
C961   C968    1.397   .     A
C961   H990    1.083   .     S
C962   C965    1.452   .     S
C962   C1182   1.351   .     S
C962   H1204   1.088   .     S
C963   C964    1.426   .     S
C964   O1005   1.268   .     A
C964   O1014   1.270   .     A
C965   O1009   1.255   .     A
C965   O1015   1.277   .     A
C966   O997    1.279   .     A
C966   C969    1.459   .     S
C966   O995    1.282   .     A
C967   O996    1.285   .     A
C967   C968    1.477   .     S
C967   O998    1.284   .     A
C968   C972    1.399   .     A
C970   C975    1.415   .     A
C970   H989    1.082   .     S
C971   N992    1.158   .     T
C971   C979    1.451   .     S
C972   H991    1.078   .     S
C972   C974    1.411   .     A
C973   N993    1.158   .     T
C974   C975    1.420   .     A
C974   C976    1.425   .     A
C975   C322    1.412   1_556 S
C976   C320    1.418   1_556 S
C977   C978    1.427   .     A
C978   C979    1.413   .     A
C978   S1018   1.794   .     S
H981   O1001   0.991   .     S
H982   O1004   0.991   .     S
H983   O1008   0.990   .     S
H984   C1033   1.086   .     S
O994   Zn1020  1.946   .     S
O994   Zn1021  1.932   .     S
O994   Zn1022  1.928   .     S
O994   Zn1019  1.947   .     S
O995   Zn1020  1.908   .     S
O996   Zn1022  1.917   .     S
O997   Zn1021  1.915   .     S
O998   Zn1019  1.907   .     S
O999   S359    1.503   1_556 S
O1000  S359    1.503   1_556 S
O1001  S1016   1.682   .     S
O1002  S1017   1.503   .     D
O1003  S1017   1.504   .     D
O1005  Zn1019  1.943   .     S
O1006  S1018   1.503   .     D
O1007  S1018   1.503   .     D
O1008  S1018   1.683   .     S
O1009  Zn1022  1.943   .     S
O1010  Zn1020  1.924   .     S
O1011  Zn1021  1.932   .     S
O1012  Zn1022  1.933   .     S
O1013  Zn1019  1.925   .     S
O1014  Zn1020  1.943   .     S
O1015  Zn1021  1.941   .     S
S1017  C1182   1.781   .     S
S1017  O1223   1.683   .     S
C1023  C1033   1.435   .     S
C1023  O1085   1.269   .     A
C1023  O1083   1.269   .     A
C1024  C1025   1.394   .     A
C1024  C1049   1.424   .     A
C1024  C1046   1.447   .     S
C1025  H1061   1.081   .     S
C1025  C370    1.401   1_556 S
C1026  O1086   1.274   .     A
C1026  C1032   1.452   .     S
C1026  O1084   1.276   .     A
C1027  C1028   1.422   .     A
C1027  C1029   1.423   .     A
C1028  C1031   1.406   .     A
C1028  C1050   1.427   .     A
C1029  C1030   1.399   .     A
C1029  S1089   1.774   .     S
C1030  H1060   1.083   .     S
C1030  C1042   1.393   .     A
C1031  C1042   1.391   .     A
C1031  H1059   1.079   .     S
C1032  C887    1.333   1_655 S
C1032  H907    1.088   1_655 S
C1034  C1043   1.393   .     A
C1034  C1041   1.397   .     A
C1034  H1063   1.083   .     S
C1035  C1038   1.452   .     S
C1035  C1255   1.351   .     S
C1035  H1277   1.088   .     S
C1036  C1037   1.426   .     S
C1037  O1078   1.268   .     A
C1037  O1087   1.270   .     A
C1038  O1082   1.255   .     A
C1038  O1088   1.277   .     A
C1039  O1070   1.279   .     A
C1039  C1042   1.459   .     S
C1039  O1068   1.282   .     A
C1040  O1069   1.285   .     A
C1040  C1041   1.477   .     S
C1040  O1071   1.284   .     A
C1041  C1045   1.399   .     A
C1043  C1048   1.415   .     A
C1043  H1062   1.082   .     S
C1044  N1065   1.158   .     T
C1044  C1052   1.451   .     S
C1045  H1064   1.078   .     S
C1045  C1047   1.411   .     A
C1046  N1066   1.158   .     T
C1047  C1048   1.420   .     A
C1047  C1049   1.425   .     A
C1048  C395    1.412   1_556 S
C1049  C393    1.418   1_556 S
C1050  C1051   1.427   .     A
C1051  C1052   1.413   .     A
C1051  S1091   1.794   .     S
H1054  O1074   0.991   .     S
H1055  O1077   0.991   .     S
H1056  O1081   0.990   .     S
H1057  C887    1.086   1_655 S
O1067  Zn1093  1.946   .     S
O1067  Zn1094  1.932   .     S
O1067  Zn1095  1.928   .     S
O1067  Zn1092  1.947   .     S
O1068  Zn1093  1.908   .     S
O1069  Zn1095  1.917   .     S
O1070  Zn1094  1.915   .     S
O1071  Zn1092  1.907   .     S
O1072  S432    1.503   1_556 S
O1073  S432    1.503   1_556 S
O1074  S1089   1.682   .     S
O1075  S1090   1.503   .     D
O1076  S1090   1.504   .     D
O1078  Zn1092  1.943   .     S
O1079  S1091   1.503   .     D
O1080  S1091   1.503   .     D
O1081  S1091   1.683   .     S
O1082  Zn1095  1.943   .     S
O1083  Zn1093  1.924   .     S
O1084  Zn1094  1.932   .     S
O1085  Zn1095  1.933   .     S
O1086  Zn1092  1.925   .     S
O1087  Zn1093  1.943   .     S
O1088  Zn1094  1.941   .     S
S1090  C1255   1.781   .     S
S1090  O1296   1.683   .     S
C1096  C1106   1.435   .     S
C1096  O1158   1.269   .     A
C1096  O1156   1.269   .     A
C1097  C1098   1.394   .     A
C1097  C1122   1.424   .     A
C1097  C1119   1.447   .     S
C1098  H1134   1.081   .     S
C1098  C443    1.401   1_556 S
C1099  O1159   1.274   .     A
C1099  C1105   1.452   .     S
C1099  O1157   1.276   .     A
C1100  C1101   1.422   .     A
C1100  C1102   1.423   .     A
C1101  C1104   1.406   .     A
C1101  C1123   1.427   .     A
C1102  C1103   1.399   .     A
C1102  S1162   1.774   .     S
C1103  H1133   1.083   .     S
C1103  C1115   1.393   .     A
C1104  C1115   1.391   .     A
C1104  H1132   1.079   .     S
C1105  C1179   1.333   .     S
C1105  H1199   1.088   .     S
C1106  C1251   1.333   1_455 S
C1106  H1276   1.086   1_455 S
C1107  C1116   1.393   .     A
C1107  C1114   1.397   .     A
C1107  H1136   1.083   .     S
C1108  C1111   1.452   .     S
C1108  C671    1.351   1_565 S
C1108  H693    1.088   1_565 S
C1109  C1110   1.426   .     S
C1110  O1151   1.268   .     A
C1110  O1160   1.270   .     A
C1111  O1155   1.255   .     A
C1111  O1161   1.277   .     A
C1112  O1143   1.279   .     A
C1112  C1115   1.459   .     S
C1112  O1141   1.282   .     A
C1113  O1142   1.285   .     A
C1113  C1114   1.477   .     S
C1113  O1144   1.284   .     A
C1114  C1118   1.399   .     A
C1116  C1121   1.415   .     A
C1116  H1135   1.082   .     S
C1117  N1138   1.158   .     T
C1117  C1125   1.451   .     S
C1118  H1137   1.078   .     S
C1118  C1120   1.411   .     A
C1119  N1139   1.158   .     T
C1120  C1121   1.420   .     A
C1120  C1122   1.425   .     A
C1121  C468    1.412   1_556 S
C1122  C466    1.418   1_556 S
C1123  C1124   1.427   .     A
C1124  C1125   1.413   .     A
C1124  S1164   1.794   .     S
H1126  C1251   1.088   1_455 S
H1127  O1147   0.991   .     S
H1128  O1150   0.991   .     S
H1129  O1154   0.990   .     S
H1130  C1179   1.086   .     S
O1140  Zn1166  1.946   .     S
O1140  Zn1167  1.932   .     S
O1140  Zn1168  1.928   .     S
O1140  Zn1165  1.947   .     S
O1141  Zn1166  1.908   .     S
O1142  Zn1168  1.917   .     S
O1143  Zn1167  1.915   .     S
O1144  Zn1165  1.907   .     S
O1145  S505    1.503   1_556 S
O1146  S505    1.503   1_556 S
O1147  S1162   1.682   .     S
O1148  S1163   1.503   .     D
O1149  S1163   1.504   .     D
O1151  Zn1165  1.943   .     S
O1152  S1164   1.503   .     D
O1153  S1164   1.503   .     D
O1154  S1164   1.683   .     S
O1155  Zn1168  1.943   .     S
O1156  Zn1166  1.924   .     S
O1157  Zn1167  1.932   .     S
O1158  Zn1168  1.933   .     S
O1159  Zn1165  1.925   .     S
O1160  Zn1166  1.943   .     S
O1161  Zn1167  1.941   .     S
S1163  C671    1.781   1_565 S
S1163  O712    1.683   1_565 S
C1169  C1179   1.435   .     S
C1169  O1231   1.269   .     A
C1169  O1229   1.269   .     A
C1170  C1171   1.394   .     A
C1170  C1195   1.424   .     A
C1170  C1192   1.447   .     S
C1171  H1207   1.081   .     S
C1171  C516    1.401   1_556 S
C1172  O1232   1.274   .     A
C1172  C1178   1.452   .     S
C1172  O1230   1.276   .     A
C1173  C1174   1.422   .     A
C1173  C1175   1.423   .     A
C1174  C1177   1.406   .     A
C1174  C1196   1.427   .     A
C1175  C1176   1.399   .     A
C1175  S1235   1.774   .     S
C1176  H1206   1.083   .     S
C1176  C1188   1.393   .     A
C1177  C1188   1.391   .     A
C1177  H1205   1.079   .     S
C1178  C1252   1.333   .     S
C1178  H1272   1.088   .     S
C1180  C1189   1.393   .     A
C1180  C1187   1.397   .     A
C1180  H1209   1.083   .     S
C1181  C1184   1.452   .     S
C1181  C744    1.351   1_565 S
C1181  H766    1.088   1_565 S
C1182  C1183   1.426   .     S
C1183  O1224   1.268   .     A
C1183  O1233   1.270   .     A
C1184  O1228   1.255   .     A
C1184  O1234   1.277   .     A
C1185  O1216   1.279   .     A
C1185  C1188   1.459   .     S
C1185  O1214   1.282   .     A
C1186  O1215   1.285   .     A
C1186  C1187   1.477   .     S
C1186  O1217   1.284   .     A
C1187  C1191   1.399   .     A
C1189  C1194   1.415   .     A
C1189  H1208   1.082   .     S
C1190  N1211   1.158   .     T
C1190  C1198   1.451   .     S
C1191  H1210   1.078   .     S
C1191  C1193   1.411   .     A
C1192  N1212   1.158   .     T
C1193  C1194   1.420   .     A
C1193  C1195   1.425   .     A
C1194  C541    1.412   1_556 S
C1195  C539    1.418   1_556 S
C1196  C1197   1.427   .     A
C1197  C1198   1.413   .     A
C1197  S1237   1.794   .     S
H1200  O1220   0.991   .     S
H1201  O1223   0.991   .     S
H1202  O1227   0.990   .     S
H1203  C1252   1.086   .     S
O1213  Zn1239  1.946   .     S
O1213  Zn1240  1.932   .     S
O1213  Zn1241  1.928   .     S
O1213  Zn1238  1.947   .     S
O1214  Zn1239  1.908   .     S
O1215  Zn1241  1.917   .     S
O1216  Zn1240  1.915   .     S
O1217  Zn1238  1.907   .     S
O1218  S578    1.503   1_556 S
O1219  S578    1.503   1_556 S
O1220  S1235   1.682   .     S
O1221  S1236   1.503   .     D
O1222  S1236   1.504   .     D
O1224  Zn1238  1.943   .     S
O1225  S1237   1.503   .     D
O1226  S1237   1.503   .     D
O1227  S1237   1.683   .     S
O1228  Zn1241  1.943   .     S
O1229  Zn1239  1.924   .     S
O1230  Zn1240  1.932   .     S
O1231  Zn1241  1.933   .     S
O1232  Zn1238  1.925   .     S
O1233  Zn1239  1.943   .     S
O1234  Zn1240  1.941   .     S
S1236  C744    1.781   1_565 S
S1236  O785    1.683   1_565 S
C1242  C1252   1.435   .     S
C1242  O1304   1.269   .     A
C1242  O1302   1.269   .     A
C1243  C1244   1.394   .     A
C1243  C1268   1.424   .     A
C1243  C1265   1.447   .     S
C1244  H1280   1.081   .     S
C1244  C589    1.401   1_556 S
C1245  O1305   1.274   .     A
C1245  C1251   1.452   .     S
C1245  O1303   1.276   .     A
C1246  C1247   1.422   .     A
C1246  C1248   1.423   .     A
C1247  C1250   1.406   .     A
C1247  C1269   1.427   .     A
C1248  C1249   1.399   .     A
C1248  S1308   1.774   .     S
C1249  H1279   1.083   .     S
C1249  C1261   1.393   .     A
C1250  C1261   1.391   .     A
C1250  H1278   1.079   .     S
C1251  C1106   1.333   1_655 S
C1251  H1126   1.088   1_655 S
C1253  C1262   1.393   .     A
C1253  C1260   1.397   .     A
C1253  H1282   1.083   .     S
C1254  C1257   1.452   .     S
C1254  C817    1.351   1_565 S
C1254  H839    1.088   1_565 S
C1255  C1256   1.426   .     S
C1256  O1297   1.268   .     A
C1256  O1306   1.270   .     A
C1257  O1301   1.255   .     A
C1257  O1307   1.277   .     A
C1258  O1289   1.279   .     A
C1258  C1261   1.459   .     S
C1258  O1287   1.282   .     A
C1259  O1288   1.285   .     A
C1259  C1260   1.477   .     S
C1259  O1290   1.284   .     A
C1260  C1264   1.399   .     A
C1262  C1267   1.415   .     A
C1262  H1281   1.082   .     S
C1263  N1284   1.158   .     T
C1263  C1271   1.451   .     S
C1264  H1283   1.078   .     S
C1264  C1266   1.411   .     A
C1265  N1285   1.158   .     T
C1266  C1267   1.420   .     A
C1266  C1268   1.425   .     A
C1267  C614    1.412   1_556 S
C1268  C612    1.418   1_556 S
C1269  C1270   1.427   .     A
C1270  C1271   1.413   .     A
C1270  S1310   1.794   .     S
H1273  O1293   0.991   .     S
H1274  O1296   0.991   .     S
H1275  O1300   0.990   .     S
H1276  C1106   1.086   1_655 S
O1286  Zn1312  1.946   .     S
O1286  Zn1313  1.932   .     S
O1286  Zn1314  1.928   .     S
O1286  Zn1311  1.947   .     S
O1287  Zn1312  1.908   .     S
O1288  Zn1314  1.917   .     S
O1289  Zn1313  1.915   .     S
O1290  Zn1311  1.907   .     S
O1291  S651    1.503   1_556 S
O1292  S651    1.503   1_556 S
O1293  S1308   1.682   .     S
O1294  S1309   1.503   .     D
O1295  S1309   1.504   .     D
O1297  Zn1311  1.943   .     S
O1298  S1310   1.503   .     D
O1299  S1310   1.503   .     D
O1300  S1310   1.683   .     S
O1301  Zn1314  1.943   .     S
O1302  Zn1312  1.924   .     S
O1303  Zn1313  1.932   .     S
O1304  Zn1314  1.933   .     S
O1305  Zn1311  1.925   .     S
O1306  Zn1312  1.943   .     S
O1307  Zn1313  1.941   .     S
S1309  C817    1.781   1_565 S
S1309  O858    1.683   1_565 S
