data_str_m1_o5_o17_pcu_sym.66
_audit_creation_date              2020-01-03
_audit_creation_method            'Materials Studio'
_symmetry_space_group_name_H-M    'P1'
_symmetry_Int_Tables_number       1
_symmetry_cell_setting            triclinic
loop_
_symmetry_equiv_pos_as_xyz
  x,y,z
_cell_length_a                    31.7519
_cell_length_b                    31.7551
_cell_length_c                    34.5942
_cell_angle_alpha                 90.0000
_cell_angle_beta                  90.0001
_cell_angle_gamma                 90.0001
loop_
_atom_site_label
_atom_site_type_symbol
_atom_site_fract_x
_atom_site_fract_y
_atom_site_fract_z
_atom_site_U_iso_or_equiv
_atom_site_adp_type
_atom_site_occupancy
C1     C     0.25000   0.00000   0.35606   0.00000  Uiso   1.00
C2     C     0.33001   0.41999   0.75000   0.00000  Uiso   1.00
C3     C     0.00012   0.17237   0.02044   0.00000  Uiso   1.00
C4     C     0.32758   0.00304   0.97956   0.00000  Uiso   1.00
C5     C     0.17240   0.49738   0.02043   0.00000  Uiso   1.00
C6     C     0.49979   0.17237   0.97956   0.00000  Uiso   1.00
C7     C     0.49987   0.32763   0.02044   0.00000  Uiso   1.00
C8     C     0.38171   0.24911   0.45805   0.00000  Uiso   1.00
C9     C     0.11822   0.25409   0.54195   0.00000  Uiso   1.00
C10    C     0.24874   0.11828   0.45805   0.00000  Uiso   1.00
C11    C     0.24828   0.38173   0.54195   0.00000  Uiso   1.00
C12    C     0.11830   0.25110   0.45805   0.00000  Uiso   1.00
C13    C     0.41999   0.16999   0.25000   0.00000  Uiso   1.00
C14    C     0.38177   0.24613   0.54195   0.00000  Uiso   1.00
C15    C     0.25126   0.38172   0.45805   0.00000  Uiso   1.00
C16    C     0.25173   0.11827   0.54195   0.00000  Uiso   1.00
C17    C     0.13185   0.49419   0.95804   0.00000  Uiso   1.00
C18    C     0.36827   0.00296   0.04195   0.00000  Uiso   1.00
C19    C     0.00155   0.36827   0.95805   0.00000  Uiso   1.00
C20    C     0.00141   0.13172   0.04195   0.00000  Uiso   1.00
C21    C     0.36815   0.00592   0.95804   0.00000  Uiso   1.00
C22    C     0.13173   0.49717   0.04195   0.00000  Uiso   1.00
C23    C     0.49846   0.13173   0.95805   0.00000  Uiso   1.00
C24    C     0.08001   0.33001   0.75000   0.00000  Uiso   1.00
C25    C     0.49857   0.36828   0.04195   0.00000  Uiso   1.00
C26    C     0.33001   0.41999   0.25000   0.00000  Uiso   1.00
C27    C     0.16999   0.08001   0.75000   0.00000  Uiso   1.00
C28    C     0.08001   0.33001   0.25000   0.00000  Uiso   1.00
C29    C     0.41999   0.16999   0.75000   0.00000  Uiso   1.00
C30    C     0.16999   0.41999   0.75000   0.00000  Uiso   1.00
C31    C     0.33001   0.08001   0.25000   0.00000  Uiso   1.00
C32    C     0.41999   0.33001   0.75000   0.00000  Uiso   1.00
C33    C     0.25000   0.00000   0.64394   0.00000  Uiso   1.00
C34    C     0.08001   0.16999   0.25000   0.00000  Uiso   1.00
C35    C     0.33001   0.08001   0.75000   0.00000  Uiso   1.00
C36    C     0.16999   0.41999   0.25000   0.00000  Uiso   1.00
C37    C     0.08001   0.16999   0.75000   0.00000  Uiso   1.00
C38    C     0.41999   0.33001   0.25000   0.00000  Uiso   1.00
C39    C     0.13834   0.38834   0.25000   0.00000  Uiso   1.00
C40    C     0.36166   0.11166   0.75000   0.00000  Uiso   1.00
C41    C     0.11166   0.13834   0.25000   0.00000  Uiso   1.00
C42    C     0.38834   0.36166   0.75000   0.00000  Uiso   1.00
C43    C     0.36166   0.11166   0.25000   0.00000  Uiso   1.00
C44    C     0.00000   0.25000   0.35606   0.00000  Uiso   1.00
C45    C     0.13834   0.38834   0.75000   0.00000  Uiso   1.00
C46    C     0.38834   0.36166   0.25000   0.00000  Uiso   1.00
C47    C     0.11166   0.13834   0.75000   0.00000  Uiso   1.00
C48    C     0.13834   0.11166   0.75000   0.00000  Uiso   1.00
C49    C     0.36166   0.38834   0.25000   0.00000  Uiso   1.00
C50    C     0.11166   0.36166   0.75000   0.00000  Uiso   1.00
C51    C     0.38834   0.13834   0.25000   0.00000  Uiso   1.00
C52    C     0.36166   0.38834   0.75000   0.00000  Uiso   1.00
C53    C     0.13834   0.11166   0.25000   0.00000  Uiso   1.00
C54    C     0.38834   0.13834   0.75000   0.00000  Uiso   1.00
C55    C     0.00000   0.25000   0.64394   0.00000  Uiso   1.00
C56    C     0.11166   0.36166   0.25000   0.00000  Uiso   1.00
C57    C     0.03798   0.24997   0.41867   0.00000  Uiso   1.00
C58    C     0.46205   0.24846   0.58133   0.00000  Uiso   1.00
C59    C     0.25074   0.46203   0.41867   0.00000  Uiso   1.00
C60    C     0.25088   0.03797   0.58133   0.00000  Uiso   1.00
C61    C     0.46202   0.25008   0.41867   0.00000  Uiso   1.00
C62    C     0.03795   0.25159   0.58133   0.00000  Uiso   1.00
C63    C     0.24926   0.03797   0.41867   0.00000  Uiso   1.00
C64    C     0.24912   0.46203   0.58133   0.00000  Uiso   1.00
C65    C     0.28792   0.00214   0.91866   0.00000  Uiso   1.00
C66    C     0.00000   0.25000   0.85606   0.00000  Uiso   1.00
C67    C     0.21202   0.49950   0.08133   0.00000  Uiso   1.00
C68    C     0.49918   0.21203   0.91867   0.00000  Uiso   1.00
C69    C     0.49922   0.28797   0.08133   0.00000  Uiso   1.00
C70    C     0.21208   0.49789   0.91866   0.00000  Uiso   1.00
C71    C     0.28798   0.00053   0.08133   0.00000  Uiso   1.00
C72    C     0.00083   0.28797   0.91867   0.00000  Uiso   1.00
C73    C     0.00078   0.21203   0.08133   0.00000  Uiso   1.00
C74    C     0.00000   0.25001   0.39849   0.00000  Uiso   1.00
C75    C     0.00000   0.25001   0.60151   0.00000  Uiso   1.00
C76    C     0.25000   0.00000   0.39849   0.00000  Uiso   1.00
C77    C     0.00000   0.25000   0.14394   0.00000  Uiso   1.00
C78    C     0.25000  -0.00000   0.60151   0.00000  Uiso   1.00
C79    C     0.25000   0.00001   0.89849   0.00000  Uiso   1.00
C80    C     0.25000   0.00001   0.10151   0.00000  Uiso   1.00
C81    C     0.00000   0.25000   0.89849   0.00000  Uiso   1.00
C82    C    -0.00000   0.25000   0.10151   0.00000  Uiso   1.00
C83    C     0.46117   0.24926   0.45926   0.00000  Uiso   1.00
C84    C     0.03883   0.25085   0.54075   0.00000  Uiso   1.00
C85    C     0.25007   0.03883   0.45925   0.00000  Uiso   1.00
C86    C     0.24992   0.46117   0.54075   0.00000  Uiso   1.00
C87    C     0.03883   0.25082   0.45926   0.00000  Uiso   1.00
C88    C     0.25000   0.00000   0.85606   0.00000  Uiso   1.00
C89    C     0.46117   0.24924   0.54075   0.00000  Uiso   1.00
C90    C     0.24994   0.46117   0.45926   0.00000  Uiso   1.00
C91    C     0.25009   0.03883   0.54074   0.00000  Uiso   1.00
C92    C     0.21119   0.49863   0.95925   0.00000  Uiso   1.00
C93    C     0.28881   0.00141   0.04074   0.00000  Uiso   1.00
C94    C     0.00003   0.28883   0.95925   0.00000  Uiso   1.00
C95    C     0.49999   0.21117   0.04075   0.00000  Uiso   1.00
C96    C     0.28881   0.00142   0.95925   0.00000  Uiso   1.00
C97    C     0.21119   0.49865   0.04074   0.00000  Uiso   1.00
C98    C     0.49997   0.21117   0.95925   0.00000  Uiso   1.00
C99    C     0.25000   0.00000   0.14394   0.00000  Uiso   1.00
C100   C     0.00001   0.28883   0.04075   0.00000  Uiso   1.00
C101   C     0.00000   0.25004   0.47968   0.00000  Uiso   1.00
C102   C     0.00000   0.25004   0.52032   0.00000  Uiso   1.00
C103   C     0.25000  -0.00000   0.47968   0.00000  Uiso   1.00
C104   C     0.25000  -0.00000   0.52032   0.00000  Uiso   1.00
C105   C     0.25000   0.00002   0.97967   0.00000  Uiso   1.00
C106   C     0.25000   0.00003   0.02032   0.00000  Uiso   1.00
C107   C     0.00000   0.25000   0.97968   0.00000  Uiso   1.00
C108   C     0.00000   0.25000   0.02032   0.00000  Uiso   1.00
C109   C     0.42238   0.24863   0.47957   0.00000  Uiso   1.00
C110   C     0.16999   0.08001   0.25000   0.00000  Uiso   1.00
C111   C     0.07762   0.25185   0.52044   0.00000  Uiso   1.00
C112   C     0.24998   0.07763   0.47956   0.00000  Uiso   1.00
C113   C     0.24968   0.42237   0.52044   0.00000  Uiso   1.00
C114   C     0.07763   0.25150   0.47956   0.00000  Uiso   1.00
C115   C     0.42238   0.24829   0.52044   0.00000  Uiso   1.00
C116   C     0.25002   0.42237   0.47956   0.00000  Uiso   1.00
C117   C     0.25032   0.07763   0.52044   0.00000  Uiso   1.00
C118   C     0.17242   0.49704   0.97956   0.00000  Uiso   1.00
C119   C     0.32760   0.00270   0.02043   0.00000  Uiso   1.00
C120   C     0.00021   0.32763   0.97956   0.00000  Uiso   1.00
H121   H     0.06683   0.24920   0.40215   0.00000  Uiso   1.00
H122   H     0.18316   0.49981   0.09785   0.00000  Uiso   1.00
H123   H     0.49781   0.18321   0.90215   0.00000  Uiso   1.00
H124   H     0.49789   0.31680   0.09785   0.00000  Uiso   1.00
H125   H     0.18332   0.49551   0.90214   0.00000  Uiso   1.00
H126   H     0.31684   0.00022   0.09785   0.00000  Uiso   1.00
H127   H     0.00219   0.31679   0.90215   0.00000  Uiso   1.00
H128   H     0.00211   0.18320   0.09785   0.00000  Uiso   1.00
H129   H     0.37662   0.22774   0.43404   0.00000  Uiso   1.00
H130   H     0.12425   0.23292   0.56594   0.00000  Uiso   1.00
H131   H     0.27001   0.12376   0.43404   0.00000  Uiso   1.00
H132   H     0.43326   0.24652   0.59786   0.00000  Uiso   1.00
H133   H     0.26952   0.37616   0.56597   0.00000  Uiso   1.00
H134   H     0.12333   0.27244   0.43401   0.00000  Uiso   1.00
H135   H     0.37580   0.26728   0.56596   0.00000  Uiso   1.00
H136   H     0.22999   0.37624   0.43404   0.00000  Uiso   1.00
H137   H     0.23048   0.12384   0.56597   0.00000  Uiso   1.00
H138   H     0.12550   0.01527   0.93406   0.00000  Uiso   1.00
H139   H     0.37295   0.02438   0.06600   0.00000  Uiso   1.00
H140   H     0.48029   0.37381   0.93403   0.00000  Uiso   1.00
H141   H     0.48013   0.12621   0.06596   0.00000  Uiso   1.00
H142   H     0.37453   0.48484   0.93408   0.00000  Uiso   1.00
H143   H     0.25203   0.43320   0.40215   0.00000  Uiso   1.00
H144   H     0.12702   0.47574   0.06598   0.00000  Uiso   1.00
H145   H     0.01973   0.12620   0.93403   0.00000  Uiso   1.00
H146   H     0.01985   0.37380   0.06596   0.00000  Uiso   1.00
H147   H     0.25229   0.06679   0.59785   0.00000  Uiso   1.00
H148   H     0.43317   0.25083   0.40215   0.00000  Uiso   1.00
H149   H     0.06675   0.25352   0.59786   0.00000  Uiso   1.00
H150   H     0.24797   0.06680   0.40215   0.00000  Uiso   1.00
H151   H     0.24771   0.43321   0.59785   0.00000  Uiso   1.00
H152   H     0.31668   0.00451   0.90214   0.00000  Uiso   1.00
O153   O     0.25000  -0.00000   0.25000   0.00000  Uiso   1.00
O154   O     0.25000   0.46539   0.66251   0.00000  Uiso   1.00
O155   O     0.46539   0.25000   0.33749   0.00000  Uiso   1.00
O156   O     0.03462   0.25000   0.66251   0.00000  Uiso   1.00
O157   O     0.00000   0.21539   0.83749   0.00000  Uiso   1.00
O158   O     0.00000   0.28462   0.16251   0.00000  Uiso   1.00
O159   O     0.28462  -0.00000   0.83749   0.00000  Uiso   1.00
O160   O     0.21539   0.00000   0.16251   0.00000  Uiso   1.00
O161   O     0.00000   0.28462   0.83749   0.00000  Uiso   1.00
O162   O     0.00000   0.21539   0.16251   0.00000  Uiso   1.00
O163   O     0.21539  -0.00000   0.83749   0.00000  Uiso   1.00
O164   O     0.25000  -0.00000   0.75000   0.00000  Uiso   1.00
O165   O     0.28462   0.00000   0.16251   0.00000  Uiso   1.00
O166   O     0.20127   0.08332   0.27298   0.00000  Uiso   1.00
O167   O     0.29874   0.41668   0.72702   0.00000  Uiso   1.00
O168   O     0.41668   0.20126   0.27298   0.00000  Uiso   1.00
O169   O     0.08332   0.29874   0.72702   0.00000  Uiso   1.00
O170   O     0.29874   0.41668   0.27298   0.00000  Uiso   1.00
O171   O     0.20127   0.08332   0.72702   0.00000  Uiso   1.00
O172   O     0.08332   0.29874   0.27298   0.00000  Uiso   1.00
O173   O     0.41668   0.20126   0.72702   0.00000  Uiso   1.00
O174   O     0.20127   0.41668   0.72702   0.00000  Uiso   1.00
O175   O     0.00000   0.25000   0.25000   0.00000  Uiso   1.00
O176   O     0.29874   0.08332   0.27298   0.00000  Uiso   1.00
O177   O     0.41668   0.29873   0.72702   0.00000  Uiso   1.00
O178   O     0.08332   0.20127   0.27298   0.00000  Uiso   1.00
O179   O     0.29874   0.08332   0.72702   0.00000  Uiso   1.00
O180   O     0.20127   0.41668   0.27298   0.00000  Uiso   1.00
O181   O     0.08332   0.20127   0.72702   0.00000  Uiso   1.00
O182   O     0.41668   0.29873   0.27298   0.00000  Uiso   1.00
O183   O     0.45127   0.33332   0.77298   0.00000  Uiso   1.00
O184   O     0.04874   0.16668   0.22702   0.00000  Uiso   1.00
O185   O     0.16668   0.45127   0.77298   0.00000  Uiso   1.00
O186   O     0.00000   0.25000   0.75000   0.00000  Uiso   1.00
O187   O     0.33332   0.04873   0.22702   0.00000  Uiso   1.00
O188   O     0.04874   0.16668   0.77298   0.00000  Uiso   1.00
O189   O     0.45127   0.33332   0.22702   0.00000  Uiso   1.00
O190   O     0.33332   0.04873   0.77298   0.00000  Uiso   1.00
O191   O     0.16668   0.45127   0.22702   0.00000  Uiso   1.00
O192   O     0.45127   0.16668   0.22702   0.00000  Uiso   1.00
O193   O     0.04874   0.33332   0.77298   0.00000  Uiso   1.00
O194   O     0.16668   0.04873   0.22702   0.00000  Uiso   1.00
O195   O     0.33332   0.45127   0.77298   0.00000  Uiso   1.00
O196   O     0.04874   0.33332   0.22702   0.00000  Uiso   1.00
O197   O     0.25000   0.46539   0.33749   0.00000  Uiso   1.00
O198   O     0.45127   0.16668   0.77298   0.00000  Uiso   1.00
O199   O     0.33332   0.45127   0.22702   0.00000  Uiso   1.00
O200   O     0.16668   0.04873   0.77298   0.00000  Uiso   1.00
O201   O     0.35387   0.27394   0.46666   0.00000  Uiso   1.00
O202   O     0.14493   0.28014   0.53338   0.00000  Uiso   1.00
O203   O     0.22339   0.14564   0.46665   0.00000  Uiso   1.00
O204   O     0.22283   0.35446   0.53334   0.00000  Uiso   1.00
O205   O     0.14621   0.22637   0.46669   0.00000  Uiso   1.00
O206   O     0.35499   0.22016   0.53336   0.00000  Uiso   1.00
O207   O     0.27661   0.35436   0.46665   0.00000  Uiso   1.00
O208   O     0.25000   0.03461   0.66251   0.00000  Uiso   1.00
O209   O     0.27718   0.14554   0.53334   0.00000  Uiso   1.00
O210   O     0.10553   0.46775   0.96661   0.00000  Uiso   1.00
O211   O     0.39659   0.47870   0.03330   0.00000  Uiso   1.00
O212   O     0.02696   0.39558   0.96665   0.00000  Uiso   1.00
O213   O     0.02680   0.10439   0.03336   0.00000  Uiso   1.00
O214   O     0.39442   0.03242   0.96660   0.00000  Uiso   1.00
O215   O     0.10345   0.02147   0.03331   0.00000  Uiso   1.00
O216   O     0.47306   0.10442   0.96665   0.00000  Uiso   1.00
O217   O     0.47318   0.39560   0.03335   0.00000  Uiso   1.00
O218   O     0.03462   0.25000   0.33749   0.00000  Uiso   1.00
O219   O     0.46539   0.25000   0.66251   0.00000  Uiso   1.00
O220   O     0.25000   0.03461   0.33749   0.00000  Uiso   1.00
Zn221  Zn    0.20053  -0.00000   0.21730   0.00000  Uiso   1.00
Zn222  Zn    0.04948   0.25000   0.28270   0.00000  Uiso   1.00
Zn223  Zn    0.25000   0.45053   0.71730   0.00000  Uiso   1.00
Zn224  Zn    0.25000   0.04947   0.28270   0.00000  Uiso   1.00
Zn225  Zn    0.04948   0.25000   0.71730   0.00000  Uiso   1.00
Zn226  Zn    0.45053   0.25000   0.28270   0.00000  Uiso   1.00
Zn227  Zn    0.25000   0.04947   0.71730   0.00000  Uiso   1.00
Zn228  Zn    0.25000   0.45053   0.28270   0.00000  Uiso   1.00
Zn229  Zn    0.29948  -0.00000   0.78270   0.00000  Uiso   1.00
Zn230  Zn    0.00000   0.20053   0.21730   0.00000  Uiso   1.00
Zn231  Zn    0.00000   0.29948   0.78270   0.00000  Uiso   1.00
Zn232  Zn    0.29948  -0.00000   0.21730   0.00000  Uiso   1.00
Zn233  Zn    0.20053  -0.00000   0.78270   0.00000  Uiso   1.00
Zn234  Zn    0.00000   0.29948   0.21730   0.00000  Uiso   1.00
Zn235  Zn    0.00000   0.20053   0.78270   0.00000  Uiso   1.00
Zn236  Zn    0.45053   0.25000   0.71730   0.00000  Uiso   1.00
C237   C     0.75000   0.00000   0.35606   0.00000  Uiso   1.00
C238   C     0.83001   0.41999   0.75000   0.00000  Uiso   1.00
C239   C     0.50012   0.17237   0.02044   0.00000  Uiso   1.00
C240   C     0.82758   0.00304   0.97956   0.00000  Uiso   1.00
C241   C     0.67240   0.49738   0.02043   0.00000  Uiso   1.00
C242   C     0.99979   0.17237   0.97956   0.00000  Uiso   1.00
C243   C     0.99987   0.32763   0.02044   0.00000  Uiso   1.00
C244   C     0.88171   0.24911   0.45805   0.00000  Uiso   1.00
C245   C     0.61822   0.25409   0.54195   0.00000  Uiso   1.00
C246   C     0.74874   0.11828   0.45805   0.00000  Uiso   1.00
C247   C     0.74828   0.38173   0.54195   0.00000  Uiso   1.00
C248   C     0.61830   0.25110   0.45805   0.00000  Uiso   1.00
C249   C     0.91999   0.16999   0.25000   0.00000  Uiso   1.00
C250   C     0.88177   0.24613   0.54195   0.00000  Uiso   1.00
C251   C     0.75126   0.38172   0.45805   0.00000  Uiso   1.00
C252   C     0.75173   0.11827   0.54195   0.00000  Uiso   1.00
C253   C     0.63185   0.49419   0.95804   0.00000  Uiso   1.00
C254   C     0.86827   0.00296   0.04195   0.00000  Uiso   1.00
C255   C     0.50155   0.36827   0.95805   0.00000  Uiso   1.00
C256   C     0.50141   0.13172   0.04195   0.00000  Uiso   1.00
C257   C     0.86815   0.00592   0.95804   0.00000  Uiso   1.00
C258   C     0.63173   0.49717   0.04195   0.00000  Uiso   1.00
C259   C     0.99846   0.13173   0.95805   0.00000  Uiso   1.00
C260   C     0.58001   0.33001   0.75000   0.00000  Uiso   1.00
C261   C     0.99857   0.36828   0.04195   0.00000  Uiso   1.00
C262   C     0.83001   0.41999   0.25000   0.00000  Uiso   1.00
C263   C     0.66999   0.08001   0.75000   0.00000  Uiso   1.00
C264   C     0.58001   0.33001   0.25000   0.00000  Uiso   1.00
C265   C     0.91999   0.16999   0.75000   0.00000  Uiso   1.00
C266   C     0.66999   0.41999   0.75000   0.00000  Uiso   1.00
C267   C     0.83001   0.08001   0.25000   0.00000  Uiso   1.00
C268   C     0.91999   0.33001   0.75000   0.00000  Uiso   1.00
C269   C     0.75000   0.00000   0.64394   0.00000  Uiso   1.00
C270   C     0.58001   0.16999   0.25000   0.00000  Uiso   1.00
C271   C     0.83001   0.08001   0.75000   0.00000  Uiso   1.00
C272   C     0.66999   0.41999   0.25000   0.00000  Uiso   1.00
C273   C     0.58001   0.16999   0.75000   0.00000  Uiso   1.00
C274   C     0.91999   0.33001   0.25000   0.00000  Uiso   1.00
C275   C     0.63834   0.38834   0.25000   0.00000  Uiso   1.00
C276   C     0.86166   0.11166   0.75000   0.00000  Uiso   1.00
C277   C     0.61166   0.13834   0.25000   0.00000  Uiso   1.00
C278   C     0.88834   0.36166   0.75000   0.00000  Uiso   1.00
C279   C     0.86166   0.11166   0.25000   0.00000  Uiso   1.00
C280   C     0.50000   0.25000   0.35606   0.00000  Uiso   1.00
C281   C     0.63834   0.38834   0.75000   0.00000  Uiso   1.00
C282   C     0.88834   0.36166   0.25000   0.00000  Uiso   1.00
C283   C     0.61166   0.13834   0.75000   0.00000  Uiso   1.00
C284   C     0.63834   0.11166   0.75000   0.00000  Uiso   1.00
C285   C     0.86166   0.38834   0.25000   0.00000  Uiso   1.00
C286   C     0.61166   0.36166   0.75000   0.00000  Uiso   1.00
C287   C     0.88834   0.13834   0.25000   0.00000  Uiso   1.00
C288   C     0.86166   0.38834   0.75000   0.00000  Uiso   1.00
C289   C     0.63834   0.11166   0.25000   0.00000  Uiso   1.00
C290   C     0.88834   0.13834   0.75000   0.00000  Uiso   1.00
C291   C     0.50000   0.25000   0.64394   0.00000  Uiso   1.00
C292   C     0.61166   0.36166   0.25000   0.00000  Uiso   1.00
C293   C     0.53798   0.24997   0.41867   0.00000  Uiso   1.00
C294   C     0.96205   0.24846   0.58133   0.00000  Uiso   1.00
C295   C     0.75074   0.46203   0.41867   0.00000  Uiso   1.00
C296   C     0.75088   0.03797   0.58133   0.00000  Uiso   1.00
C297   C     0.96202   0.25008   0.41867   0.00000  Uiso   1.00
C298   C     0.53795   0.25159   0.58133   0.00000  Uiso   1.00
C299   C     0.74926   0.03797   0.41867   0.00000  Uiso   1.00
C300   C     0.74912   0.46203   0.58133   0.00000  Uiso   1.00
C301   C     0.78792   0.00214   0.91866   0.00000  Uiso   1.00
C302   C     0.50000   0.25000   0.85606   0.00000  Uiso   1.00
C303   C     0.71202   0.49950   0.08133   0.00000  Uiso   1.00
C304   C     0.99918   0.21203   0.91867   0.00000  Uiso   1.00
C305   C     0.99922   0.28797   0.08133   0.00000  Uiso   1.00
C306   C     0.71208   0.49789   0.91866   0.00000  Uiso   1.00
C307   C     0.78798   0.00053   0.08133   0.00000  Uiso   1.00
C308   C     0.50083   0.28797   0.91867   0.00000  Uiso   1.00
C309   C     0.50078   0.21203   0.08133   0.00000  Uiso   1.00
C310   C     0.50000   0.25001   0.39849   0.00000  Uiso   1.00
C311   C     0.50000   0.25001   0.60151   0.00000  Uiso   1.00
C312   C     0.75000   0.00000   0.39849   0.00000  Uiso   1.00
C313   C     0.50000   0.25000   0.14394   0.00000  Uiso   1.00
C314   C     0.75000  -0.00000   0.60151   0.00000  Uiso   1.00
C315   C     0.75000   0.00001   0.89849   0.00000  Uiso   1.00
C316   C     0.75000   0.00001   0.10151   0.00000  Uiso   1.00
C317   C     0.50000   0.25000   0.89849   0.00000  Uiso   1.00
C318   C     0.50000   0.25000   0.10151   0.00000  Uiso   1.00
C319   C     0.96117   0.24926   0.45926   0.00000  Uiso   1.00
C320   C     0.53883   0.25085   0.54075   0.00000  Uiso   1.00
C321   C     0.75007   0.03883   0.45925   0.00000  Uiso   1.00
C322   C     0.74992   0.46117   0.54075   0.00000  Uiso   1.00
C323   C     0.53883   0.25082   0.45926   0.00000  Uiso   1.00
C324   C     0.75000   0.00000   0.85606   0.00000  Uiso   1.00
C325   C     0.96117   0.24924   0.54075   0.00000  Uiso   1.00
C326   C     0.74994   0.46117   0.45926   0.00000  Uiso   1.00
C327   C     0.75009   0.03883   0.54074   0.00000  Uiso   1.00
C328   C     0.71119   0.49863   0.95925   0.00000  Uiso   1.00
C329   C     0.78881   0.00141   0.04074   0.00000  Uiso   1.00
C330   C     0.50003   0.28883   0.95925   0.00000  Uiso   1.00
C331   C     0.99999   0.21117   0.04075   0.00000  Uiso   1.00
C332   C     0.78881   0.00142   0.95925   0.00000  Uiso   1.00
C333   C     0.71119   0.49865   0.04074   0.00000  Uiso   1.00
C334   C     0.99997   0.21117   0.95925   0.00000  Uiso   1.00
C335   C     0.75000   0.00000   0.14394   0.00000  Uiso   1.00
C336   C     0.50001   0.28883   0.04075   0.00000  Uiso   1.00
C337   C     0.50000   0.25004   0.47968   0.00000  Uiso   1.00
C338   C     0.50000   0.25004   0.52032   0.00000  Uiso   1.00
C339   C     0.75000  -0.00000   0.47968   0.00000  Uiso   1.00
C340   C     0.75000  -0.00000   0.52032   0.00000  Uiso   1.00
C341   C     0.75000   0.00002   0.97967   0.00000  Uiso   1.00
C342   C     0.75000   0.00003   0.02032   0.00000  Uiso   1.00
C343   C     0.50000   0.25000   0.97968   0.00000  Uiso   1.00
C344   C     0.50000   0.25000   0.02032   0.00000  Uiso   1.00
C345   C     0.92238   0.24863   0.47957   0.00000  Uiso   1.00
C346   C     0.66999   0.08001   0.25000   0.00000  Uiso   1.00
C347   C     0.57762   0.25185   0.52044   0.00000  Uiso   1.00
C348   C     0.74998   0.07763   0.47956   0.00000  Uiso   1.00
C349   C     0.74968   0.42237   0.52044   0.00000  Uiso   1.00
C350   C     0.57763   0.25150   0.47956   0.00000  Uiso   1.00
C351   C     0.92238   0.24829   0.52044   0.00000  Uiso   1.00
C352   C     0.75002   0.42237   0.47956   0.00000  Uiso   1.00
C353   C     0.75032   0.07763   0.52044   0.00000  Uiso   1.00
C354   C     0.67242   0.49704   0.97956   0.00000  Uiso   1.00
C355   C     0.82760   0.00270   0.02043   0.00000  Uiso   1.00
C356   C     0.50021   0.32763   0.97956   0.00000  Uiso   1.00
H357   H     0.56683   0.24920   0.40215   0.00000  Uiso   1.00
H358   H     0.68316   0.49981   0.09785   0.00000  Uiso   1.00
H359   H     0.99781   0.18321   0.90215   0.00000  Uiso   1.00
H360   H     0.99789   0.31680   0.09785   0.00000  Uiso   1.00
H361   H     0.68332   0.49551   0.90214   0.00000  Uiso   1.00
H362   H     0.81684   0.00022   0.09785   0.00000  Uiso   1.00
H363   H     0.50219   0.31679   0.90215   0.00000  Uiso   1.00
H364   H     0.50211   0.18320   0.09785   0.00000  Uiso   1.00
H365   H     0.87662   0.22774   0.43404   0.00000  Uiso   1.00
H366   H     0.62425   0.23292   0.56594   0.00000  Uiso   1.00
H367   H     0.77001   0.12376   0.43404   0.00000  Uiso   1.00
H368   H     0.93326   0.24652   0.59786   0.00000  Uiso   1.00
H369   H     0.76952   0.37616   0.56597   0.00000  Uiso   1.00
H370   H     0.62333   0.27244   0.43401   0.00000  Uiso   1.00
H371   H     0.87580   0.26728   0.56596   0.00000  Uiso   1.00
H372   H     0.72999   0.37624   0.43404   0.00000  Uiso   1.00
H373   H     0.73048   0.12384   0.56597   0.00000  Uiso   1.00
H374   H     0.62550   0.01527   0.93406   0.00000  Uiso   1.00
H375   H     0.87295   0.02438   0.06600   0.00000  Uiso   1.00
H376   H     0.98029   0.37381   0.93403   0.00000  Uiso   1.00
H377   H     0.98013   0.12621   0.06596   0.00000  Uiso   1.00
H378   H     0.87453   0.48484   0.93408   0.00000  Uiso   1.00
H379   H     0.75203   0.43320   0.40215   0.00000  Uiso   1.00
H380   H     0.62702   0.47574   0.06598   0.00000  Uiso   1.00
H381   H     0.51973   0.12620   0.93403   0.00000  Uiso   1.00
H382   H     0.51985   0.37380   0.06596   0.00000  Uiso   1.00
H383   H     0.75229   0.06679   0.59785   0.00000  Uiso   1.00
H384   H     0.93317   0.25083   0.40215   0.00000  Uiso   1.00
H385   H     0.56675   0.25352   0.59786   0.00000  Uiso   1.00
H386   H     0.74797   0.06680   0.40215   0.00000  Uiso   1.00
H387   H     0.74771   0.43321   0.59785   0.00000  Uiso   1.00
H388   H     0.81668   0.00451   0.90214   0.00000  Uiso   1.00
O389   O     0.75000  -0.00000   0.25000   0.00000  Uiso   1.00
O390   O     0.75000   0.46539   0.66251   0.00000  Uiso   1.00
O391   O     0.96539   0.25000   0.33749   0.00000  Uiso   1.00
O392   O     0.53462   0.25000   0.66251   0.00000  Uiso   1.00
O393   O     0.50000   0.21539   0.83749   0.00000  Uiso   1.00
O394   O     0.50000   0.28462   0.16251   0.00000  Uiso   1.00
O395   O     0.78462  -0.00000   0.83749   0.00000  Uiso   1.00
O396   O     0.71539   0.00000   0.16251   0.00000  Uiso   1.00
O397   O     0.50000   0.28462   0.83749   0.00000  Uiso   1.00
O398   O     0.50000   0.21539   0.16251   0.00000  Uiso   1.00
O399   O     0.71539  -0.00000   0.83749   0.00000  Uiso   1.00
O400   O     0.75000  -0.00000   0.75000   0.00000  Uiso   1.00
O401   O     0.78462   0.00000   0.16251   0.00000  Uiso   1.00
O402   O     0.70127   0.08332   0.27298   0.00000  Uiso   1.00
O403   O     0.79874   0.41668   0.72702   0.00000  Uiso   1.00
O404   O     0.91668   0.20126   0.27298   0.00000  Uiso   1.00
O405   O     0.58332   0.29874   0.72702   0.00000  Uiso   1.00
O406   O     0.79874   0.41668   0.27298   0.00000  Uiso   1.00
O407   O     0.70127   0.08332   0.72702   0.00000  Uiso   1.00
O408   O     0.58332   0.29874   0.27298   0.00000  Uiso   1.00
O409   O     0.91668   0.20126   0.72702   0.00000  Uiso   1.00
O410   O     0.70127   0.41668   0.72702   0.00000  Uiso   1.00
O411   O     0.50000   0.25000   0.25000   0.00000  Uiso   1.00
O412   O     0.79874   0.08332   0.27298   0.00000  Uiso   1.00
O413   O     0.91668   0.29873   0.72702   0.00000  Uiso   1.00
O414   O     0.58332   0.20127   0.27298   0.00000  Uiso   1.00
O415   O     0.79874   0.08332   0.72702   0.00000  Uiso   1.00
O416   O     0.70127   0.41668   0.27298   0.00000  Uiso   1.00
O417   O     0.58332   0.20127   0.72702   0.00000  Uiso   1.00
O418   O     0.91668   0.29873   0.27298   0.00000  Uiso   1.00
O419   O     0.95127   0.33332   0.77298   0.00000  Uiso   1.00
O420   O     0.54874   0.16668   0.22702   0.00000  Uiso   1.00
O421   O     0.66668   0.45127   0.77298   0.00000  Uiso   1.00
O422   O     0.50000   0.25000   0.75000   0.00000  Uiso   1.00
O423   O     0.83332   0.04873   0.22702   0.00000  Uiso   1.00
O424   O     0.54874   0.16668   0.77298   0.00000  Uiso   1.00
O425   O     0.95127   0.33332   0.22702   0.00000  Uiso   1.00
O426   O     0.83332   0.04873   0.77298   0.00000  Uiso   1.00
O427   O     0.66668   0.45127   0.22702   0.00000  Uiso   1.00
O428   O     0.95127   0.16668   0.22702   0.00000  Uiso   1.00
O429   O     0.54874   0.33332   0.77298   0.00000  Uiso   1.00
O430   O     0.66668   0.04873   0.22702   0.00000  Uiso   1.00
O431   O     0.83332   0.45127   0.77298   0.00000  Uiso   1.00
O432   O     0.54874   0.33332   0.22702   0.00000  Uiso   1.00
O433   O     0.75000   0.46539   0.33749   0.00000  Uiso   1.00
O434   O     0.95127   0.16668   0.77298   0.00000  Uiso   1.00
O435   O     0.83332   0.45127   0.22702   0.00000  Uiso   1.00
O436   O     0.66668   0.04873   0.77298   0.00000  Uiso   1.00
O437   O     0.85387   0.27394   0.46666   0.00000  Uiso   1.00
O438   O     0.64493   0.28014   0.53338   0.00000  Uiso   1.00
O439   O     0.72339   0.14564   0.46665   0.00000  Uiso   1.00
O440   O     0.72283   0.35446   0.53334   0.00000  Uiso   1.00
O441   O     0.64621   0.22637   0.46669   0.00000  Uiso   1.00
O442   O     0.85499   0.22016   0.53336   0.00000  Uiso   1.00
O443   O     0.77661   0.35436   0.46665   0.00000  Uiso   1.00
O444   O     0.75000   0.03461   0.66251   0.00000  Uiso   1.00
O445   O     0.77718   0.14554   0.53334   0.00000  Uiso   1.00
O446   O     0.60553   0.46775   0.96661   0.00000  Uiso   1.00
O447   O     0.89659   0.47870   0.03330   0.00000  Uiso   1.00
O448   O     0.52696   0.39558   0.96665   0.00000  Uiso   1.00
O449   O     0.52680   0.10439   0.03336   0.00000  Uiso   1.00
O450   O     0.89442   0.03242   0.96660   0.00000  Uiso   1.00
O451   O     0.60345   0.02147   0.03331   0.00000  Uiso   1.00
O452   O     0.97306   0.10442   0.96665   0.00000  Uiso   1.00
O453   O     0.97318   0.39560   0.03335   0.00000  Uiso   1.00
O454   O     0.53462   0.25000   0.33749   0.00000  Uiso   1.00
O455   O     0.96539   0.25000   0.66251   0.00000  Uiso   1.00
O456   O     0.75000   0.03461   0.33749   0.00000  Uiso   1.00
Zn457  Zn    0.70053  -0.00000   0.21730   0.00000  Uiso   1.00
Zn458  Zn    0.54948   0.25000   0.28270   0.00000  Uiso   1.00
Zn459  Zn    0.75000   0.45053   0.71730   0.00000  Uiso   1.00
Zn460  Zn    0.75000   0.04947   0.28270   0.00000  Uiso   1.00
Zn461  Zn    0.54948   0.25000   0.71730   0.00000  Uiso   1.00
Zn462  Zn    0.95053   0.25000   0.28270   0.00000  Uiso   1.00
Zn463  Zn    0.75000   0.04947   0.71730   0.00000  Uiso   1.00
Zn464  Zn    0.75000   0.45053   0.28270   0.00000  Uiso   1.00
Zn465  Zn    0.79948  -0.00000   0.78270   0.00000  Uiso   1.00
Zn466  Zn    0.50000   0.20053   0.21730   0.00000  Uiso   1.00
Zn467  Zn    0.50000   0.29948   0.78270   0.00000  Uiso   1.00
Zn468  Zn    0.79948  -0.00000   0.21730   0.00000  Uiso   1.00
Zn469  Zn    0.70053  -0.00000   0.78270   0.00000  Uiso   1.00
Zn470  Zn    0.50000   0.29948   0.21730   0.00000  Uiso   1.00
Zn471  Zn    0.50000   0.20053   0.78270   0.00000  Uiso   1.00
Zn472  Zn    0.95053   0.25000   0.71730   0.00000  Uiso   1.00
C473   C     0.25000   0.50000   0.35606   0.00000  Uiso   1.00
C474   C     0.33001   0.91999   0.75000   0.00000  Uiso   1.00
C475   C     0.00012   0.67237   0.02044   0.00000  Uiso   1.00
C476   C     0.32758   0.50304   0.97956   0.00000  Uiso   1.00
C477   C     0.17240   0.99738   0.02043   0.00000  Uiso   1.00
C478   C     0.49979   0.67237   0.97956   0.00000  Uiso   1.00
C479   C     0.49987   0.82763   0.02044   0.00000  Uiso   1.00
C480   C     0.38171   0.74911   0.45805   0.00000  Uiso   1.00
C481   C     0.11822   0.75409   0.54195   0.00000  Uiso   1.00
C482   C     0.24874   0.61828   0.45805   0.00000  Uiso   1.00
C483   C     0.24828   0.88173   0.54195   0.00000  Uiso   1.00
C484   C     0.11830   0.75110   0.45805   0.00000  Uiso   1.00
C485   C     0.41999   0.66999   0.25000   0.00000  Uiso   1.00
C486   C     0.38177   0.74613   0.54195   0.00000  Uiso   1.00
C487   C     0.25126   0.88172   0.45805   0.00000  Uiso   1.00
C488   C     0.25173   0.61827   0.54195   0.00000  Uiso   1.00
C489   C     0.13185   0.99419   0.95804   0.00000  Uiso   1.00
C490   C     0.36827   0.50296   0.04195   0.00000  Uiso   1.00
C491   C     0.00155   0.86827   0.95805   0.00000  Uiso   1.00
C492   C     0.00141   0.63172   0.04195   0.00000  Uiso   1.00
C493   C     0.36815   0.50592   0.95804   0.00000  Uiso   1.00
C494   C     0.13173   0.99717   0.04195   0.00000  Uiso   1.00
C495   C     0.49846   0.63173   0.95805   0.00000  Uiso   1.00
C496   C     0.08001   0.83001   0.75000   0.00000  Uiso   1.00
C497   C     0.49857   0.86828   0.04195   0.00000  Uiso   1.00
C498   C     0.33001   0.91999   0.25000   0.00000  Uiso   1.00
C499   C     0.16999   0.58001   0.75000   0.00000  Uiso   1.00
C500   C     0.08001   0.83001   0.25000   0.00000  Uiso   1.00
C501   C     0.41999   0.66999   0.75000   0.00000  Uiso   1.00
C502   C     0.16999   0.91999   0.75000   0.00000  Uiso   1.00
C503   C     0.33001   0.58001   0.25000   0.00000  Uiso   1.00
C504   C     0.41999   0.83001   0.75000   0.00000  Uiso   1.00
C505   C     0.25000   0.50000   0.64394   0.00000  Uiso   1.00
C506   C     0.08001   0.66999   0.25000   0.00000  Uiso   1.00
C507   C     0.33001   0.58001   0.75000   0.00000  Uiso   1.00
C508   C     0.16999   0.91999   0.25000   0.00000  Uiso   1.00
C509   C     0.08001   0.66999   0.75000   0.00000  Uiso   1.00
C510   C     0.41999   0.83001   0.25000   0.00000  Uiso   1.00
C511   C     0.13834   0.88834   0.25000   0.00000  Uiso   1.00
C512   C     0.36166   0.61166   0.75000   0.00000  Uiso   1.00
C513   C     0.11166   0.63834   0.25000   0.00000  Uiso   1.00
C514   C     0.38834   0.86166   0.75000   0.00000  Uiso   1.00
C515   C     0.36166   0.61166   0.25000   0.00000  Uiso   1.00
C516   C     0.00000   0.75000   0.35606   0.00000  Uiso   1.00
C517   C     0.13834   0.88834   0.75000   0.00000  Uiso   1.00
C518   C     0.38834   0.86166   0.25000   0.00000  Uiso   1.00
C519   C     0.11166   0.63834   0.75000   0.00000  Uiso   1.00
C520   C     0.13834   0.61166   0.75000   0.00000  Uiso   1.00
C521   C     0.36166   0.88834   0.25000   0.00000  Uiso   1.00
C522   C     0.11166   0.86166   0.75000   0.00000  Uiso   1.00
C523   C     0.38834   0.63834   0.25000   0.00000  Uiso   1.00
C524   C     0.36166   0.88834   0.75000   0.00000  Uiso   1.00
C525   C     0.13834   0.61166   0.25000   0.00000  Uiso   1.00
C526   C     0.38834   0.63834   0.75000   0.00000  Uiso   1.00
C527   C     0.00000   0.75000   0.64394   0.00000  Uiso   1.00
C528   C     0.11166   0.86166   0.25000   0.00000  Uiso   1.00
C529   C     0.03798   0.74997   0.41867   0.00000  Uiso   1.00
C530   C     0.46205   0.74846   0.58133   0.00000  Uiso   1.00
C531   C     0.25074   0.96203   0.41867   0.00000  Uiso   1.00
C532   C     0.25088   0.53797   0.58133   0.00000  Uiso   1.00
C533   C     0.46202   0.75008   0.41867   0.00000  Uiso   1.00
C534   C     0.03795   0.75159   0.58133   0.00000  Uiso   1.00
C535   C     0.24926   0.53797   0.41867   0.00000  Uiso   1.00
C536   C     0.24912   0.96203   0.58133   0.00000  Uiso   1.00
C537   C     0.28792   0.50214   0.91866   0.00000  Uiso   1.00
C538   C     0.00000   0.75000   0.85606   0.00000  Uiso   1.00
C539   C     0.21202   0.99950   0.08133   0.00000  Uiso   1.00
C540   C     0.49918   0.71203   0.91867   0.00000  Uiso   1.00
C541   C     0.49922   0.78797   0.08133   0.00000  Uiso   1.00
C542   C     0.21208   0.99789   0.91866   0.00000  Uiso   1.00
C543   C     0.28798   0.50053   0.08133   0.00000  Uiso   1.00
C544   C     0.00083   0.78797   0.91867   0.00000  Uiso   1.00
C545   C     0.00078   0.71203   0.08133   0.00000  Uiso   1.00
C546   C     0.00000   0.75001   0.39849   0.00000  Uiso   1.00
C547   C     0.00000   0.75001   0.60151   0.00000  Uiso   1.00
C548   C     0.25000   0.50000   0.39849   0.00000  Uiso   1.00
C549   C     0.00000   0.75000   0.14394   0.00000  Uiso   1.00
C550   C     0.25000   0.50000   0.60151   0.00000  Uiso   1.00
C551   C     0.25000   0.50001   0.89849   0.00000  Uiso   1.00
C552   C     0.25000   0.50001   0.10151   0.00000  Uiso   1.00
C553   C     0.00000   0.75000   0.89849   0.00000  Uiso   1.00
C554   C    -0.00000   0.75000   0.10151   0.00000  Uiso   1.00
C555   C     0.46117   0.74926   0.45926   0.00000  Uiso   1.00
C556   C     0.03883   0.75085   0.54075   0.00000  Uiso   1.00
C557   C     0.25007   0.53883   0.45925   0.00000  Uiso   1.00
C558   C     0.24992   0.96117   0.54075   0.00000  Uiso   1.00
C559   C     0.03883   0.75082   0.45926   0.00000  Uiso   1.00
C560   C     0.25000   0.50000   0.85606   0.00000  Uiso   1.00
C561   C     0.46117   0.74924   0.54075   0.00000  Uiso   1.00
C562   C     0.24994   0.96117   0.45926   0.00000  Uiso   1.00
C563   C     0.25009   0.53883   0.54074   0.00000  Uiso   1.00
C564   C     0.21119   0.99863   0.95925   0.00000  Uiso   1.00
C565   C     0.28881   0.50141   0.04074   0.00000  Uiso   1.00
C566   C     0.00003   0.78883   0.95925   0.00000  Uiso   1.00
C567   C     0.49999   0.71117   0.04075   0.00000  Uiso   1.00
C568   C     0.28881   0.50142   0.95925   0.00000  Uiso   1.00
C569   C     0.21119   0.99865   0.04074   0.00000  Uiso   1.00
C570   C     0.49997   0.71117   0.95925   0.00000  Uiso   1.00
C571   C     0.25000   0.50000   0.14394   0.00000  Uiso   1.00
C572   C     0.00001   0.78883   0.04075   0.00000  Uiso   1.00
C573   C     0.00000   0.75004   0.47968   0.00000  Uiso   1.00
C574   C     0.00000   0.75004   0.52032   0.00000  Uiso   1.00
C575   C     0.25000   0.50000   0.47968   0.00000  Uiso   1.00
C576   C     0.25000   0.50000   0.52032   0.00000  Uiso   1.00
C577   C     0.25000   0.50002   0.97967   0.00000  Uiso   1.00
C578   C     0.25000   0.50003   0.02032   0.00000  Uiso   1.00
C579   C     0.00000   0.75000   0.97968   0.00000  Uiso   1.00
C580   C     0.00000   0.75000   0.02032   0.00000  Uiso   1.00
C581   C     0.42238   0.74863   0.47957   0.00000  Uiso   1.00
C582   C     0.16999   0.58001   0.25000   0.00000  Uiso   1.00
C583   C     0.07762   0.75185   0.52044   0.00000  Uiso   1.00
C584   C     0.24998   0.57763   0.47956   0.00000  Uiso   1.00
C585   C     0.24968   0.92237   0.52044   0.00000  Uiso   1.00
C586   C     0.07763   0.75150   0.47956   0.00000  Uiso   1.00
C587   C     0.42238   0.74829   0.52044   0.00000  Uiso   1.00
C588   C     0.25002   0.92237   0.47956   0.00000  Uiso   1.00
C589   C     0.25032   0.57763   0.52044   0.00000  Uiso   1.00
C590   C     0.17242   0.99704   0.97956   0.00000  Uiso   1.00
C591   C     0.32760   0.50270   0.02043   0.00000  Uiso   1.00
C592   C     0.00021   0.82763   0.97956   0.00000  Uiso   1.00
H593   H     0.06683   0.74920   0.40215   0.00000  Uiso   1.00
H594   H     0.18316   0.99981   0.09785   0.00000  Uiso   1.00
H595   H     0.49781   0.68321   0.90215   0.00000  Uiso   1.00
H596   H     0.49789   0.81680   0.09785   0.00000  Uiso   1.00
H597   H     0.18332   0.99551   0.90214   0.00000  Uiso   1.00
H598   H     0.31684   0.50022   0.09785   0.00000  Uiso   1.00
H599   H     0.00219   0.81679   0.90215   0.00000  Uiso   1.00
H600   H     0.00211   0.68320   0.09785   0.00000  Uiso   1.00
H601   H     0.37662   0.72774   0.43404   0.00000  Uiso   1.00
H602   H     0.12425   0.73292   0.56594   0.00000  Uiso   1.00
H603   H     0.27001   0.62376   0.43404   0.00000  Uiso   1.00
H604   H     0.43326   0.74652   0.59786   0.00000  Uiso   1.00
H605   H     0.26952   0.87616   0.56597   0.00000  Uiso   1.00
H606   H     0.12333   0.77244   0.43401   0.00000  Uiso   1.00
H607   H     0.37580   0.76728   0.56596   0.00000  Uiso   1.00
H608   H     0.22999   0.87624   0.43404   0.00000  Uiso   1.00
H609   H     0.23048   0.62384   0.56597   0.00000  Uiso   1.00
H610   H     0.12550   0.51527   0.93406   0.00000  Uiso   1.00
H611   H     0.37295   0.52438   0.06600   0.00000  Uiso   1.00
H612   H     0.48029   0.87381   0.93403   0.00000  Uiso   1.00
H613   H     0.48013   0.62621   0.06596   0.00000  Uiso   1.00
H614   H     0.37453   0.98484   0.93408   0.00000  Uiso   1.00
H615   H     0.25203   0.93320   0.40215   0.00000  Uiso   1.00
H616   H     0.12702   0.97574   0.06598   0.00000  Uiso   1.00
H617   H     0.01973   0.62620   0.93403   0.00000  Uiso   1.00
H618   H     0.01985   0.87380   0.06596   0.00000  Uiso   1.00
H619   H     0.25229   0.56679   0.59785   0.00000  Uiso   1.00
H620   H     0.43317   0.75083   0.40215   0.00000  Uiso   1.00
H621   H     0.06675   0.75352   0.59786   0.00000  Uiso   1.00
H622   H     0.24797   0.56680   0.40215   0.00000  Uiso   1.00
H623   H     0.24771   0.93321   0.59785   0.00000  Uiso   1.00
H624   H     0.31668   0.50451   0.90214   0.00000  Uiso   1.00
O625   O     0.25000   0.50000   0.25000   0.00000  Uiso   1.00
O626   O     0.25000   0.96539   0.66251   0.00000  Uiso   1.00
O627   O     0.46539   0.75000   0.33749   0.00000  Uiso   1.00
O628   O     0.03462   0.75000   0.66251   0.00000  Uiso   1.00
O629   O     0.00000   0.71539   0.83749   0.00000  Uiso   1.00
O630   O     0.00000   0.78462   0.16251   0.00000  Uiso   1.00
O631   O     0.28462   0.50000   0.83749   0.00000  Uiso   1.00
O632   O     0.21539   0.50000   0.16251   0.00000  Uiso   1.00
O633   O     0.00000   0.78462   0.83749   0.00000  Uiso   1.00
O634   O     0.00000   0.71539   0.16251   0.00000  Uiso   1.00
O635   O     0.21539   0.50000   0.83749   0.00000  Uiso   1.00
O636   O     0.25000   0.50000   0.75000   0.00000  Uiso   1.00
O637   O     0.28462   0.50000   0.16251   0.00000  Uiso   1.00
O638   O     0.20127   0.58332   0.27298   0.00000  Uiso   1.00
O639   O     0.29874   0.91668   0.72702   0.00000  Uiso   1.00
O640   O     0.41668   0.70126   0.27298   0.00000  Uiso   1.00
O641   O     0.08332   0.79874   0.72702   0.00000  Uiso   1.00
O642   O     0.29874   0.91668   0.27298   0.00000  Uiso   1.00
O643   O     0.20127   0.58332   0.72702   0.00000  Uiso   1.00
O644   O     0.08332   0.79874   0.27298   0.00000  Uiso   1.00
O645   O     0.41668   0.70126   0.72702   0.00000  Uiso   1.00
O646   O     0.20127   0.91668   0.72702   0.00000  Uiso   1.00
O647   O     0.00000   0.75000   0.25000   0.00000  Uiso   1.00
O648   O     0.29874   0.58332   0.27298   0.00000  Uiso   1.00
O649   O     0.41668   0.79873   0.72702   0.00000  Uiso   1.00
O650   O     0.08332   0.70127   0.27298   0.00000  Uiso   1.00
O651   O     0.29874   0.58332   0.72702   0.00000  Uiso   1.00
O652   O     0.20127   0.91668   0.27298   0.00000  Uiso   1.00
O653   O     0.08332   0.70127   0.72702   0.00000  Uiso   1.00
O654   O     0.41668   0.79873   0.27298   0.00000  Uiso   1.00
O655   O     0.45127   0.83332   0.77298   0.00000  Uiso   1.00
O656   O     0.04874   0.66668   0.22702   0.00000  Uiso   1.00
O657   O     0.16668   0.95127   0.77298   0.00000  Uiso   1.00
O658   O     0.00000   0.75000   0.75000   0.00000  Uiso   1.00
O659   O     0.33332   0.54873   0.22702   0.00000  Uiso   1.00
O660   O     0.04874   0.66668   0.77298   0.00000  Uiso   1.00
O661   O     0.45127   0.83332   0.22702   0.00000  Uiso   1.00
O662   O     0.33332   0.54873   0.77298   0.00000  Uiso   1.00
O663   O     0.16668   0.95127   0.22702   0.00000  Uiso   1.00
O664   O     0.45127   0.66668   0.22702   0.00000  Uiso   1.00
O665   O     0.04874   0.83332   0.77298   0.00000  Uiso   1.00
O666   O     0.16668   0.54873   0.22702   0.00000  Uiso   1.00
O667   O     0.33332   0.95127   0.77298   0.00000  Uiso   1.00
O668   O     0.04874   0.83332   0.22702   0.00000  Uiso   1.00
O669   O     0.25000   0.96539   0.33749   0.00000  Uiso   1.00
O670   O     0.45127   0.66668   0.77298   0.00000  Uiso   1.00
O671   O     0.33332   0.95127   0.22702   0.00000  Uiso   1.00
O672   O     0.16668   0.54873   0.77298   0.00000  Uiso   1.00
O673   O     0.35387   0.77394   0.46666   0.00000  Uiso   1.00
O674   O     0.14493   0.78014   0.53338   0.00000  Uiso   1.00
O675   O     0.22339   0.64564   0.46665   0.00000  Uiso   1.00
O676   O     0.22283   0.85446   0.53334   0.00000  Uiso   1.00
O677   O     0.14621   0.72637   0.46669   0.00000  Uiso   1.00
O678   O     0.35499   0.72016   0.53336   0.00000  Uiso   1.00
O679   O     0.27661   0.85436   0.46665   0.00000  Uiso   1.00
O680   O     0.25000   0.53461   0.66251   0.00000  Uiso   1.00
O681   O     0.27718   0.64554   0.53334   0.00000  Uiso   1.00
O682   O     0.10553   0.96775   0.96661   0.00000  Uiso   1.00
O683   O     0.39659   0.97870   0.03330   0.00000  Uiso   1.00
O684   O     0.02696   0.89558   0.96665   0.00000  Uiso   1.00
O685   O     0.02680   0.60439   0.03336   0.00000  Uiso   1.00
O686   O     0.39442   0.53242   0.96660   0.00000  Uiso   1.00
O687   O     0.10345   0.52147   0.03331   0.00000  Uiso   1.00
O688   O     0.47306   0.60442   0.96665   0.00000  Uiso   1.00
O689   O     0.47318   0.89560   0.03335   0.00000  Uiso   1.00
O690   O     0.03462   0.75000   0.33749   0.00000  Uiso   1.00
O691   O     0.46539   0.75000   0.66251   0.00000  Uiso   1.00
O692   O     0.25000   0.53461   0.33749   0.00000  Uiso   1.00
Zn693  Zn    0.20053   0.50000   0.21730   0.00000  Uiso   1.00
Zn694  Zn    0.04948   0.75000   0.28270   0.00000  Uiso   1.00
Zn695  Zn    0.25000   0.95053   0.71730   0.00000  Uiso   1.00
Zn696  Zn    0.25000   0.54947   0.28270   0.00000  Uiso   1.00
Zn697  Zn    0.04948   0.75000   0.71730   0.00000  Uiso   1.00
Zn698  Zn    0.45053   0.75000   0.28270   0.00000  Uiso   1.00
Zn699  Zn    0.25000   0.54947   0.71730   0.00000  Uiso   1.00
Zn700  Zn    0.25000   0.95053   0.28270   0.00000  Uiso   1.00
Zn701  Zn    0.29948   0.50000   0.78270   0.00000  Uiso   1.00
Zn702  Zn    0.00000   0.70053   0.21730   0.00000  Uiso   1.00
Zn703  Zn    0.00000   0.79948   0.78270   0.00000  Uiso   1.00
Zn704  Zn    0.29948   0.50000   0.21730   0.00000  Uiso   1.00
Zn705  Zn    0.20053   0.50000   0.78270   0.00000  Uiso   1.00
Zn706  Zn    0.00000   0.79948   0.21730   0.00000  Uiso   1.00
Zn707  Zn    0.00000   0.70053   0.78270   0.00000  Uiso   1.00
Zn708  Zn    0.45053   0.75000   0.71730   0.00000  Uiso   1.00
C709   C     0.75000   0.50000   0.35606   0.00000  Uiso   1.00
C710   C     0.83001   0.91999   0.75000   0.00000  Uiso   1.00
C711   C     0.50012   0.67237   0.02044   0.00000  Uiso   1.00
C712   C     0.82758   0.50304   0.97956   0.00000  Uiso   1.00
C713   C     0.67240   0.99738   0.02043   0.00000  Uiso   1.00
C714   C     0.99979   0.67237   0.97956   0.00000  Uiso   1.00
C715   C     0.99987   0.82763   0.02044   0.00000  Uiso   1.00
C716   C     0.88171   0.74911   0.45805   0.00000  Uiso   1.00
C717   C     0.61822   0.75409   0.54195   0.00000  Uiso   1.00
C718   C     0.74874   0.61828   0.45805   0.00000  Uiso   1.00
C719   C     0.74828   0.88173   0.54195   0.00000  Uiso   1.00
C720   C     0.61830   0.75110   0.45805   0.00000  Uiso   1.00
C721   C     0.91999   0.66999   0.25000   0.00000  Uiso   1.00
C722   C     0.88177   0.74613   0.54195   0.00000  Uiso   1.00
C723   C     0.75126   0.88172   0.45805   0.00000  Uiso   1.00
C724   C     0.75173   0.61827   0.54195   0.00000  Uiso   1.00
C725   C     0.63185   0.99419   0.95804   0.00000  Uiso   1.00
C726   C     0.86827   0.50296   0.04195   0.00000  Uiso   1.00
C727   C     0.50155   0.86827   0.95805   0.00000  Uiso   1.00
C728   C     0.50141   0.63172   0.04195   0.00000  Uiso   1.00
C729   C     0.86815   0.50592   0.95804   0.00000  Uiso   1.00
C730   C     0.63173   0.99717   0.04195   0.00000  Uiso   1.00
C731   C     0.99846   0.63173   0.95805   0.00000  Uiso   1.00
C732   C     0.58001   0.83001   0.75000   0.00000  Uiso   1.00
C733   C     0.99857   0.86828   0.04195   0.00000  Uiso   1.00
C734   C     0.83001   0.91999   0.25000   0.00000  Uiso   1.00
C735   C     0.66999   0.58001   0.75000   0.00000  Uiso   1.00
C736   C     0.58001   0.83001   0.25000   0.00000  Uiso   1.00
C737   C     0.91999   0.66999   0.75000   0.00000  Uiso   1.00
C738   C     0.66999   0.91999   0.75000   0.00000  Uiso   1.00
C739   C     0.83001   0.58001   0.25000   0.00000  Uiso   1.00
C740   C     0.91999   0.83001   0.75000   0.00000  Uiso   1.00
C741   C     0.75000   0.50000   0.64394   0.00000  Uiso   1.00
C742   C     0.58001   0.66999   0.25000   0.00000  Uiso   1.00
C743   C     0.83001   0.58001   0.75000   0.00000  Uiso   1.00
C744   C     0.66999   0.91999   0.25000   0.00000  Uiso   1.00
C745   C     0.58001   0.66999   0.75000   0.00000  Uiso   1.00
C746   C     0.91999   0.83001   0.25000   0.00000  Uiso   1.00
C747   C     0.63834   0.88834   0.25000   0.00000  Uiso   1.00
C748   C     0.86166   0.61166   0.75000   0.00000  Uiso   1.00
C749   C     0.61166   0.63834   0.25000   0.00000  Uiso   1.00
C750   C     0.88834   0.86166   0.75000   0.00000  Uiso   1.00
C751   C     0.86166   0.61166   0.25000   0.00000  Uiso   1.00
C752   C     0.50000   0.75000   0.35606   0.00000  Uiso   1.00
C753   C     0.63834   0.88834   0.75000   0.00000  Uiso   1.00
C754   C     0.88834   0.86166   0.25000   0.00000  Uiso   1.00
C755   C     0.61166   0.63834   0.75000   0.00000  Uiso   1.00
C756   C     0.63834   0.61166   0.75000   0.00000  Uiso   1.00
C757   C     0.86166   0.88834   0.25000   0.00000  Uiso   1.00
C758   C     0.61166   0.86166   0.75000   0.00000  Uiso   1.00
C759   C     0.88834   0.63834   0.25000   0.00000  Uiso   1.00
C760   C     0.86166   0.88834   0.75000   0.00000  Uiso   1.00
C761   C     0.63834   0.61166   0.25000   0.00000  Uiso   1.00
C762   C     0.88834   0.63834   0.75000   0.00000  Uiso   1.00
C763   C     0.50000   0.75000   0.64394   0.00000  Uiso   1.00
C764   C     0.61166   0.86166   0.25000   0.00000  Uiso   1.00
C765   C     0.53798   0.74997   0.41867   0.00000  Uiso   1.00
C766   C     0.96205   0.74846   0.58133   0.00000  Uiso   1.00
C767   C     0.75074   0.96203   0.41867   0.00000  Uiso   1.00
C768   C     0.75088   0.53797   0.58133   0.00000  Uiso   1.00
C769   C     0.96202   0.75008   0.41867   0.00000  Uiso   1.00
C770   C     0.53795   0.75159   0.58133   0.00000  Uiso   1.00
C771   C     0.74926   0.53797   0.41867   0.00000  Uiso   1.00
C772   C     0.74912   0.96203   0.58133   0.00000  Uiso   1.00
C773   C     0.78792   0.50214   0.91866   0.00000  Uiso   1.00
C774   C     0.50000   0.75000   0.85606   0.00000  Uiso   1.00
C775   C     0.71202   0.99950   0.08133   0.00000  Uiso   1.00
C776   C     0.99918   0.71203   0.91867   0.00000  Uiso   1.00
C777   C     0.99922   0.78797   0.08133   0.00000  Uiso   1.00
C778   C     0.71208   0.99789   0.91866   0.00000  Uiso   1.00
C779   C     0.78798   0.50053   0.08133   0.00000  Uiso   1.00
C780   C     0.50083   0.78797   0.91867   0.00000  Uiso   1.00
C781   C     0.50078   0.71203   0.08133   0.00000  Uiso   1.00
C782   C     0.50000   0.75001   0.39849   0.00000  Uiso   1.00
C783   C     0.50000   0.75001   0.60151   0.00000  Uiso   1.00
C784   C     0.75000   0.50000   0.39849   0.00000  Uiso   1.00
C785   C     0.50000   0.75000   0.14394   0.00000  Uiso   1.00
C786   C     0.75000   0.50000   0.60151   0.00000  Uiso   1.00
C787   C     0.75000   0.50001   0.89849   0.00000  Uiso   1.00
C788   C     0.75000   0.50001   0.10151   0.00000  Uiso   1.00
C789   C     0.50000   0.75000   0.89849   0.00000  Uiso   1.00
C790   C     0.50000   0.75000   0.10151   0.00000  Uiso   1.00
C791   C     0.96117   0.74926   0.45926   0.00000  Uiso   1.00
C792   C     0.53883   0.75085   0.54075   0.00000  Uiso   1.00
C793   C     0.75007   0.53883   0.45925   0.00000  Uiso   1.00
C794   C     0.74992   0.96117   0.54075   0.00000  Uiso   1.00
C795   C     0.53883   0.75082   0.45926   0.00000  Uiso   1.00
C796   C     0.75000   0.50000   0.85606   0.00000  Uiso   1.00
C797   C     0.96117   0.74924   0.54075   0.00000  Uiso   1.00
C798   C     0.74994   0.96117   0.45926   0.00000  Uiso   1.00
C799   C     0.75009   0.53883   0.54074   0.00000  Uiso   1.00
C800   C     0.71119   0.99863   0.95925   0.00000  Uiso   1.00
C801   C     0.78881   0.50141   0.04074   0.00000  Uiso   1.00
C802   C     0.50003   0.78883   0.95925   0.00000  Uiso   1.00
C803   C     0.99999   0.71117   0.04075   0.00000  Uiso   1.00
C804   C     0.78881   0.50142   0.95925   0.00000  Uiso   1.00
C805   C     0.71119   0.99865   0.04074   0.00000  Uiso   1.00
C806   C     0.99997   0.71117   0.95925   0.00000  Uiso   1.00
C807   C     0.75000   0.50000   0.14394   0.00000  Uiso   1.00
C808   C     0.50001   0.78883   0.04075   0.00000  Uiso   1.00
C809   C     0.50000   0.75004   0.47968   0.00000  Uiso   1.00
C810   C     0.50000   0.75004   0.52032   0.00000  Uiso   1.00
C811   C     0.75000   0.50000   0.47968   0.00000  Uiso   1.00
C812   C     0.75000   0.50000   0.52032   0.00000  Uiso   1.00
C813   C     0.75000   0.50002   0.97967   0.00000  Uiso   1.00
C814   C     0.75000   0.50003   0.02032   0.00000  Uiso   1.00
C815   C     0.50000   0.75000   0.97968   0.00000  Uiso   1.00
C816   C     0.50000   0.75000   0.02032   0.00000  Uiso   1.00
C817   C     0.92238   0.74863   0.47957   0.00000  Uiso   1.00
C818   C     0.66999   0.58001   0.25000   0.00000  Uiso   1.00
C819   C     0.57762   0.75185   0.52044   0.00000  Uiso   1.00
C820   C     0.74998   0.57763   0.47956   0.00000  Uiso   1.00
C821   C     0.74968   0.92237   0.52044   0.00000  Uiso   1.00
C822   C     0.57763   0.75150   0.47956   0.00000  Uiso   1.00
C823   C     0.92238   0.74829   0.52044   0.00000  Uiso   1.00
C824   C     0.75002   0.92237   0.47956   0.00000  Uiso   1.00
C825   C     0.75032   0.57763   0.52044   0.00000  Uiso   1.00
C826   C     0.67242   0.99704   0.97956   0.00000  Uiso   1.00
C827   C     0.82760   0.50270   0.02043   0.00000  Uiso   1.00
C828   C     0.50021   0.82763   0.97956   0.00000  Uiso   1.00
H829   H     0.56683   0.74920   0.40215   0.00000  Uiso   1.00
H830   H     0.68316   0.99981   0.09785   0.00000  Uiso   1.00
H831   H     0.99781   0.68321   0.90215   0.00000  Uiso   1.00
H832   H     0.99789   0.81680   0.09785   0.00000  Uiso   1.00
H833   H     0.68332   0.99551   0.90214   0.00000  Uiso   1.00
H834   H     0.81684   0.50022   0.09785   0.00000  Uiso   1.00
H835   H     0.50219   0.81679   0.90215   0.00000  Uiso   1.00
H836   H     0.50211   0.68320   0.09785   0.00000  Uiso   1.00
H837   H     0.87662   0.72774   0.43404   0.00000  Uiso   1.00
H838   H     0.62425   0.73292   0.56594   0.00000  Uiso   1.00
H839   H     0.77001   0.62376   0.43404   0.00000  Uiso   1.00
H840   H     0.93326   0.74652   0.59786   0.00000  Uiso   1.00
H841   H     0.76952   0.87616   0.56597   0.00000  Uiso   1.00
H842   H     0.62333   0.77244   0.43401   0.00000  Uiso   1.00
H843   H     0.87580   0.76728   0.56596   0.00000  Uiso   1.00
H844   H     0.72999   0.87624   0.43404   0.00000  Uiso   1.00
H845   H     0.73048   0.62384   0.56597   0.00000  Uiso   1.00
H846   H     0.62550   0.51527   0.93406   0.00000  Uiso   1.00
H847   H     0.87295   0.52438   0.06600   0.00000  Uiso   1.00
H848   H     0.98029   0.87381   0.93403   0.00000  Uiso   1.00
H849   H     0.98013   0.62621   0.06596   0.00000  Uiso   1.00
H850   H     0.87453   0.98484   0.93408   0.00000  Uiso   1.00
H851   H     0.75203   0.93320   0.40215   0.00000  Uiso   1.00
H852   H     0.62702   0.97574   0.06598   0.00000  Uiso   1.00
H853   H     0.51973   0.62620   0.93403   0.00000  Uiso   1.00
H854   H     0.51985   0.87380   0.06596   0.00000  Uiso   1.00
H855   H     0.75229   0.56679   0.59785   0.00000  Uiso   1.00
H856   H     0.93317   0.75083   0.40215   0.00000  Uiso   1.00
H857   H     0.56675   0.75352   0.59786   0.00000  Uiso   1.00
H858   H     0.74797   0.56680   0.40215   0.00000  Uiso   1.00
H859   H     0.74771   0.93321   0.59785   0.00000  Uiso   1.00
H860   H     0.81668   0.50451   0.90214   0.00000  Uiso   1.00
O861   O     0.75000   0.50000   0.25000   0.00000  Uiso   1.00
O862   O     0.75000   0.96539   0.66251   0.00000  Uiso   1.00
O863   O     0.96539   0.75000   0.33749   0.00000  Uiso   1.00
O864   O     0.53462   0.75000   0.66251   0.00000  Uiso   1.00
O865   O     0.50000   0.71539   0.83749   0.00000  Uiso   1.00
O866   O     0.50000   0.78462   0.16251   0.00000  Uiso   1.00
O867   O     0.78462   0.50000   0.83749   0.00000  Uiso   1.00
O868   O     0.71539   0.50000   0.16251   0.00000  Uiso   1.00
O869   O     0.50000   0.78462   0.83749   0.00000  Uiso   1.00
O870   O     0.50000   0.71539   0.16251   0.00000  Uiso   1.00
O871   O     0.71539   0.50000   0.83749   0.00000  Uiso   1.00
O872   O     0.75000   0.50000   0.75000   0.00000  Uiso   1.00
O873   O     0.78462   0.50000   0.16251   0.00000  Uiso   1.00
O874   O     0.70127   0.58332   0.27298   0.00000  Uiso   1.00
O875   O     0.79874   0.91668   0.72702   0.00000  Uiso   1.00
O876   O     0.91668   0.70126   0.27298   0.00000  Uiso   1.00
O877   O     0.58332   0.79874   0.72702   0.00000  Uiso   1.00
O878   O     0.79874   0.91668   0.27298   0.00000  Uiso   1.00
O879   O     0.70127   0.58332   0.72702   0.00000  Uiso   1.00
O880   O     0.58332   0.79874   0.27298   0.00000  Uiso   1.00
O881   O     0.91668   0.70126   0.72702   0.00000  Uiso   1.00
O882   O     0.70127   0.91668   0.72702   0.00000  Uiso   1.00
O883   O     0.50000   0.75000   0.25000   0.00000  Uiso   1.00
O884   O     0.79874   0.58332   0.27298   0.00000  Uiso   1.00
O885   O     0.91668   0.79873   0.72702   0.00000  Uiso   1.00
O886   O     0.58332   0.70127   0.27298   0.00000  Uiso   1.00
O887   O     0.79874   0.58332   0.72702   0.00000  Uiso   1.00
O888   O     0.70127   0.91668   0.27298   0.00000  Uiso   1.00
O889   O     0.58332   0.70127   0.72702   0.00000  Uiso   1.00
O890   O     0.91668   0.79873   0.27298   0.00000  Uiso   1.00
O891   O     0.95127   0.83332   0.77298   0.00000  Uiso   1.00
O892   O     0.54874   0.66668   0.22702   0.00000  Uiso   1.00
O893   O     0.66668   0.95127   0.77298   0.00000  Uiso   1.00
O894   O     0.50000   0.75000   0.75000   0.00000  Uiso   1.00
O895   O     0.83332   0.54873   0.22702   0.00000  Uiso   1.00
O896   O     0.54874   0.66668   0.77298   0.00000  Uiso   1.00
O897   O     0.95127   0.83332   0.22702   0.00000  Uiso   1.00
O898   O     0.83332   0.54873   0.77298   0.00000  Uiso   1.00
O899   O     0.66668   0.95127   0.22702   0.00000  Uiso   1.00
O900   O     0.95127   0.66668   0.22702   0.00000  Uiso   1.00
O901   O     0.54874   0.83332   0.77298   0.00000  Uiso   1.00
O902   O     0.66668   0.54873   0.22702   0.00000  Uiso   1.00
O903   O     0.83332   0.95127   0.77298   0.00000  Uiso   1.00
O904   O     0.54874   0.83332   0.22702   0.00000  Uiso   1.00
O905   O     0.75000   0.96539   0.33749   0.00000  Uiso   1.00
O906   O     0.95127   0.66668   0.77298   0.00000  Uiso   1.00
O907   O     0.83332   0.95127   0.22702   0.00000  Uiso   1.00
O908   O     0.66668   0.54873   0.77298   0.00000  Uiso   1.00
O909   O     0.85387   0.77394   0.46666   0.00000  Uiso   1.00
O910   O     0.64493   0.78014   0.53338   0.00000  Uiso   1.00
O911   O     0.72339   0.64564   0.46665   0.00000  Uiso   1.00
O912   O     0.72283   0.85446   0.53334   0.00000  Uiso   1.00
O913   O     0.64621   0.72637   0.46669   0.00000  Uiso   1.00
O914   O     0.85499   0.72016   0.53336   0.00000  Uiso   1.00
O915   O     0.77661   0.85436   0.46665   0.00000  Uiso   1.00
O916   O     0.75000   0.53461   0.66251   0.00000  Uiso   1.00
O917   O     0.77718   0.64554   0.53334   0.00000  Uiso   1.00
O918   O     0.60553   0.96775   0.96661   0.00000  Uiso   1.00
O919   O     0.89659   0.97870   0.03330   0.00000  Uiso   1.00
O920   O     0.52696   0.89558   0.96665   0.00000  Uiso   1.00
O921   O     0.52680   0.60439   0.03336   0.00000  Uiso   1.00
O922   O     0.89442   0.53242   0.96660   0.00000  Uiso   1.00
O923   O     0.60345   0.52147   0.03331   0.00000  Uiso   1.00
O924   O     0.97306   0.60442   0.96665   0.00000  Uiso   1.00
O925   O     0.97318   0.89560   0.03335   0.00000  Uiso   1.00
O926   O     0.53462   0.75000   0.33749   0.00000  Uiso   1.00
O927   O     0.96539   0.75000   0.66251   0.00000  Uiso   1.00
O928   O     0.75000   0.53461   0.33749   0.00000  Uiso   1.00
Zn929  Zn    0.70053   0.50000   0.21730   0.00000  Uiso   1.00
Zn930  Zn    0.54948   0.75000   0.28270   0.00000  Uiso   1.00
Zn931  Zn    0.75000   0.95053   0.71730   0.00000  Uiso   1.00
Zn932  Zn    0.75000   0.54947   0.28270   0.00000  Uiso   1.00
Zn933  Zn    0.54948   0.75000   0.71730   0.00000  Uiso   1.00
Zn934  Zn    0.95053   0.75000   0.28270   0.00000  Uiso   1.00
Zn935  Zn    0.75000   0.54947   0.71730   0.00000  Uiso   1.00
Zn936  Zn    0.75000   0.95053   0.28270   0.00000  Uiso   1.00
Zn937  Zn    0.79948   0.50000   0.78270   0.00000  Uiso   1.00
Zn938  Zn    0.50000   0.70053   0.21730   0.00000  Uiso   1.00
Zn939  Zn    0.50000   0.79948   0.78270   0.00000  Uiso   1.00
Zn940  Zn    0.79948   0.50000   0.21730   0.00000  Uiso   1.00
Zn941  Zn    0.70053   0.50000   0.78270   0.00000  Uiso   1.00
Zn942  Zn    0.50000   0.79948   0.21730   0.00000  Uiso   1.00
Zn943  Zn    0.50000   0.70053   0.78270   0.00000  Uiso   1.00
Zn944  Zn    0.95053   0.75000   0.71730   0.00000  Uiso   1.00
loop_
_geom_bond_atom_site_label_1
_geom_bond_atom_site_label_2
_geom_bond_distance
_geom_bond_site_symmetry_2
_ccdc_geom_bond_type
C1     O669    1.273   1_545 A
C1     C76     1.468   .     S
C1     O220    1.273   .     S
C2     O195    1.276   .     A
C2     C52     1.421   .     S
C2     O167    1.276   .     A
C3     C20     1.491   .     S
C3     C242    1.414   1_454 S
C3     C331    1.418   1_455 S
C4     C96     1.418   .     A
C4     C21     1.490   .     S
C4     C119    1.414   1_556 S
C5     C22     1.491   .     S
C5     C97     1.418   .     A
C5     C118    1.414   1_554 S
C6     C98     1.418   .     A
C6     C23     1.490   .     S
C6     C239    1.414   1_556 S
C7     C25     1.490   .     S
C7     C336    1.418   .     S
C7     C356    1.414   1_554 S
C8     O201    1.221   .     D
C8     C109    1.491   .     S
C8     H129    1.085   .     S
C9     C111    1.490   .     S
C9     H130    1.085   .     S
C9     O202    1.221   .     D
C10    H131    1.085   .     S
C10    O203    1.221   .     D
C10    C112    1.490   .     S
C11    H133    1.085   .     S
C11    C113    1.490   .     S
C11    O204    1.221   .     D
C12    C114    1.491   .     S
C12    O205    1.221   .     D
C12    H134    1.085   .     S
C13    O192    1.276   .     A
C13    C51     1.421   .     S
C13    O168    1.276   .     A
C14    C115    1.490   .     S
C14    O206    1.221   .     D
C14    H135    1.085   .     S
C15    O207    1.221   .     D
C15    H136    1.085   .     S
C15    C116    1.490   .     S
C16    H137    1.085   .     S
C16    O209    1.221   .     D
C16    C117    1.490   .     S
C17    O210    1.221   .     D
C17    C118    1.490   .     S
C17    H610    1.085   .     S
C18    C119    1.491   .     S
C18    H139    1.085   .     S
C18    O683    1.221   1_545 S
C19    O212    1.221   .     D
C19    C120    1.490   .     S
C19    H376    1.085   1_455 S
C20    O213    1.221   .     D
C20    H377    1.085   1_455 S
C21    O214    1.221   .     D
C21    H614    1.085   1_545 S
C22    H144    1.085   .     S
C22    O687    1.221   .     S
C23    O216    1.221   .     D
C23    H381    1.085   .     S
C24    C50     1.421   .     S
C24    O169    1.276   .     A
C24    O193    1.276   .     A
C25    O217    1.221   .     D
C25    H382    1.085   .     S
C26    C49     1.421   .     S
C26    O199    1.276   .     A
C26    O170    1.276   .     A
C27    O200    1.276   .     A
C27    C48     1.421   .     S
C27    O171    1.276   .     A
C28    C56     1.421   .     S
C28    O172    1.276   .     A
C28    O196    1.276   .     A
C29    C54     1.421   .     S
C29    O198    1.276   .     A
C29    O173    1.276   .     A
C30    C45     1.421   .     S
C30    O185    1.276   .     A
C30    O174    1.276   .     A
C31    C43     1.421   .     S
C31    O176    1.276   .     A
C31    O187    1.276   .     A
C32    O177    1.276   .     A
C32    C42     1.421   .     S
C32    O183    1.276   .     A
C33    O626    1.273   1_545 A
C33    C78     1.468   .     S
C33    O208    1.273   .     S
C34    O184    1.276   .     A
C34    C41     1.421   .     S
C34    O178    1.276   .     A
C35    O179    1.276   .     A
C35    O190    1.276   .     A
C35    C40     1.421   .     S
C36    O191    1.276   .     A
C36    O180    1.276   .     A
C36    C39     1.421   .     S
C37    O188    1.276   .     A
C37    O181    1.276   .     A
C37    C47     1.421   .     S
C38    O189    1.276   .     A
C38    O182    1.276   .     A
C38    C46     1.421   .     S
C39    C56     1.198   .     T
C40    C54     1.198   .     T
C41    C53     1.198   .     T
C42    C52     1.198   .     T
C43    C51     1.198   .     T
C44    O218    1.273   .     A
C44    C74     1.468   .     S
C44    O391    1.273   1_455 S
C45    C50     1.198   .     T
C46    C49     1.198   .     T
C47    C48     1.198   .     T
C53    C110    1.421   .     S
C55    C75     1.468   .     S
C55    O156    1.273   .     A
C55    O455    1.273   1_455 S
C57    H121    1.080   .     S
C57    C87     1.405   .     A
C57    C74     1.393   .     A
C58    H132    1.080   .     S
C58    C89     1.405   .     A
C58    C311    1.393   .     S
C59    C548    1.393   .     A
C59    H143    1.080   .     S
C59    C90     1.405   .     A
C60    C78     1.393   .     A
C60    H147    1.080   .     S
C60    C91     1.405   .     A
C61    H148    1.080   .     S
C61    C83     1.405   .     A
C61    C310    1.393   .     S
C62    H149    1.080   .     S
C62    C84     1.405   .     A
C62    C75     1.393   .     A
C63    C85     1.405   .     A
C63    H150    1.080   .     S
C63    C76     1.393   .     S
C64    C86     1.405   .     A
C64    H151    1.080   .     S
C64    C550    1.393   .     S
C65    C79     1.393   .     A
C65    C96     1.405   .     A
C65    H152    1.080   .     S
C66    O161    1.273   .     A
C66    C81     1.468   .     S
C66    O157    1.273   .     A
C67    H122    1.080   .     S
C67    C97     1.405   .     A
C67    C552    1.393   .     S
C68    H123    1.080   .     S
C68    C98     1.405   .     A
C68    C317    1.393   .     S
C69    C318    1.393   .     A
C69    H124    1.080   .     S
C69    C336    1.405   .     S
C70    H125    1.080   .     S
C70    C92     1.405   .     A
C70    C551    1.393   .     S
C71    C80     1.393   .     A
C71    H126    1.080   .     S
C71    C93     1.405   .     A
C72    C81     1.393   .     A
C72    H127    1.080   .     S
C72    C94     1.405   .     A
C73    H128    1.080   .     S
C73    C82     1.393   .     S
C73    C331    1.405   1_455 S
C74    C297    1.393   1_455 S
C75    C294    1.393   1_455 S
C76    C531    1.393   1_545 A
C77    O158    1.273   .     A
C77    O162    1.273   .     A
C77    C82     1.468   .     S
C78    C536    1.393   1_545 S
C79    C88     1.468   .     S
C79    C542    1.393   1_545 S
C80    C99     1.468   .     S
C80    C539    1.393   1_545 S
C81    C304    1.393   1_455 S
C82    C305    1.393   1_455 A
C83    C109    1.418   .     A
C83    C337    1.421   .     S
C84    C102    1.421   .     A
C84    C111    1.418   .     A
C85    C112    1.418   .     A
C85    C103    1.421   .     A
C86    C113    1.418   .     A
C86    C576    1.421   .     S
C87    C114    1.418   .     A
C87    C101    1.421   .     A
C88    O159    1.273   .     A
C88    O163    1.273   .     A
C89    C115    1.418   .     A
C89    C338    1.421   .     S
C90    C116    1.418   .     A
C90    C575    1.421   .     S
C91    C104    1.421   .     A
C91    C117    1.418   .     A
C92    C118    1.418   .     A
C92    C577    1.421   .     S
C93    C106    1.421   .     A
C93    C119    1.418   .     A
C94    C120    1.418   .     A
C94    C107    1.421   .     A
C95    C344    1.421   .     A
C95    C239    1.418   .     S
C95    C309    1.405   .     S
C96    C105    1.421   .     A
C97    C578    1.421   .     S
C98    C343    1.421   .     S
C99    O160    1.273   .     S
C99    O165    1.273   .     S
C100   C243    1.418   1_455 S
C100   C305    1.405   1_455 S
C100   C108    1.421   .     S
C101   C102    1.406   .     A
C101   C319    1.421   1_455 S
C102   C325    1.421   1_455 S
C103   C104    1.406   .     A
C103   C562    1.421   1_545 S
C104   C558    1.421   1_545 S
C105   C564    1.421   1_545 S
C105   C106    1.406   1_556 S
C106   C569    1.421   1_545 S
C106   C105    1.406   1_554 S
C107   C334    1.421   1_455 S
C107   C108    1.406   1_556 S
C108   C331    1.421   1_455 A
C108   C107    1.406   1_554 S
C109   C115    1.414   .     A
C110   O194    1.276   .     A
C110   O166    1.276   .     A
C111   C114    1.414   .     A
C112   C117    1.414   .     A
C113   C116    1.414   .     A
C118   C5      1.414   1_556 S
C119   C4      1.414   1_554 S
C120   C243    1.414   1_456 S
H138   C489    1.085   1_545 S
H140   C255    1.085   .     S
H141   C256    1.085   .     S
H142   C493    1.085   .     S
H145   C259    1.085   1_455 S
H146   C261    1.085   1_455 S
O153   Zn232   1.936   .     S
O153   Zn224   1.936   .     S
O153   Zn221   1.936   .     S
O153   Zn700   1.936   1_545 S
O154   Zn223   1.953   .     S
O154   C505    1.273   .     A
O155   Zn226   1.953   .     S
O155   C280    1.273   .     S
O156   Zn225   1.953   .     S
O157   Zn235   1.953   .     S
O158   Zn234   1.953   .     S
O159   Zn229   1.953   .     S
O160   Zn221   1.953   .     S
O161   Zn231   1.953   .     S
O162   Zn230   1.953   .     S
O163   Zn233   1.953   .     S
O164   Zn233   1.936   .     S
O164   Zn229   1.936   .     S
O164   Zn227   1.936   .     S
O164   Zn695   1.936   1_545 S
O165   Zn232   1.953   .     S
O166   Zn224   1.914   .     S
O167   Zn223   1.914   .     S
O168   Zn226   1.914   .     S
O169   Zn225   1.914   .     S
O170   Zn228   1.914   .     S
O171   Zn227   1.914   .     S
O172   Zn222   1.914   .     S
O173   Zn236   1.914   .     S
O174   Zn223   1.914   .     S
O175   Zn230   1.936   .     S
O175   Zn234   1.936   .     S
O175   Zn222   1.936   .     S
O175   Zn462   1.936   1_455 S
O176   Zn224   1.914   .     S
O177   Zn236   1.914   .     S
O178   Zn222   1.914   .     S
O179   Zn227   1.914   .     S
O180   Zn228   1.914   .     S
O181   Zn225   1.914   .     S
O182   Zn226   1.914   .     S
O183   Zn467   1.914   .     S
O184   Zn230   1.914   .     S
O185   Zn705   1.914   .     S
O186   Zn235   1.936   .     S
O186   Zn231   1.936   .     S
O186   Zn225   1.936   .     S
O186   Zn472   1.936   1_455 S
O187   Zn232   1.914   .     S
O188   Zn235   1.914   .     S
O189   Zn470   1.914   .     S
O190   Zn229   1.914   .     S
O191   Zn693   1.914   .     S
O192   Zn466   1.914   .     S
O193   Zn231   1.914   .     S
O194   Zn221   1.914   .     S
O195   Zn701   1.914   .     S
O196   Zn234   1.914   .     S
O197   C473    1.273   .     A
O197   Zn228   1.953   .     S
O198   Zn471   1.914   .     S
O199   Zn704   1.914   .     S
O200   Zn233   1.914   .     S
O208   Zn227   1.953   .     S
O211   C490    1.221   .     S
O215   C494    1.221   1_545 S
O218   Zn222   1.953   .     S
O219   Zn236   1.953   .     S
O219   C291    1.273   .     S
O220   Zn224   1.953   .     S
Zn221  O663    1.914   1_545 S
Zn223  O636    1.936   .     S
Zn226  O411    1.936   .     S
Zn228  O625    1.936   .     S
Zn229  O667    1.914   1_545 S
Zn230  O428    1.914   1_455 S
Zn231  O419    1.914   1_455 S
Zn232  O671    1.914   1_545 S
Zn233  O657    1.914   1_545 S
Zn234  O425    1.914   1_455 S
Zn235  O434    1.914   1_455 S
Zn236  O422    1.936   .     S
C237   O905    1.273   1_545 A
C237   C312    1.468   .     S
C237   O456    1.273   .     S
C238   O431    1.276   .     A
C238   C288    1.421   .     S
C238   O403    1.276   .     A
C239   C256    1.491   .     S
C239   C6      1.414   1_554 S
C240   C332    1.418   .     A
C240   C257    1.490   .     S
C240   C355    1.414   1_556 S
C241   C258    1.491   .     S
C241   C333    1.418   .     A
C241   C354    1.414   1_554 S
C242   C334    1.418   .     A
C242   C259    1.490   .     S
C242   C3      1.414   1_656 S
C243   C261    1.490   .     S
C243   C100    1.418   1_655 S
C243   C120    1.414   1_654 S
C244   O437    1.221   .     D
C244   C345    1.491   .     S
C244   H365    1.085   .     S
C245   C347    1.490   .     S
C245   H366    1.085   .     S
C245   O438    1.221   .     D
C246   H367    1.085   .     S
C246   O439    1.221   .     D
C246   C348    1.490   .     S
C247   H369    1.085   .     S
C247   C349    1.490   .     S
C247   O440    1.221   .     D
C248   C350    1.491   .     S
C248   O441    1.221   .     D
C248   H370    1.085   .     S
C249   O428    1.276   .     A
C249   C287    1.421   .     S
C249   O404    1.276   .     A
C250   C351    1.490   .     S
C250   O442    1.221   .     D
C250   H371    1.085   .     S
C251   O443    1.221   .     D
C251   H372    1.085   .     S
C251   C352    1.490   .     S
C252   H373    1.085   .     S
C252   O445    1.221   .     D
C252   C353    1.490   .     S
C253   O446    1.221   .     D
C253   C354    1.490   .     S
C253   H846    1.085   .     S
C254   C355    1.491   .     S
C254   H375    1.085   .     S
C254   O919    1.221   1_545 S
C255   O448    1.221   .     D
C255   C356    1.490   .     S
C256   O449    1.221   .     D
C257   O450    1.221   .     D
C257   H850    1.085   1_545 S
C258   H380    1.085   .     S
C258   O923    1.221   .     S
C259   O452    1.221   .     D
C259   H145    1.085   1_655 S
C260   C286    1.421   .     S
C260   O405    1.276   .     A
C260   O429    1.276   .     A
C261   O453    1.221   .     D
C261   H146    1.085   1_655 S
C262   C285    1.421   .     S
C262   O435    1.276   .     A
C262   O406    1.276   .     A
C263   O436    1.276   .     A
C263   C284    1.421   .     S
C263   O407    1.276   .     A
C264   C292    1.421   .     S
C264   O408    1.276   .     A
C264   O432    1.276   .     A
C265   C290    1.421   .     S
C265   O434    1.276   .     A
C265   O409    1.276   .     A
C266   C281    1.421   .     S
C266   O421    1.276   .     A
C266   O410    1.276   .     A
C267   C279    1.421   .     S
C267   O412    1.276   .     A
C267   O423    1.276   .     A
C268   O413    1.276   .     A
C268   C278    1.421   .     S
C268   O419    1.276   .     A
C269   O862    1.273   1_545 A
C269   C314    1.468   .     S
C269   O444    1.273   .     S
C270   O420    1.276   .     A
C270   C277    1.421   .     S
C270   O414    1.276   .     A
C271   O415    1.276   .     A
C271   O426    1.276   .     A
C271   C276    1.421   .     S
C272   O427    1.276   .     A
C272   O416    1.276   .     A
C272   C275    1.421   .     S
C273   O424    1.276   .     A
C273   O417    1.276   .     A
C273   C283    1.421   .     S
C274   O425    1.276   .     A
C274   O418    1.276   .     A
C274   C282    1.421   .     S
C275   C292    1.198   .     T
C276   C290    1.198   .     T
C277   C289    1.198   .     T
C278   C288    1.198   .     T
C279   C287    1.198   .     T
C280   O454    1.273   .     A
C280   C310    1.468   .     S
C281   C286    1.198   .     T
C282   C285    1.198   .     T
C283   C284    1.198   .     T
C289   C346    1.421   .     S
C291   C311    1.468   .     S
C291   O392    1.273   .     A
C293   H357    1.080   .     S
C293   C323    1.405   .     A
C293   C310    1.393   .     A
C294   H368    1.080   .     S
C294   C325    1.405   .     A
C294   C75     1.393   1_655 S
C295   C784    1.393   .     A
C295   H379    1.080   .     S
C295   C326    1.405   .     A
C296   C314    1.393   .     A
C296   H383    1.080   .     S
C296   C327    1.405   .     A
C297   H384    1.080   .     S
C297   C319    1.405   .     A
C297   C74     1.393   1_655 S
C298   H385    1.080   .     S
C298   C320    1.405   .     A
C298   C311    1.393   .     A
C299   C321    1.405   .     A
C299   H386    1.080   .     S
C299   C312    1.393   .     S
C300   C322    1.405   .     A
C300   H387    1.080   .     S
C300   C786    1.393   .     S
C301   C315    1.393   .     A
C301   C332    1.405   .     A
C301   H388    1.080   .     S
C302   O397    1.273   .     A
C302   C317    1.468   .     S
C302   O393    1.273   .     A
C303   H358    1.080   .     S
C303   C333    1.405   .     A
C303   C788    1.393   .     S
C304   H359    1.080   .     S
C304   C334    1.405   .     A
C304   C81     1.393   1_655 S
C305   C82     1.393   1_655 A
C305   H360    1.080   .     S
C305   C100    1.405   1_655 S
C306   H361    1.080   .     S
C306   C328    1.405   .     A
C306   C787    1.393   .     S
C307   C316    1.393   .     A
C307   H362    1.080   .     S
C307   C329    1.405   .     A
C308   C317    1.393   .     A
C308   H363    1.080   .     S
C308   C330    1.405   .     A
C309   H364    1.080   .     S
C309   C318    1.393   .     S
C312   C767    1.393   1_545 A
C313   O394    1.273   .     A
C313   O398    1.273   .     A
C313   C318    1.468   .     S
C314   C772    1.393   1_545 S
C315   C324    1.468   .     S
C315   C778    1.393   1_545 S
C316   C335    1.468   .     S
C316   C775    1.393   1_545 S
C319   C345    1.418   .     A
C319   C101    1.421   1_655 S
C320   C338    1.421   .     A
C320   C347    1.418   .     A
C321   C348    1.418   .     A
C321   C339    1.421   .     A
C322   C349    1.418   .     A
C322   C812    1.421   .     S
C323   C350    1.418   .     A
C323   C337    1.421   .     A
C324   O395    1.273   .     A
C324   O399    1.273   .     A
C325   C351    1.418   .     A
C325   C102    1.421   1_655 S
C326   C352    1.418   .     A
C326   C811    1.421   .     S
C327   C340    1.421   .     A
C327   C353    1.418   .     A
C328   C354    1.418   .     A
C328   C813    1.421   .     S
C329   C342    1.421   .     A
C329   C355    1.418   .     A
C330   C356    1.418   .     A
C330   C343    1.421   .     A
C331   C108    1.421   1_655 A
C331   C3      1.418   1_655 S
C331   C73     1.405   1_655 S
C332   C341    1.421   .     A
C333   C814    1.421   .     S
C334   C107    1.421   1_655 S
C335   O396    1.273   .     S
C335   O401    1.273   .     S
C336   C344    1.421   .     S
C337   C338    1.406   .     A
C339   C340    1.406   .     A
C339   C798    1.421   1_545 S
C340   C794    1.421   1_545 S
C341   C800    1.421   1_545 S
C341   C342    1.406   1_556 S
C342   C805    1.421   1_545 S
C342   C341    1.406   1_554 S
C343   C344    1.406   1_556 S
C344   C343    1.406   1_554 S
C345   C351    1.414   .     A
C346   O430    1.276   .     A
C346   O402    1.276   .     A
C347   C350    1.414   .     A
C348   C353    1.414   .     A
C349   C352    1.414   .     A
C354   C241    1.414   1_556 S
C355   C240    1.414   1_554 S
C356   C7      1.414   1_556 S
H374   C725    1.085   1_545 S
H376   C19     1.085   1_655 S
H377   C20     1.085   1_655 S
H378   C729    1.085   .     S
O389   Zn468   1.936   .     S
O389   Zn460   1.936   .     S
O389   Zn457   1.936   .     S
O389   Zn936   1.936   1_545 S
O390   Zn459   1.953   .     S
O390   C741    1.273   .     A
O391   Zn462   1.953   .     S
O391   C44     1.273   1_655 S
O392   Zn461   1.953   .     S
O393   Zn471   1.953   .     S
O394   Zn470   1.953   .     S
O395   Zn465   1.953   .     S
O396   Zn457   1.953   .     S
O397   Zn467   1.953   .     S
O398   Zn466   1.953   .     S
O399   Zn469   1.953   .     S
O400   Zn469   1.936   .     S
O400   Zn465   1.936   .     S
O400   Zn463   1.936   .     S
O400   Zn931   1.936   1_545 S
O401   Zn468   1.953   .     S
O402   Zn460   1.914   .     S
O403   Zn459   1.914   .     S
O404   Zn462   1.914   .     S
O405   Zn461   1.914   .     S
O406   Zn464   1.914   .     S
O407   Zn463   1.914   .     S
O408   Zn458   1.914   .     S
O409   Zn472   1.914   .     S
O410   Zn459   1.914   .     S
O411   Zn466   1.936   .     S
O411   Zn470   1.936   .     S
O411   Zn458   1.936   .     S
O412   Zn460   1.914   .     S
O413   Zn472   1.914   .     S
O414   Zn458   1.914   .     S
O415   Zn463   1.914   .     S
O416   Zn464   1.914   .     S
O417   Zn461   1.914   .     S
O418   Zn462   1.914   .     S
O419   Zn231   1.914   1_655 S
O420   Zn466   1.914   .     S
O421   Zn941   1.914   .     S
O422   Zn471   1.936   .     S
O422   Zn467   1.936   .     S
O422   Zn461   1.936   .     S
O423   Zn468   1.914   .     S
O424   Zn471   1.914   .     S
O425   Zn234   1.914   1_655 S
O426   Zn465   1.914   .     S
O427   Zn929   1.914   .     S
O428   Zn230   1.914   1_655 S
O429   Zn467   1.914   .     S
O430   Zn457   1.914   .     S
O431   Zn937   1.914   .     S
O432   Zn470   1.914   .     S
O433   C709    1.273   .     A
O433   Zn464   1.953   .     S
O434   Zn235   1.914   1_655 S
O435   Zn940   1.914   .     S
O436   Zn469   1.914   .     S
O444   Zn463   1.953   .     S
O447   C726    1.221   .     S
O451   C730    1.221   1_545 S
O454   Zn458   1.953   .     S
O455   Zn472   1.953   .     S
O455   C55     1.273   1_655 S
O456   Zn460   1.953   .     S
Zn457  O899    1.914   1_545 S
Zn459  O872    1.936   .     S
Zn462  O175    1.936   1_655 S
Zn464  O861    1.936   .     S
Zn465  O903    1.914   1_545 S
Zn468  O907    1.914   1_545 S
Zn469  O893    1.914   1_545 S
Zn472  O186    1.936   1_655 S
C473   C548    1.468   .     S
C473   O692    1.273   .     S
C474   O667    1.276   .     A
C474   C524    1.421   .     S
C474   O639    1.276   .     A
C475   C492    1.491   .     S
C475   C714    1.414   1_454 S
C475   C803    1.418   1_455 S
C476   C568    1.418   .     A
C476   C493    1.490   .     S
C476   C591    1.414   1_556 S
C477   C494    1.491   .     S
C477   C569    1.418   .     A
C477   C590    1.414   1_554 S
C478   C570    1.418   .     A
C478   C495    1.490   .     S
C478   C711    1.414   1_556 S
C479   C497    1.490   .     S
C479   C808    1.418   .     S
C479   C828    1.414   1_554 S
C480   O673    1.221   .     D
C480   C581    1.491   .     S
C480   H601    1.085   .     S
C481   C583    1.490   .     S
C481   H602    1.085   .     S
C481   O674    1.221   .     D
C482   H603    1.085   .     S
C482   O675    1.221   .     D
C482   C584    1.490   .     S
C483   H605    1.085   .     S
C483   C585    1.490   .     S
C483   O676    1.221   .     D
C484   C586    1.491   .     S
C484   O677    1.221   .     D
C484   H606    1.085   .     S
C485   O664    1.276   .     A
C485   C523    1.421   .     S
C485   O640    1.276   .     A
C486   C587    1.490   .     S
C486   O678    1.221   .     D
C486   H607    1.085   .     S
C487   O679    1.221   .     D
C487   H608    1.085   .     S
C487   C588    1.490   .     S
C488   H609    1.085   .     S
C488   O681    1.221   .     D
C488   C589    1.490   .     S
C489   O682    1.221   .     D
C489   C590    1.490   .     S
C489   H138    1.085   1_565 S
C490   C591    1.491   .     S
C490   H611    1.085   .     S
C491   O684    1.221   .     D
C491   C592    1.490   .     S
C491   H848    1.085   1_455 S
C492   O685    1.221   .     D
C492   H849    1.085   1_455 S
C493   O686    1.221   .     D
C494   H616    1.085   .     S
C494   O215    1.221   1_565 S
C495   O688    1.221   .     D
C495   H853    1.085   .     S
C496   C522    1.421   .     S
C496   O641    1.276   .     A
C496   O665    1.276   .     A
C497   O689    1.221   .     D
C497   H854    1.085   .     S
C498   C521    1.421   .     S
C498   O671    1.276   .     A
C498   O642    1.276   .     A
C499   O672    1.276   .     A
C499   C520    1.421   .     S
C499   O643    1.276   .     A
C500   C528    1.421   .     S
C500   O644    1.276   .     A
C500   O668    1.276   .     A
C501   C526    1.421   .     S
C501   O670    1.276   .     A
C501   O645    1.276   .     A
C502   C517    1.421   .     S
C502   O657    1.276   .     A
C502   O646    1.276   .     A
C503   C515    1.421   .     S
C503   O648    1.276   .     A
C503   O659    1.276   .     A
C504   O649    1.276   .     A
C504   C514    1.421   .     S
C504   O655    1.276   .     A
C505   C550    1.468   .     S
C505   O680    1.273   .     S
C506   O656    1.276   .     A
C506   C513    1.421   .     S
C506   O650    1.276   .     A
C507   O651    1.276   .     A
C507   O662    1.276   .     A
C507   C512    1.421   .     S
C508   O663    1.276   .     A
C508   O652    1.276   .     A
C508   C511    1.421   .     S
C509   O660    1.276   .     A
C509   O653    1.276   .     A
C509   C519    1.421   .     S
C510   O661    1.276   .     A
C510   O654    1.276   .     A
C510   C518    1.421   .     S
C511   C528    1.198   .     T
C512   C526    1.198   .     T
C513   C525    1.198   .     T
C514   C524    1.198   .     T
C515   C523    1.198   .     T
C516   O690    1.273   .     A
C516   C546    1.468   .     S
C516   O863    1.273   1_455 S
C517   C522    1.198   .     T
C518   C521    1.198   .     T
C519   C520    1.198   .     T
C525   C582    1.421   .     S
C527   C547    1.468   .     S
C527   O628    1.273   .     A
C527   O927    1.273   1_455 S
C529   H593    1.080   .     S
C529   C559    1.405   .     A
C529   C546    1.393   .     A
C530   H604    1.080   .     S
C530   C561    1.405   .     A
C530   C783    1.393   .     S
C531   C76     1.393   1_565 A
C531   H615    1.080   .     S
C531   C562    1.405   .     A
C532   C550    1.393   .     A
C532   H619    1.080   .     S
C532   C563    1.405   .     A
C533   H620    1.080   .     S
C533   C555    1.405   .     A
C533   C782    1.393   .     S
C534   H621    1.080   .     S
C534   C556    1.405   .     A
C534   C547    1.393   .     A
C535   C557    1.405   .     A
C535   H622    1.080   .     S
C535   C548    1.393   .     S
C536   C558    1.405   .     A
C536   H623    1.080   .     S
C536   C78     1.393   1_565 S
C537   C551    1.393   .     A
C537   C568    1.405   .     A
C537   H624    1.080   .     S
C538   O633    1.273   .     A
C538   C553    1.468   .     S
C538   O629    1.273   .     A
C539   H594    1.080   .     S
C539   C569    1.405   .     A
C539   C80     1.393   1_565 S
C540   H595    1.080   .     S
C540   C570    1.405   .     A
C540   C789    1.393   .     S
C541   C790    1.393   .     A
C541   H596    1.080   .     S
C541   C808    1.405   .     S
C542   H597    1.080   .     S
C542   C564    1.405   .     A
C542   C79     1.393   1_565 S
C543   C552    1.393   .     A
C543   H598    1.080   .     S
C543   C565    1.405   .     A
C544   C553    1.393   .     A
C544   H599    1.080   .     S
C544   C566    1.405   .     A
C545   H600    1.080   .     S
C545   C554    1.393   .     S
C545   C803    1.405   1_455 S
C546   C769    1.393   1_455 S
C547   C766    1.393   1_455 S
C549   O630    1.273   .     A
C549   O634    1.273   .     A
C549   C554    1.468   .     S
C551   C560    1.468   .     S
C552   C571    1.468   .     S
C553   C776    1.393   1_455 S
C554   C777    1.393   1_455 A
C555   C581    1.418   .     A
C555   C809    1.421   .     S
C556   C574    1.421   .     A
C556   C583    1.418   .     A
C557   C584    1.418   .     A
C557   C575    1.421   .     A
C558   C585    1.418   .     A
C558   C104    1.421   1_565 S
C559   C586    1.418   .     A
C559   C573    1.421   .     A
C560   O631    1.273   .     A
C560   O635    1.273   .     A
C561   C587    1.418   .     A
C561   C810    1.421   .     S
C562   C588    1.418   .     A
C562   C103    1.421   1_565 S
C563   C576    1.421   .     A
C563   C589    1.418   .     A
C564   C590    1.418   .     A
C564   C105    1.421   1_565 S
C565   C578    1.421   .     A
C565   C591    1.418   .     A
C566   C592    1.418   .     A
C566   C579    1.421   .     A
C567   C816    1.421   .     A
C567   C711    1.418   .     S
C567   C781    1.405   .     S
C568   C577    1.421   .     A
C569   C106    1.421   1_565 S
C570   C815    1.421   .     S
C571   O632    1.273   .     S
C571   O637    1.273   .     S
C572   C715    1.418   1_455 S
C572   C777    1.405   1_455 S
C572   C580    1.421   .     S
C573   C574    1.406   .     A
C573   C791    1.421   1_455 S
C574   C797    1.421   1_455 S
C575   C576    1.406   .     A
C577   C578    1.406   1_556 S
C578   C577    1.406   1_554 S
C579   C806    1.421   1_455 S
C579   C580    1.406   1_556 S
C580   C803    1.421   1_455 A
C580   C579    1.406   1_554 S
C581   C587    1.414   .     A
C582   O666    1.276   .     A
C582   O638    1.276   .     A
C583   C586    1.414   .     A
C584   C589    1.414   .     A
C585   C588    1.414   .     A
C590   C477    1.414   1_556 S
C591   C476    1.414   1_554 S
C592   C715    1.414   1_456 S
H612   C727    1.085   .     S
H613   C728    1.085   .     S
H614   C21     1.085   1_565 S
H617   C731    1.085   1_455 S
H618   C733    1.085   1_455 S
O625   Zn704   1.936   .     S
O625   Zn696   1.936   .     S
O625   Zn693   1.936   .     S
O626   Zn695   1.953   .     S
O626   C33     1.273   1_565 A
O627   Zn698   1.953   .     S
O627   C752    1.273   .     S
O628   Zn697   1.953   .     S
O629   Zn707   1.953   .     S
O630   Zn706   1.953   .     S
O631   Zn701   1.953   .     S
O632   Zn693   1.953   .     S
O633   Zn703   1.953   .     S
O634   Zn702   1.953   .     S
O635   Zn705   1.953   .     S
O636   Zn705   1.936   .     S
O636   Zn701   1.936   .     S
O636   Zn699   1.936   .     S
O637   Zn704   1.953   .     S
O638   Zn696   1.914   .     S
O639   Zn695   1.914   .     S
O640   Zn698   1.914   .     S
O641   Zn697   1.914   .     S
O642   Zn700   1.914   .     S
O643   Zn699   1.914   .     S
O644   Zn694   1.914   .     S
O645   Zn708   1.914   .     S
O646   Zn695   1.914   .     S
O647   Zn702   1.936   .     S
O647   Zn706   1.936   .     S
O647   Zn694   1.936   .     S
O647   Zn934   1.936   1_455 S
O648   Zn696   1.914   .     S
O649   Zn708   1.914   .     S
O650   Zn694   1.914   .     S
O651   Zn699   1.914   .     S
O652   Zn700   1.914   .     S
O653   Zn697   1.914   .     S
O654   Zn698   1.914   .     S
O655   Zn939   1.914   .     S
O656   Zn702   1.914   .     S
O657   Zn233   1.914   1_565 S
O658   Zn707   1.936   .     S
O658   Zn703   1.936   .     S
O658   Zn697   1.936   .     S
O658   Zn944   1.936   1_455 S
O659   Zn704   1.914   .     S
O660   Zn707   1.914   .     S
O661   Zn942   1.914   .     S
O662   Zn701   1.914   .     S
O663   Zn221   1.914   1_565 S
O664   Zn938   1.914   .     S
O665   Zn703   1.914   .     S
O666   Zn693   1.914   .     S
O667   Zn229   1.914   1_565 S
O668   Zn706   1.914   .     S
O669   C1      1.273   1_565 A
O669   Zn700   1.953   .     S
O670   Zn943   1.914   .     S
O671   Zn232   1.914   1_565 S
O672   Zn705   1.914   .     S
O680   Zn699   1.953   .     S
O683   C18     1.221   1_565 S
O690   Zn694   1.953   .     S
O691   Zn708   1.953   .     S
O691   C763    1.273   .     S
O692   Zn696   1.953   .     S
Zn695  O164    1.936   1_565 S
Zn698  O883    1.936   .     S
Zn700  O153    1.936   1_565 S
Zn702  O900    1.914   1_455 S
Zn703  O891    1.914   1_455 S
Zn706  O897    1.914   1_455 S
Zn707  O906    1.914   1_455 S
Zn708  O894    1.936   .     S
C709   C784    1.468   .     S
C709   O928    1.273   .     S
C710   O903    1.276   .     A
C710   C760    1.421   .     S
C710   O875    1.276   .     A
C711   C728    1.491   .     S
C711   C478    1.414   1_554 S
C712   C804    1.418   .     A
C712   C729    1.490   .     S
C712   C827    1.414   1_556 S
C713   C730    1.491   .     S
C713   C805    1.418   .     A
C713   C826    1.414   1_554 S
C714   C806    1.418   .     A
C714   C731    1.490   .     S
C714   C475    1.414   1_656 S
C715   C733    1.490   .     S
C715   C572    1.418   1_655 S
C715   C592    1.414   1_654 S
C716   O909    1.221   .     D
C716   C817    1.491   .     S
C716   H837    1.085   .     S
C717   C819    1.490   .     S
C717   H838    1.085   .     S
C717   O910    1.221   .     D
C718   H839    1.085   .     S
C718   O911    1.221   .     D
C718   C820    1.490   .     S
C719   H841    1.085   .     S
C719   C821    1.490   .     S
C719   O912    1.221   .     D
C720   C822    1.491   .     S
C720   O913    1.221   .     D
C720   H842    1.085   .     S
C721   O900    1.276   .     A
C721   C759    1.421   .     S
C721   O876    1.276   .     A
C722   C823    1.490   .     S
C722   O914    1.221   .     D
C722   H843    1.085   .     S
C723   O915    1.221   .     D
C723   H844    1.085   .     S
C723   C824    1.490   .     S
C724   H845    1.085   .     S
C724   O917    1.221   .     D
C724   C825    1.490   .     S
C725   O918    1.221   .     D
C725   C826    1.490   .     S
C725   H374    1.085   1_565 S
C726   C827    1.491   .     S
C726   H847    1.085   .     S
C727   O920    1.221   .     D
C727   C828    1.490   .     S
C728   O921    1.221   .     D
C729   O922    1.221   .     D
C730   H852    1.085   .     S
C730   O451    1.221   1_565 S
C731   O924    1.221   .     D
C731   H617    1.085   1_655 S
C732   C758    1.421   .     S
C732   O877    1.276   .     A
C732   O901    1.276   .     A
C733   O925    1.221   .     D
C733   H618    1.085   1_655 S
C734   C757    1.421   .     S
C734   O907    1.276   .     A
C734   O878    1.276   .     A
C735   O908    1.276   .     A
C735   C756    1.421   .     S
C735   O879    1.276   .     A
C736   C764    1.421   .     S
C736   O880    1.276   .     A
C736   O904    1.276   .     A
C737   C762    1.421   .     S
C737   O906    1.276   .     A
C737   O881    1.276   .     A
C738   C753    1.421   .     S
C738   O893    1.276   .     A
C738   O882    1.276   .     A
C739   C751    1.421   .     S
C739   O884    1.276   .     A
C739   O895    1.276   .     A
C740   O885    1.276   .     A
C740   C750    1.421   .     S
C740   O891    1.276   .     A
C741   C786    1.468   .     S
C741   O916    1.273   .     S
C742   O892    1.276   .     A
C742   C749    1.421   .     S
C742   O886    1.276   .     A
C743   O887    1.276   .     A
C743   O898    1.276   .     A
C743   C748    1.421   .     S
C744   O899    1.276   .     A
C744   O888    1.276   .     A
C744   C747    1.421   .     S
C745   O896    1.276   .     A
C745   O889    1.276   .     A
C745   C755    1.421   .     S
C746   O897    1.276   .     A
C746   O890    1.276   .     A
C746   C754    1.421   .     S
C747   C764    1.198   .     T
C748   C762    1.198   .     T
C749   C761    1.198   .     T
C750   C760    1.198   .     T
C751   C759    1.198   .     T
C752   O926    1.273   .     A
C752   C782    1.468   .     S
C753   C758    1.198   .     T
C754   C757    1.198   .     T
C755   C756    1.198   .     T
C761   C818    1.421   .     S
C763   C783    1.468   .     S
C763   O864    1.273   .     A
C765   H829    1.080   .     S
C765   C795    1.405   .     A
C765   C782    1.393   .     A
C766   H840    1.080   .     S
C766   C797    1.405   .     A
C766   C547    1.393   1_655 S
C767   C312    1.393   1_565 A
C767   H851    1.080   .     S
C767   C798    1.405   .     A
C768   C786    1.393   .     A
C768   H855    1.080   .     S
C768   C799    1.405   .     A
C769   H856    1.080   .     S
C769   C791    1.405   .     A
C769   C546    1.393   1_655 S
C770   H857    1.080   .     S
C770   C792    1.405   .     A
C770   C783    1.393   .     A
C771   C793    1.405   .     A
C771   H858    1.080   .     S
C771   C784    1.393   .     S
C772   C794    1.405   .     A
C772   H859    1.080   .     S
C772   C314    1.393   1_565 S
C773   C787    1.393   .     A
C773   C804    1.405   .     A
C773   H860    1.080   .     S
C774   O869    1.273   .     A
C774   C789    1.468   .     S
C774   O865    1.273   .     A
C775   H830    1.080   .     S
C775   C805    1.405   .     A
C775   C316    1.393   1_565 S
C776   H831    1.080   .     S
C776   C806    1.405   .     A
C776   C553    1.393   1_655 S
C777   C554    1.393   1_655 A
C777   H832    1.080   .     S
C777   C572    1.405   1_655 S
C778   H833    1.080   .     S
C778   C800    1.405   .     A
C778   C315    1.393   1_565 S
C779   C788    1.393   .     A
C779   H834    1.080   .     S
C779   C801    1.405   .     A
C780   C789    1.393   .     A
C780   H835    1.080   .     S
C780   C802    1.405   .     A
C781   H836    1.080   .     S
C781   C790    1.393   .     S
C785   O866    1.273   .     A
C785   O870    1.273   .     A
C785   C790    1.468   .     S
C787   C796    1.468   .     S
C788   C807    1.468   .     S
C791   C817    1.418   .     A
C791   C573    1.421   1_655 S
C792   C810    1.421   .     A
C792   C819    1.418   .     A
C793   C820    1.418   .     A
C793   C811    1.421   .     A
C794   C821    1.418   .     A
C794   C340    1.421   1_565 S
C795   C822    1.418   .     A
C795   C809    1.421   .     A
C796   O867    1.273   .     A
C796   O871    1.273   .     A
C797   C823    1.418   .     A
C797   C574    1.421   1_655 S
C798   C824    1.418   .     A
C798   C339    1.421   1_565 S
C799   C812    1.421   .     A
C799   C825    1.418   .     A
C800   C826    1.418   .     A
C800   C341    1.421   1_565 S
C801   C814    1.421   .     A
C801   C827    1.418   .     A
C802   C828    1.418   .     A
C802   C815    1.421   .     A
C803   C580    1.421   1_655 A
C803   C475    1.418   1_655 S
C803   C545    1.405   1_655 S
C804   C813    1.421   .     A
C805   C342    1.421   1_565 S
C806   C579    1.421   1_655 S
C807   O868    1.273   .     S
C807   O873    1.273   .     S
C808   C816    1.421   .     S
C809   C810    1.406   .     A
C811   C812    1.406   .     A
C813   C814    1.406   1_556 S
C814   C813    1.406   1_554 S
C815   C816    1.406   1_556 S
C816   C815    1.406   1_554 S
C817   C823    1.414   .     A
C818   O902    1.276   .     A
C818   O874    1.276   .     A
C819   C822    1.414   .     A
C820   C825    1.414   .     A
C821   C824    1.414   .     A
C826   C713    1.414   1_556 S
C827   C712    1.414   1_554 S
C828   C479    1.414   1_556 S
H848   C491    1.085   1_655 S
H849   C492    1.085   1_655 S
H850   C257    1.085   1_565 S
O861   Zn940   1.936   .     S
O861   Zn932   1.936   .     S
O861   Zn929   1.936   .     S
O862   Zn931   1.953   .     S
O862   C269    1.273   1_565 A
O863   Zn934   1.953   .     S
O863   C516    1.273   1_655 S
O864   Zn933   1.953   .     S
O865   Zn943   1.953   .     S
O866   Zn942   1.953   .     S
O867   Zn937   1.953   .     S
O868   Zn929   1.953   .     S
O869   Zn939   1.953   .     S
O870   Zn938   1.953   .     S
O871   Zn941   1.953   .     S
O872   Zn941   1.936   .     S
O872   Zn937   1.936   .     S
O872   Zn935   1.936   .     S
O873   Zn940   1.953   .     S
O874   Zn932   1.914   .     S
O875   Zn931   1.914   .     S
O876   Zn934   1.914   .     S
O877   Zn933   1.914   .     S
O878   Zn936   1.914   .     S
O879   Zn935   1.914   .     S
O880   Zn930   1.914   .     S
O881   Zn944   1.914   .     S
O882   Zn931   1.914   .     S
O883   Zn938   1.936   .     S
O883   Zn942   1.936   .     S
O883   Zn930   1.936   .     S
O884   Zn932   1.914   .     S
O885   Zn944   1.914   .     S
O886   Zn930   1.914   .     S
O887   Zn935   1.914   .     S
O888   Zn936   1.914   .     S
O889   Zn933   1.914   .     S
O890   Zn934   1.914   .     S
O891   Zn703   1.914   1_655 S
O892   Zn938   1.914   .     S
O893   Zn469   1.914   1_565 S
O894   Zn943   1.936   .     S
O894   Zn939   1.936   .     S
O894   Zn933   1.936   .     S
O895   Zn940   1.914   .     S
O896   Zn943   1.914   .     S
O897   Zn706   1.914   1_655 S
O898   Zn937   1.914   .     S
O899   Zn457   1.914   1_565 S
O900   Zn702   1.914   1_655 S
O901   Zn939   1.914   .     S
O902   Zn929   1.914   .     S
O903   Zn465   1.914   1_565 S
O904   Zn942   1.914   .     S
O905   C237    1.273   1_565 A
O905   Zn936   1.953   .     S
O906   Zn707   1.914   1_655 S
O907   Zn468   1.914   1_565 S
O908   Zn941   1.914   .     S
O916   Zn935   1.953   .     S
O919   C254    1.221   1_565 S
O926   Zn930   1.953   .     S
O927   Zn944   1.953   .     S
O927   C527    1.273   1_655 S
O928   Zn932   1.953   .     S
Zn931  O400    1.936   1_565 S
Zn934  O647    1.936   1_655 S
Zn936  O389    1.936   1_565 S
Zn944  O658    1.936   1_655 S
