data_str_m3_o1_o10_pcu_sym.55
_audit_creation_date              2020-01-03
_audit_creation_method            'Materials Studio'
_symmetry_space_group_name_H-M    'P1'
_symmetry_Int_Tables_number       1
_symmetry_cell_setting            triclinic
loop_
_symmetry_equiv_pos_as_xyz
  x,y,z
_cell_length_a                    25.7375
_cell_length_b                    32.1694
_cell_length_c                    29.5291
_cell_angle_alpha                 89.7423
_cell_angle_beta                  98.6394
_cell_angle_gamma                 90.2512
loop_
_atom_site_label
_atom_site_type_symbol
_atom_site_fract_x
_atom_site_fract_y
_atom_site_fract_z
_atom_site_U_iso_or_equiv
_atom_site_adp_type
_atom_site_occupancy
C1     C     0.16912   0.08660   0.16701   0.00000  Uiso   1.00
C2     C     0.19075   0.02126   0.20974   0.00000  Uiso   1.00
C3     C     0.17989   0.29067   0.16758   0.00000  Uiso   1.00
C4     C     0.17751   0.04262   0.16779   0.00000  Uiso   1.00
C5     C     0.21041   0.17840   0.02957   0.00000  Uiso   1.00
C6     C     0.12324   0.15411   0.30378   0.00000  Uiso   1.00
C7     C     0.21028   0.17872   0.31499   0.00000  Uiso   1.00
C8     C     0.12320   0.15426   0.01836   0.00000  Uiso   1.00
C9     C     0.23580   0.28292   0.08185   0.00000  Uiso   1.00
C10    C     0.26830   0.32111   0.07172   0.00000  Uiso   1.00
C11    C     0.32291   0.30850   0.06264   0.00000  Uiso   1.00
C12    C     0.17065   0.24665   0.16703   0.00000  Uiso   1.00
C13    C     0.25401   0.05751   0.25691   0.00000  Uiso   1.00
C14    C     0.29466   0.02383   0.27314   0.00000  Uiso   1.00
C15    C     0.01607   0.04254   0.28651   0.00000  Uiso   1.00
C16    C     0.06703   0.16665   0.15469   0.00000  Uiso   1.00
C17    C     0.26630   0.16663   0.17865   0.00000  Uiso   1.00
C18    C     0.01198   0.16665   0.14824   0.00000  Uiso   1.00
C19    C     0.32134   0.16652   0.18511   0.00000  Uiso   1.00
C20    C     0.17428   0.02142   0.12607   0.00000  Uiso   1.00
C21    C     0.18822   0.31181   0.20953   0.00000  Uiso   1.00
C22    C     0.18032   0.31248   0.12613   0.00000  Uiso   1.00
F23    F     0.16608   0.04123   0.08483   0.00000  Uiso   1.00
F24    F     0.19485   0.29137   0.25038   0.00000  Uiso   1.00
H25    H     0.32470   0.16679   0.11327   0.00000  Uiso   1.00
H26    H     0.27305   0.00925   0.10142   0.00000  Uiso   1.00
H27    H     0.01122   0.29236   0.09306   0.00000  Uiso   1.00
H28    H     0.01214   0.00333   0.05548   0.00000  Uiso   1.00
H29    H     0.31986   0.28755   0.03255   0.00000  Uiso   1.00
H30    H     0.25669   0.08218   0.28339   0.00000  Uiso   1.00
H31    H     0.26378   0.07272   0.22523   0.00000  Uiso   1.00
H32    H     0.28304   0.00723   0.30307   0.00000  Uiso   1.00
H33    H     0.29604   0.00091   0.24530   0.00000  Uiso   1.00
H34    H     0.02862   0.05906   0.25682   0.00000  Uiso   1.00
H35    H     0.04463   0.01738   0.29760   0.00000  Uiso   1.00
H36    H     0.00861   0.16636   0.22008   0.00000  Uiso   1.00
H37    H     0.01627   0.06468   0.31530   0.00000  Uiso   1.00
H38    H     0.24557   0.18758   0.05210   0.00000  Uiso   1.00
H39    H     0.08853   0.14387   0.28131   0.00000  Uiso   1.00
H40    H     0.24516   0.18850   0.30144   0.00000  Uiso   1.00
H41    H     0.08843   0.14423   0.03193   0.00000  Uiso   1.00
H42    H     0.23514   0.26102   0.05292   0.00000  Uiso   1.00
H43    H     0.25525   0.26642   0.11313   0.00000  Uiso   1.00
H44    H     0.24756   0.00455   0.04136   0.00000  Uiso   1.00
N45    N     0.16665   0.16666   0.28573   0.00000  Uiso   1.00
N46    N     0.16668   0.16668   0.04760   0.00000  Uiso   1.00
O47    O     0.16666   0.10558   0.20487   0.00000  Uiso   1.00
O48    O     0.20209   0.04133   0.25151   0.00000  Uiso   1.00
O49    O     0.16667   0.22775   0.12846   0.00000  Uiso   1.00
O50    O     0.16666   0.10559   0.12843   0.00000  Uiso   1.00
O51    O     0.16667   0.22774   0.20490   0.00000  Uiso   1.00
O52    O     0.09058   0.16666   0.19595   0.00000  Uiso   1.00
O53    O     0.24275   0.16667   0.13739   0.00000  Uiso   1.00
O54    O     0.09058   0.16667   0.11950   0.00000  Uiso   1.00
O55    O     0.24275   0.16666   0.21383   0.00000  Uiso   1.00
O56    O     0.18283   0.29318   0.08469   0.00000  Uiso   1.00
Zn57   Zn    0.16667   0.16666   0.21771   0.00000  Uiso   1.00
Zn58   Zn    0.16667   0.16667   0.11563   0.00000  Uiso   1.00
C59    C     0.50245   0.08660   0.16701   0.00000  Uiso   1.00
C60    C     0.52408   0.02126   0.20974   0.00000  Uiso   1.00
C61    C     0.51323   0.29067   0.16758   0.00000  Uiso   1.00
C62    C     0.51084   0.04262   0.16779   0.00000  Uiso   1.00
C63    C     0.54375   0.17840   0.02957   0.00000  Uiso   1.00
C64    C     0.45657   0.15411   0.30378   0.00000  Uiso   1.00
C65    C     0.54361   0.17872   0.31499   0.00000  Uiso   1.00
C66    C     0.45653   0.15426   0.01836   0.00000  Uiso   1.00
C67    C     0.56913   0.28292   0.08185   0.00000  Uiso   1.00
C68    C     0.60163   0.32111   0.07172   0.00000  Uiso   1.00
C69    C     0.65625   0.30850   0.06264   0.00000  Uiso   1.00
C70    C     0.50398   0.24665   0.16703   0.00000  Uiso   1.00
C71    C     0.58735   0.05751   0.25691   0.00000  Uiso   1.00
C72    C     0.62799   0.02383   0.27314   0.00000  Uiso   1.00
C73    C     0.34940   0.04254   0.28651   0.00000  Uiso   1.00
C74    C     0.40036   0.16665   0.15469   0.00000  Uiso   1.00
C75    C     0.59964   0.16663   0.17865   0.00000  Uiso   1.00
C76    C     0.34532   0.16665   0.14824   0.00000  Uiso   1.00
C77    C     0.65467   0.16652   0.18511   0.00000  Uiso   1.00
C78    C     0.50762   0.02142   0.12607   0.00000  Uiso   1.00
C79    C     0.52155   0.31181   0.20953   0.00000  Uiso   1.00
C80    C     0.51365   0.31248   0.12613   0.00000  Uiso   1.00
F81    F     0.49941   0.04123   0.08483   0.00000  Uiso   1.00
F82    F     0.52819   0.29137   0.25038   0.00000  Uiso   1.00
H83    H     0.65803   0.16679   0.11327   0.00000  Uiso   1.00
H84    H     0.60638   0.00925   0.10142   0.00000  Uiso   1.00
H85    H     0.34455   0.29236   0.09306   0.00000  Uiso   1.00
H86    H     0.34548   0.00333   0.05548   0.00000  Uiso   1.00
H87    H     0.65320   0.28755   0.03255   0.00000  Uiso   1.00
H88    H     0.59002   0.08218   0.28339   0.00000  Uiso   1.00
H89    H     0.59711   0.07272   0.22523   0.00000  Uiso   1.00
H90    H     0.61637   0.00723   0.30307   0.00000  Uiso   1.00
H91    H     0.62937   0.00091   0.24530   0.00000  Uiso   1.00
H92    H     0.36195   0.05906   0.25682   0.00000  Uiso   1.00
H93    H     0.37796   0.01738   0.29760   0.00000  Uiso   1.00
H94    H     0.34195   0.16636   0.22008   0.00000  Uiso   1.00
H95    H     0.34961   0.06468   0.31530   0.00000  Uiso   1.00
H96    H     0.57891   0.18758   0.05210   0.00000  Uiso   1.00
H97    H     0.42186   0.14387   0.28131   0.00000  Uiso   1.00
H98    H     0.57849   0.18850   0.30144   0.00000  Uiso   1.00
H99    H     0.42176   0.14423   0.03193   0.00000  Uiso   1.00
H100   H     0.56848   0.26102   0.05292   0.00000  Uiso   1.00
H101   H     0.58859   0.26642   0.11313   0.00000  Uiso   1.00
H102   H     0.58090   0.00455   0.04136   0.00000  Uiso   1.00
N103   N     0.49999   0.16666   0.28573   0.00000  Uiso   1.00
N104   N     0.50001   0.16668   0.04760   0.00000  Uiso   1.00
O105   O     0.50000   0.10558   0.20487   0.00000  Uiso   1.00
O106   O     0.53542   0.04133   0.25151   0.00000  Uiso   1.00
O107   O     0.50000   0.22775   0.12846   0.00000  Uiso   1.00
O108   O     0.50000   0.10559   0.12843   0.00000  Uiso   1.00
O109   O     0.50000   0.22774   0.20490   0.00000  Uiso   1.00
O110   O     0.42392   0.16666   0.19595   0.00000  Uiso   1.00
O111   O     0.57608   0.16667   0.13739   0.00000  Uiso   1.00
O112   O     0.42392   0.16667   0.11950   0.00000  Uiso   1.00
O113   O     0.57608   0.16666   0.21383   0.00000  Uiso   1.00
O114   O     0.51616   0.29318   0.08469   0.00000  Uiso   1.00
Zn115  Zn    0.50000   0.16666   0.21771   0.00000  Uiso   1.00
Zn116  Zn    0.50000   0.16667   0.11563   0.00000  Uiso   1.00
C117   C     0.83578   0.08660   0.16701   0.00000  Uiso   1.00
C118   C     0.85742   0.02126   0.20974   0.00000  Uiso   1.00
C119   C     0.84656   0.29067   0.16758   0.00000  Uiso   1.00
C120   C     0.84417   0.04262   0.16779   0.00000  Uiso   1.00
C121   C     0.87708   0.17840   0.02957   0.00000  Uiso   1.00
C122   C     0.78991   0.15411   0.30378   0.00000  Uiso   1.00
C123   C     0.87694   0.17872   0.31499   0.00000  Uiso   1.00
C124   C     0.78986   0.15426   0.01836   0.00000  Uiso   1.00
C125   C     0.90246   0.28292   0.08185   0.00000  Uiso   1.00
C126   C     0.93497   0.32111   0.07172   0.00000  Uiso   1.00
C127   C     0.98958   0.30850   0.06264   0.00000  Uiso   1.00
C128   C     0.83732   0.24665   0.16703   0.00000  Uiso   1.00
C129   C     0.92068   0.05751   0.25691   0.00000  Uiso   1.00
C130   C     0.96133   0.02383   0.27314   0.00000  Uiso   1.00
C131   C     0.68274   0.04254   0.28651   0.00000  Uiso   1.00
C132   C     0.73369   0.16665   0.15469   0.00000  Uiso   1.00
C133   C     0.93297   0.16663   0.17865   0.00000  Uiso   1.00
C134   C     0.67865   0.16665   0.14824   0.00000  Uiso   1.00
C135   C     0.98800   0.16652   0.18511   0.00000  Uiso   1.00
C136   C     0.84095   0.02142   0.12607   0.00000  Uiso   1.00
C137   C     0.85488   0.31181   0.20953   0.00000  Uiso   1.00
C138   C     0.84699   0.31248   0.12613   0.00000  Uiso   1.00
F139   F     0.83275   0.04123   0.08483   0.00000  Uiso   1.00
F140   F     0.86152   0.29137   0.25038   0.00000  Uiso   1.00
H141   H     0.99137   0.16679   0.11327   0.00000  Uiso   1.00
H142   H     0.93971   0.00925   0.10142   0.00000  Uiso   1.00
H143   H     0.67788   0.29236   0.09306   0.00000  Uiso   1.00
H144   H     0.67881   0.00333   0.05548   0.00000  Uiso   1.00
H145   H     0.98653   0.28755   0.03255   0.00000  Uiso   1.00
H146   H     0.92335   0.08218   0.28339   0.00000  Uiso   1.00
H147   H     0.93045   0.07272   0.22523   0.00000  Uiso   1.00
H148   H     0.94970   0.00723   0.30307   0.00000  Uiso   1.00
H149   H     0.96271   0.00091   0.24530   0.00000  Uiso   1.00
H150   H     0.69528   0.05906   0.25682   0.00000  Uiso   1.00
H151   H     0.71130   0.01738   0.29760   0.00000  Uiso   1.00
H152   H     0.67528   0.16636   0.22008   0.00000  Uiso   1.00
H153   H     0.68294   0.06468   0.31530   0.00000  Uiso   1.00
H154   H     0.91224   0.18758   0.05210   0.00000  Uiso   1.00
H155   H     0.75520   0.14387   0.28131   0.00000  Uiso   1.00
H156   H     0.91182   0.18850   0.30144   0.00000  Uiso   1.00
H157   H     0.75510   0.14423   0.03193   0.00000  Uiso   1.00
H158   H     0.90181   0.26102   0.05292   0.00000  Uiso   1.00
H159   H     0.92192   0.26642   0.11313   0.00000  Uiso   1.00
H160   H     0.91423   0.00455   0.04136   0.00000  Uiso   1.00
N161   N     0.83332   0.16666   0.28573   0.00000  Uiso   1.00
N162   N     0.83335   0.16668   0.04760   0.00000  Uiso   1.00
O163   O     0.83333   0.10558   0.20487   0.00000  Uiso   1.00
O164   O     0.86876   0.04133   0.25151   0.00000  Uiso   1.00
O165   O     0.83334   0.22775   0.12846   0.00000  Uiso   1.00
O166   O     0.83333   0.10559   0.12843   0.00000  Uiso   1.00
O167   O     0.83334   0.22774   0.20490   0.00000  Uiso   1.00
O168   O     0.75725   0.16666   0.19595   0.00000  Uiso   1.00
O169   O     0.90942   0.16667   0.13739   0.00000  Uiso   1.00
O170   O     0.75725   0.16667   0.11950   0.00000  Uiso   1.00
O171   O     0.90942   0.16666   0.21383   0.00000  Uiso   1.00
O172   O     0.84950   0.29318   0.08469   0.00000  Uiso   1.00
Zn173  Zn    0.83333   0.16666   0.21771   0.00000  Uiso   1.00
Zn174  Zn    0.83333   0.16667   0.11563   0.00000  Uiso   1.00
C175   C     0.16912   0.41994   0.16701   0.00000  Uiso   1.00
C176   C     0.19075   0.35459   0.20974   0.00000  Uiso   1.00
C177   C     0.17989   0.62400   0.16758   0.00000  Uiso   1.00
C178   C     0.17751   0.37595   0.16779   0.00000  Uiso   1.00
C179   C     0.21041   0.51173   0.02957   0.00000  Uiso   1.00
C180   C     0.12324   0.48745   0.30378   0.00000  Uiso   1.00
C181   C     0.21028   0.51205   0.31499   0.00000  Uiso   1.00
C182   C     0.12320   0.48759   0.01836   0.00000  Uiso   1.00
C183   C     0.23580   0.61625   0.08185   0.00000  Uiso   1.00
C184   C     0.26830   0.65444   0.07172   0.00000  Uiso   1.00
C185   C     0.32291   0.64183   0.06264   0.00000  Uiso   1.00
C186   C     0.17065   0.57998   0.16703   0.00000  Uiso   1.00
C187   C     0.25401   0.39084   0.25691   0.00000  Uiso   1.00
C188   C     0.29466   0.35716   0.27314   0.00000  Uiso   1.00
C189   C     0.01607   0.37587   0.28651   0.00000  Uiso   1.00
C190   C     0.06703   0.49998   0.15469   0.00000  Uiso   1.00
C191   C     0.26630   0.49996   0.17865   0.00000  Uiso   1.00
C192   C     0.01198   0.49999   0.14824   0.00000  Uiso   1.00
C193   C     0.32134   0.49985   0.18511   0.00000  Uiso   1.00
C194   C     0.17428   0.35476   0.12607   0.00000  Uiso   1.00
C195   C     0.18822   0.64514   0.20953   0.00000  Uiso   1.00
C196   C     0.18032   0.64581   0.12613   0.00000  Uiso   1.00
F197   F     0.16608   0.37456   0.08483   0.00000  Uiso   1.00
F198   F     0.19485   0.62470   0.25038   0.00000  Uiso   1.00
H199   H     0.32470   0.50013   0.11327   0.00000  Uiso   1.00
H200   H     0.27305   0.34258   0.10142   0.00000  Uiso   1.00
H201   H     0.01122   0.62569   0.09306   0.00000  Uiso   1.00
H202   H     0.01214   0.33666   0.05548   0.00000  Uiso   1.00
H203   H     0.31986   0.62088   0.03255   0.00000  Uiso   1.00
H204   H     0.25669   0.41551   0.28339   0.00000  Uiso   1.00
H205   H     0.26378   0.40606   0.22523   0.00000  Uiso   1.00
H206   H     0.28304   0.34057   0.30307   0.00000  Uiso   1.00
H207   H     0.29604   0.33425   0.24530   0.00000  Uiso   1.00
H208   H     0.02862   0.39240   0.25682   0.00000  Uiso   1.00
H209   H     0.04463   0.35071   0.29760   0.00000  Uiso   1.00
H210   H     0.00861   0.49969   0.22008   0.00000  Uiso   1.00
H211   H     0.01627   0.39801   0.31530   0.00000  Uiso   1.00
H212   H     0.24557   0.52091   0.05210   0.00000  Uiso   1.00
H213   H     0.08853   0.47720   0.28131   0.00000  Uiso   1.00
H214   H     0.24516   0.52183   0.30144   0.00000  Uiso   1.00
H215   H     0.08843   0.47757   0.03193   0.00000  Uiso   1.00
H216   H     0.23514   0.59435   0.05292   0.00000  Uiso   1.00
H217   H     0.25525   0.59976   0.11313   0.00000  Uiso   1.00
H218   H     0.24756   0.33788   0.04136   0.00000  Uiso   1.00
N219   N     0.16665   0.49999   0.28573   0.00000  Uiso   1.00
N220   N     0.16668   0.50001   0.04760   0.00000  Uiso   1.00
O221   O     0.16666   0.43892   0.20487   0.00000  Uiso   1.00
O222   O     0.20209   0.37467   0.25151   0.00000  Uiso   1.00
O223   O     0.16667   0.56108   0.12846   0.00000  Uiso   1.00
O224   O     0.16666   0.43893   0.12843   0.00000  Uiso   1.00
O225   O     0.16667   0.56107   0.20490   0.00000  Uiso   1.00
O226   O     0.09058   0.50000   0.19595   0.00000  Uiso   1.00
O227   O     0.24275   0.50000   0.13739   0.00000  Uiso   1.00
O228   O     0.09058   0.50000   0.11950   0.00000  Uiso   1.00
O229   O     0.24275   0.50000   0.21383   0.00000  Uiso   1.00
O230   O     0.18283   0.62652   0.08469   0.00000  Uiso   1.00
Zn231  Zn    0.16667   0.49999   0.21771   0.00000  Uiso   1.00
Zn232  Zn    0.16667   0.50001   0.11563   0.00000  Uiso   1.00
C233   C     0.50245   0.41994   0.16701   0.00000  Uiso   1.00
C234   C     0.52408   0.35459   0.20974   0.00000  Uiso   1.00
C235   C     0.51323   0.62400   0.16758   0.00000  Uiso   1.00
C236   C     0.51084   0.37595   0.16779   0.00000  Uiso   1.00
C237   C     0.54375   0.51173   0.02957   0.00000  Uiso   1.00
C238   C     0.45657   0.48745   0.30378   0.00000  Uiso   1.00
C239   C     0.54361   0.51205   0.31499   0.00000  Uiso   1.00
C240   C     0.45653   0.48759   0.01836   0.00000  Uiso   1.00
C241   C     0.56913   0.61625   0.08185   0.00000  Uiso   1.00
C242   C     0.60163   0.65444   0.07172   0.00000  Uiso   1.00
C243   C     0.65625   0.64183   0.06264   0.00000  Uiso   1.00
C244   C     0.50398   0.57998   0.16703   0.00000  Uiso   1.00
C245   C     0.58735   0.39084   0.25691   0.00000  Uiso   1.00
C246   C     0.62799   0.35716   0.27314   0.00000  Uiso   1.00
C247   C     0.34940   0.37587   0.28651   0.00000  Uiso   1.00
C248   C     0.40036   0.49998   0.15469   0.00000  Uiso   1.00
C249   C     0.59964   0.49996   0.17865   0.00000  Uiso   1.00
C250   C     0.34532   0.49999   0.14824   0.00000  Uiso   1.00
C251   C     0.65467   0.49985   0.18511   0.00000  Uiso   1.00
C252   C     0.50762   0.35476   0.12607   0.00000  Uiso   1.00
C253   C     0.52155   0.64514   0.20953   0.00000  Uiso   1.00
C254   C     0.51365   0.64581   0.12613   0.00000  Uiso   1.00
F255   F     0.49941   0.37456   0.08483   0.00000  Uiso   1.00
F256   F     0.52819   0.62470   0.25038   0.00000  Uiso   1.00
H257   H     0.65803   0.50013   0.11327   0.00000  Uiso   1.00
H258   H     0.60638   0.34258   0.10142   0.00000  Uiso   1.00
H259   H     0.34455   0.62569   0.09306   0.00000  Uiso   1.00
H260   H     0.34548   0.33666   0.05548   0.00000  Uiso   1.00
H261   H     0.65320   0.62088   0.03255   0.00000  Uiso   1.00
H262   H     0.59002   0.41551   0.28339   0.00000  Uiso   1.00
H263   H     0.59711   0.40606   0.22523   0.00000  Uiso   1.00
H264   H     0.61637   0.34057   0.30307   0.00000  Uiso   1.00
H265   H     0.62937   0.33425   0.24530   0.00000  Uiso   1.00
H266   H     0.36195   0.39240   0.25682   0.00000  Uiso   1.00
H267   H     0.37796   0.35071   0.29760   0.00000  Uiso   1.00
H268   H     0.34195   0.49969   0.22008   0.00000  Uiso   1.00
H269   H     0.34961   0.39801   0.31530   0.00000  Uiso   1.00
H270   H     0.57891   0.52091   0.05210   0.00000  Uiso   1.00
H271   H     0.42186   0.47720   0.28131   0.00000  Uiso   1.00
H272   H     0.57849   0.52183   0.30144   0.00000  Uiso   1.00
H273   H     0.42176   0.47757   0.03193   0.00000  Uiso   1.00
H274   H     0.56848   0.59435   0.05292   0.00000  Uiso   1.00
H275   H     0.58859   0.59976   0.11313   0.00000  Uiso   1.00
H276   H     0.58090   0.33788   0.04136   0.00000  Uiso   1.00
N277   N     0.49999   0.49999   0.28573   0.00000  Uiso   1.00
N278   N     0.50001   0.50001   0.04760   0.00000  Uiso   1.00
O279   O     0.50000   0.43892   0.20487   0.00000  Uiso   1.00
O280   O     0.53542   0.37467   0.25151   0.00000  Uiso   1.00
O281   O     0.50000   0.56108   0.12846   0.00000  Uiso   1.00
O282   O     0.50000   0.43893   0.12843   0.00000  Uiso   1.00
O283   O     0.50000   0.56107   0.20490   0.00000  Uiso   1.00
O284   O     0.42392   0.50000   0.19595   0.00000  Uiso   1.00
O285   O     0.57608   0.50000   0.13739   0.00000  Uiso   1.00
O286   O     0.42392   0.50000   0.11950   0.00000  Uiso   1.00
O287   O     0.57608   0.50000   0.21383   0.00000  Uiso   1.00
O288   O     0.51616   0.62652   0.08469   0.00000  Uiso   1.00
Zn289  Zn    0.50000   0.49999   0.21771   0.00000  Uiso   1.00
Zn290  Zn    0.50000   0.50001   0.11563   0.00000  Uiso   1.00
C291   C     0.83578   0.41994   0.16701   0.00000  Uiso   1.00
C292   C     0.85742   0.35459   0.20974   0.00000  Uiso   1.00
C293   C     0.84656   0.62400   0.16758   0.00000  Uiso   1.00
C294   C     0.84417   0.37595   0.16779   0.00000  Uiso   1.00
C295   C     0.87708   0.51173   0.02957   0.00000  Uiso   1.00
C296   C     0.78991   0.48745   0.30378   0.00000  Uiso   1.00
C297   C     0.87694   0.51205   0.31499   0.00000  Uiso   1.00
C298   C     0.78986   0.48759   0.01836   0.00000  Uiso   1.00
C299   C     0.90246   0.61625   0.08185   0.00000  Uiso   1.00
C300   C     0.93497   0.65444   0.07172   0.00000  Uiso   1.00
C301   C     0.98958   0.64183   0.06264   0.00000  Uiso   1.00
C302   C     0.83732   0.57998   0.16703   0.00000  Uiso   1.00
C303   C     0.92068   0.39084   0.25691   0.00000  Uiso   1.00
C304   C     0.96133   0.35716   0.27314   0.00000  Uiso   1.00
C305   C     0.68274   0.37587   0.28651   0.00000  Uiso   1.00
C306   C     0.73369   0.49998   0.15469   0.00000  Uiso   1.00
C307   C     0.93297   0.49996   0.17865   0.00000  Uiso   1.00
C308   C     0.67865   0.49999   0.14824   0.00000  Uiso   1.00
C309   C     0.98800   0.49985   0.18511   0.00000  Uiso   1.00
C310   C     0.84095   0.35476   0.12607   0.00000  Uiso   1.00
C311   C     0.85488   0.64514   0.20953   0.00000  Uiso   1.00
C312   C     0.84699   0.64581   0.12613   0.00000  Uiso   1.00
F313   F     0.83275   0.37456   0.08483   0.00000  Uiso   1.00
F314   F     0.86152   0.62470   0.25038   0.00000  Uiso   1.00
H315   H     0.99137   0.50013   0.11327   0.00000  Uiso   1.00
H316   H     0.93971   0.34258   0.10142   0.00000  Uiso   1.00
H317   H     0.67788   0.62569   0.09306   0.00000  Uiso   1.00
H318   H     0.67881   0.33666   0.05548   0.00000  Uiso   1.00
H319   H     0.98653   0.62088   0.03255   0.00000  Uiso   1.00
H320   H     0.92335   0.41551   0.28339   0.00000  Uiso   1.00
H321   H     0.93045   0.40606   0.22523   0.00000  Uiso   1.00
H322   H     0.94970   0.34057   0.30307   0.00000  Uiso   1.00
H323   H     0.96271   0.33425   0.24530   0.00000  Uiso   1.00
H324   H     0.69528   0.39240   0.25682   0.00000  Uiso   1.00
H325   H     0.71130   0.35071   0.29760   0.00000  Uiso   1.00
H326   H     0.67528   0.49969   0.22008   0.00000  Uiso   1.00
H327   H     0.68294   0.39801   0.31530   0.00000  Uiso   1.00
H328   H     0.91224   0.52091   0.05210   0.00000  Uiso   1.00
H329   H     0.75520   0.47720   0.28131   0.00000  Uiso   1.00
H330   H     0.91182   0.52183   0.30144   0.00000  Uiso   1.00
H331   H     0.75510   0.47757   0.03193   0.00000  Uiso   1.00
H332   H     0.90181   0.59435   0.05292   0.00000  Uiso   1.00
H333   H     0.92192   0.59976   0.11313   0.00000  Uiso   1.00
H334   H     0.91423   0.33788   0.04136   0.00000  Uiso   1.00
N335   N     0.83332   0.49999   0.28573   0.00000  Uiso   1.00
N336   N     0.83335   0.50001   0.04760   0.00000  Uiso   1.00
O337   O     0.83333   0.43892   0.20487   0.00000  Uiso   1.00
O338   O     0.86876   0.37467   0.25151   0.00000  Uiso   1.00
O339   O     0.83334   0.56108   0.12846   0.00000  Uiso   1.00
O340   O     0.83333   0.43893   0.12843   0.00000  Uiso   1.00
O341   O     0.83334   0.56107   0.20490   0.00000  Uiso   1.00
O342   O     0.75725   0.50000   0.19595   0.00000  Uiso   1.00
O343   O     0.90942   0.50000   0.13739   0.00000  Uiso   1.00
O344   O     0.75725   0.50000   0.11950   0.00000  Uiso   1.00
O345   O     0.90942   0.50000   0.21383   0.00000  Uiso   1.00
O346   O     0.84950   0.62652   0.08469   0.00000  Uiso   1.00
Zn347  Zn    0.83333   0.49999   0.21771   0.00000  Uiso   1.00
Zn348  Zn    0.83333   0.50001   0.11563   0.00000  Uiso   1.00
C349   C     0.16912   0.75327   0.16701   0.00000  Uiso   1.00
C350   C     0.19075   0.68792   0.20974   0.00000  Uiso   1.00
C351   C     0.17989   0.95734   0.16758   0.00000  Uiso   1.00
C352   C     0.17751   0.70929   0.16779   0.00000  Uiso   1.00
C353   C     0.21041   0.84506   0.02957   0.00000  Uiso   1.00
C354   C     0.12324   0.82078   0.30378   0.00000  Uiso   1.00
C355   C     0.21028   0.84538   0.31499   0.00000  Uiso   1.00
C356   C     0.12320   0.82092   0.01836   0.00000  Uiso   1.00
C357   C     0.23580   0.94958   0.08185   0.00000  Uiso   1.00
C358   C     0.26830   0.98778   0.07172   0.00000  Uiso   1.00
C359   C     0.32291   0.97517   0.06264   0.00000  Uiso   1.00
C360   C     0.17065   0.91331   0.16703   0.00000  Uiso   1.00
C361   C     0.25401   0.72417   0.25691   0.00000  Uiso   1.00
C362   C     0.29466   0.69049   0.27314   0.00000  Uiso   1.00
C363   C     0.01607   0.70920   0.28651   0.00000  Uiso   1.00
C364   C     0.06703   0.83332   0.15469   0.00000  Uiso   1.00
C365   C     0.26630   0.83329   0.17865   0.00000  Uiso   1.00
C366   C     0.01198   0.83332   0.14824   0.00000  Uiso   1.00
C367   C     0.32134   0.83319   0.18511   0.00000  Uiso   1.00
C368   C     0.17428   0.68809   0.12607   0.00000  Uiso   1.00
C369   C     0.18822   0.97848   0.20953   0.00000  Uiso   1.00
C370   C     0.18032   0.97914   0.12613   0.00000  Uiso   1.00
F371   F     0.16608   0.70789   0.08483   0.00000  Uiso   1.00
F372   F     0.19485   0.95804   0.25038   0.00000  Uiso   1.00
H373   H     0.32470   0.83346   0.11327   0.00000  Uiso   1.00
H374   H     0.27305   0.67591   0.10142   0.00000  Uiso   1.00
H375   H     0.01122   0.95903   0.09306   0.00000  Uiso   1.00
H376   H     0.01214   0.67000   0.05548   0.00000  Uiso   1.00
H377   H     0.31986   0.95422   0.03255   0.00000  Uiso   1.00
H378   H     0.25669   0.74885   0.28339   0.00000  Uiso   1.00
H379   H     0.26378   0.73939   0.22523   0.00000  Uiso   1.00
H380   H     0.28304   0.67390   0.30307   0.00000  Uiso   1.00
H381   H     0.29604   0.66758   0.24530   0.00000  Uiso   1.00
H382   H     0.02862   0.72573   0.25682   0.00000  Uiso   1.00
H383   H     0.04463   0.68404   0.29760   0.00000  Uiso   1.00
H384   H     0.00861   0.83303   0.22008   0.00000  Uiso   1.00
H385   H     0.01627   0.73134   0.31530   0.00000  Uiso   1.00
H386   H     0.24557   0.85424   0.05210   0.00000  Uiso   1.00
H387   H     0.08853   0.81053   0.28131   0.00000  Uiso   1.00
H388   H     0.24516   0.85516   0.30144   0.00000  Uiso   1.00
H389   H     0.08843   0.81090   0.03193   0.00000  Uiso   1.00
H390   H     0.23514   0.92769   0.05292   0.00000  Uiso   1.00
H391   H     0.25525   0.93309   0.11313   0.00000  Uiso   1.00
H392   H     0.24756   0.67121   0.04136   0.00000  Uiso   1.00
N393   N     0.16665   0.83332   0.28573   0.00000  Uiso   1.00
N394   N     0.16668   0.83334   0.04760   0.00000  Uiso   1.00
O395   O     0.16666   0.77225   0.20487   0.00000  Uiso   1.00
O396   O     0.20209   0.70800   0.25151   0.00000  Uiso   1.00
O397   O     0.16667   0.89442   0.12846   0.00000  Uiso   1.00
O398   O     0.16666   0.77226   0.12843   0.00000  Uiso   1.00
O399   O     0.16667   0.89441   0.20490   0.00000  Uiso   1.00
O400   O     0.09058   0.83333   0.19595   0.00000  Uiso   1.00
O401   O     0.24275   0.83334   0.13739   0.00000  Uiso   1.00
O402   O     0.09058   0.83334   0.11950   0.00000  Uiso   1.00
O403   O     0.24275   0.83333   0.21383   0.00000  Uiso   1.00
O404   O     0.18283   0.95985   0.08469   0.00000  Uiso   1.00
Zn405  Zn    0.16667   0.83333   0.21771   0.00000  Uiso   1.00
Zn406  Zn    0.16667   0.83334   0.11563   0.00000  Uiso   1.00
C407   C     0.50245   0.75327   0.16701   0.00000  Uiso   1.00
C408   C     0.52408   0.68792   0.20974   0.00000  Uiso   1.00
C409   C     0.51323   0.95734   0.16758   0.00000  Uiso   1.00
C410   C     0.51084   0.70929   0.16779   0.00000  Uiso   1.00
C411   C     0.54375   0.84506   0.02957   0.00000  Uiso   1.00
C412   C     0.45657   0.82078   0.30378   0.00000  Uiso   1.00
C413   C     0.54361   0.84538   0.31499   0.00000  Uiso   1.00
C414   C     0.45653   0.82092   0.01836   0.00000  Uiso   1.00
C415   C     0.56913   0.94958   0.08185   0.00000  Uiso   1.00
C416   C     0.60163   0.98778   0.07172   0.00000  Uiso   1.00
C417   C     0.65625   0.97517   0.06264   0.00000  Uiso   1.00
C418   C     0.50398   0.91331   0.16703   0.00000  Uiso   1.00
C419   C     0.58735   0.72417   0.25691   0.00000  Uiso   1.00
C420   C     0.62799   0.69049   0.27314   0.00000  Uiso   1.00
C421   C     0.34940   0.70920   0.28651   0.00000  Uiso   1.00
C422   C     0.40036   0.83332   0.15469   0.00000  Uiso   1.00
C423   C     0.59964   0.83329   0.17865   0.00000  Uiso   1.00
C424   C     0.34532   0.83332   0.14824   0.00000  Uiso   1.00
C425   C     0.65467   0.83319   0.18511   0.00000  Uiso   1.00
C426   C     0.50762   0.68809   0.12607   0.00000  Uiso   1.00
C427   C     0.52155   0.97848   0.20953   0.00000  Uiso   1.00
C428   C     0.51365   0.97914   0.12613   0.00000  Uiso   1.00
F429   F     0.49941   0.70789   0.08483   0.00000  Uiso   1.00
F430   F     0.52819   0.95804   0.25038   0.00000  Uiso   1.00
H431   H     0.65803   0.83346   0.11327   0.00000  Uiso   1.00
H432   H     0.60638   0.67591   0.10142   0.00000  Uiso   1.00
H433   H     0.34455   0.95903   0.09306   0.00000  Uiso   1.00
H434   H     0.34548   0.67000   0.05548   0.00000  Uiso   1.00
H435   H     0.65320   0.95422   0.03255   0.00000  Uiso   1.00
H436   H     0.59002   0.74885   0.28339   0.00000  Uiso   1.00
H437   H     0.59711   0.73939   0.22523   0.00000  Uiso   1.00
H438   H     0.61637   0.67390   0.30307   0.00000  Uiso   1.00
H439   H     0.62937   0.66758   0.24530   0.00000  Uiso   1.00
H440   H     0.36195   0.72573   0.25682   0.00000  Uiso   1.00
H441   H     0.37796   0.68404   0.29760   0.00000  Uiso   1.00
H442   H     0.34195   0.83303   0.22008   0.00000  Uiso   1.00
H443   H     0.34961   0.73134   0.31530   0.00000  Uiso   1.00
H444   H     0.57891   0.85424   0.05210   0.00000  Uiso   1.00
H445   H     0.42186   0.81053   0.28131   0.00000  Uiso   1.00
H446   H     0.57849   0.85516   0.30144   0.00000  Uiso   1.00
H447   H     0.42176   0.81090   0.03193   0.00000  Uiso   1.00
H448   H     0.56848   0.92769   0.05292   0.00000  Uiso   1.00
H449   H     0.58859   0.93309   0.11313   0.00000  Uiso   1.00
H450   H     0.58090   0.67121   0.04136   0.00000  Uiso   1.00
N451   N     0.49999   0.83332   0.28573   0.00000  Uiso   1.00
N452   N     0.50001   0.83334   0.04760   0.00000  Uiso   1.00
O453   O     0.50000   0.77225   0.20487   0.00000  Uiso   1.00
O454   O     0.53542   0.70800   0.25151   0.00000  Uiso   1.00
O455   O     0.50000   0.89442   0.12846   0.00000  Uiso   1.00
O456   O     0.50000   0.77226   0.12843   0.00000  Uiso   1.00
O457   O     0.50000   0.89441   0.20490   0.00000  Uiso   1.00
O458   O     0.42392   0.83333   0.19595   0.00000  Uiso   1.00
O459   O     0.57608   0.83334   0.13739   0.00000  Uiso   1.00
O460   O     0.42392   0.83334   0.11950   0.00000  Uiso   1.00
O461   O     0.57608   0.83333   0.21383   0.00000  Uiso   1.00
O462   O     0.51616   0.95985   0.08469   0.00000  Uiso   1.00
Zn463  Zn    0.50000   0.83333   0.21771   0.00000  Uiso   1.00
Zn464  Zn    0.50000   0.83334   0.11563   0.00000  Uiso   1.00
C465   C     0.83578   0.75327   0.16701   0.00000  Uiso   1.00
C466   C     0.85742   0.68792   0.20974   0.00000  Uiso   1.00
C467   C     0.84656   0.95734   0.16758   0.00000  Uiso   1.00
C468   C     0.84417   0.70929   0.16779   0.00000  Uiso   1.00
C469   C     0.87708   0.84506   0.02957   0.00000  Uiso   1.00
C470   C     0.78991   0.82078   0.30378   0.00000  Uiso   1.00
C471   C     0.87694   0.84538   0.31499   0.00000  Uiso   1.00
C472   C     0.78986   0.82092   0.01836   0.00000  Uiso   1.00
C473   C     0.90246   0.94958   0.08185   0.00000  Uiso   1.00
C474   C     0.93497   0.98778   0.07172   0.00000  Uiso   1.00
C475   C     0.98958   0.97517   0.06264   0.00000  Uiso   1.00
C476   C     0.83732   0.91331   0.16703   0.00000  Uiso   1.00
C477   C     0.92068   0.72417   0.25691   0.00000  Uiso   1.00
C478   C     0.96133   0.69049   0.27314   0.00000  Uiso   1.00
C479   C     0.68274   0.70920   0.28651   0.00000  Uiso   1.00
C480   C     0.73369   0.83332   0.15469   0.00000  Uiso   1.00
C481   C     0.93297   0.83329   0.17865   0.00000  Uiso   1.00
C482   C     0.67865   0.83332   0.14824   0.00000  Uiso   1.00
C483   C     0.98800   0.83319   0.18511   0.00000  Uiso   1.00
C484   C     0.84095   0.68809   0.12607   0.00000  Uiso   1.00
C485   C     0.85488   0.97848   0.20953   0.00000  Uiso   1.00
C486   C     0.84699   0.97914   0.12613   0.00000  Uiso   1.00
F487   F     0.83275   0.70789   0.08483   0.00000  Uiso   1.00
F488   F     0.86152   0.95804   0.25038   0.00000  Uiso   1.00
H489   H     0.99137   0.83346   0.11327   0.00000  Uiso   1.00
H490   H     0.93971   0.67591   0.10142   0.00000  Uiso   1.00
H491   H     0.67788   0.95903   0.09306   0.00000  Uiso   1.00
H492   H     0.67881   0.67000   0.05548   0.00000  Uiso   1.00
H493   H     0.98653   0.95422   0.03255   0.00000  Uiso   1.00
H494   H     0.92335   0.74885   0.28339   0.00000  Uiso   1.00
H495   H     0.93045   0.73939   0.22523   0.00000  Uiso   1.00
H496   H     0.94970   0.67390   0.30307   0.00000  Uiso   1.00
H497   H     0.96271   0.66758   0.24530   0.00000  Uiso   1.00
H498   H     0.69528   0.72573   0.25682   0.00000  Uiso   1.00
H499   H     0.71130   0.68404   0.29760   0.00000  Uiso   1.00
H500   H     0.67528   0.83303   0.22008   0.00000  Uiso   1.00
H501   H     0.68294   0.73134   0.31530   0.00000  Uiso   1.00
H502   H     0.91224   0.85424   0.05210   0.00000  Uiso   1.00
H503   H     0.75520   0.81053   0.28131   0.00000  Uiso   1.00
H504   H     0.91182   0.85516   0.30144   0.00000  Uiso   1.00
H505   H     0.75510   0.81090   0.03193   0.00000  Uiso   1.00
H506   H     0.90181   0.92769   0.05292   0.00000  Uiso   1.00
H507   H     0.92192   0.93309   0.11313   0.00000  Uiso   1.00
H508   H     0.91423   0.67121   0.04136   0.00000  Uiso   1.00
N509   N     0.83332   0.83332   0.28573   0.00000  Uiso   1.00
N510   N     0.83335   0.83334   0.04760   0.00000  Uiso   1.00
O511   O     0.83333   0.77225   0.20487   0.00000  Uiso   1.00
O512   O     0.86876   0.70800   0.25151   0.00000  Uiso   1.00
O513   O     0.83334   0.89442   0.12846   0.00000  Uiso   1.00
O514   O     0.83333   0.77226   0.12843   0.00000  Uiso   1.00
O515   O     0.83334   0.89441   0.20490   0.00000  Uiso   1.00
O516   O     0.75725   0.83333   0.19595   0.00000  Uiso   1.00
O517   O     0.90942   0.83334   0.13739   0.00000  Uiso   1.00
O518   O     0.75725   0.83334   0.11950   0.00000  Uiso   1.00
O519   O     0.90942   0.83333   0.21383   0.00000  Uiso   1.00
O520   O     0.84950   0.95985   0.08469   0.00000  Uiso   1.00
Zn521  Zn    0.83333   0.83333   0.21771   0.00000  Uiso   1.00
Zn522  Zn    0.83333   0.83334   0.11563   0.00000  Uiso   1.00
C523   C     0.16912   0.08660   0.50034   0.00000  Uiso   1.00
C524   C     0.19075   0.02126   0.54307   0.00000  Uiso   1.00
C525   C     0.17989   0.29067   0.50091   0.00000  Uiso   1.00
C526   C     0.17751   0.04262   0.50113   0.00000  Uiso   1.00
C527   C     0.21041   0.17840   0.36291   0.00000  Uiso   1.00
C528   C     0.12324   0.15411   0.63712   0.00000  Uiso   1.00
C529   C     0.21028   0.17872   0.64832   0.00000  Uiso   1.00
C530   C     0.12320   0.15426   0.35169   0.00000  Uiso   1.00
C531   C     0.23580   0.28292   0.41519   0.00000  Uiso   1.00
C532   C     0.26830   0.32111   0.40505   0.00000  Uiso   1.00
C533   C     0.32291   0.30850   0.39597   0.00000  Uiso   1.00
C534   C     0.17065   0.24665   0.50036   0.00000  Uiso   1.00
C535   C     0.25401   0.05751   0.59025   0.00000  Uiso   1.00
C536   C     0.29466   0.02383   0.60647   0.00000  Uiso   1.00
C537   C     0.01607   0.04254   0.61984   0.00000  Uiso   1.00
C538   C     0.06703   0.16665   0.48802   0.00000  Uiso   1.00
C539   C     0.26630   0.16663   0.51198   0.00000  Uiso   1.00
C540   C     0.01198   0.16665   0.48157   0.00000  Uiso   1.00
C541   C     0.32134   0.16652   0.51844   0.00000  Uiso   1.00
C542   C     0.17428   0.02142   0.45940   0.00000  Uiso   1.00
C543   C     0.18822   0.31181   0.54286   0.00000  Uiso   1.00
C544   C     0.18032   0.31248   0.45947   0.00000  Uiso   1.00
F545   F     0.16608   0.04123   0.41816   0.00000  Uiso   1.00
F546   F     0.19485   0.29137   0.58371   0.00000  Uiso   1.00
H547   H     0.32470   0.16679   0.44660   0.00000  Uiso   1.00
H548   H     0.27305   0.00925   0.43475   0.00000  Uiso   1.00
H549   H     0.01122   0.29236   0.42639   0.00000  Uiso   1.00
H550   H     0.01214   0.00333   0.38881   0.00000  Uiso   1.00
H551   H     0.31986   0.28755   0.36588   0.00000  Uiso   1.00
H552   H     0.25669   0.08218   0.61673   0.00000  Uiso   1.00
H553   H     0.26378   0.07272   0.55856   0.00000  Uiso   1.00
H554   H     0.28304   0.00723   0.63641   0.00000  Uiso   1.00
H555   H     0.29604   0.00091   0.57864   0.00000  Uiso   1.00
H556   H     0.02862   0.05906   0.59015   0.00000  Uiso   1.00
H557   H     0.04463   0.01738   0.63093   0.00000  Uiso   1.00
H558   H     0.00861   0.16636   0.55342   0.00000  Uiso   1.00
H559   H     0.01627   0.06468   0.64863   0.00000  Uiso   1.00
H560   H     0.24557   0.18758   0.38543   0.00000  Uiso   1.00
H561   H     0.08853   0.14387   0.61464   0.00000  Uiso   1.00
H562   H     0.24516   0.18850   0.63478   0.00000  Uiso   1.00
H563   H     0.08843   0.14423   0.36526   0.00000  Uiso   1.00
H564   H     0.23514   0.26102   0.38625   0.00000  Uiso   1.00
H565   H     0.25525   0.26642   0.44646   0.00000  Uiso   1.00
H566   H     0.24756   0.00455   0.37469   0.00000  Uiso   1.00
N567   N     0.16665   0.16666   0.61907   0.00000  Uiso   1.00
N568   N     0.16668   0.16668   0.38093   0.00000  Uiso   1.00
O569   O     0.16666   0.10558   0.53821   0.00000  Uiso   1.00
O570   O     0.20209   0.04133   0.58484   0.00000  Uiso   1.00
O571   O     0.16667   0.22775   0.46179   0.00000  Uiso   1.00
O572   O     0.16666   0.10559   0.46176   0.00000  Uiso   1.00
O573   O     0.16667   0.22774   0.53824   0.00000  Uiso   1.00
O574   O     0.09058   0.16666   0.52928   0.00000  Uiso   1.00
O575   O     0.24275   0.16667   0.47072   0.00000  Uiso   1.00
O576   O     0.09058   0.16667   0.45284   0.00000  Uiso   1.00
O577   O     0.24275   0.16666   0.54716   0.00000  Uiso   1.00
O578   O     0.18283   0.29318   0.41803   0.00000  Uiso   1.00
Zn579  Zn    0.16667   0.16666   0.55104   0.00000  Uiso   1.00
Zn580  Zn    0.16667   0.16667   0.44896   0.00000  Uiso   1.00
C581   C     0.50245   0.08660   0.50034   0.00000  Uiso   1.00
C582   C     0.52408   0.02126   0.54307   0.00000  Uiso   1.00
C583   C     0.51323   0.29067   0.50091   0.00000  Uiso   1.00
C584   C     0.51084   0.04262   0.50113   0.00000  Uiso   1.00
C585   C     0.54375   0.17840   0.36291   0.00000  Uiso   1.00
C586   C     0.45657   0.15411   0.63712   0.00000  Uiso   1.00
C587   C     0.54361   0.17872   0.64832   0.00000  Uiso   1.00
C588   C     0.45653   0.15426   0.35169   0.00000  Uiso   1.00
C589   C     0.56913   0.28292   0.41519   0.00000  Uiso   1.00
C590   C     0.60163   0.32111   0.40505   0.00000  Uiso   1.00
C591   C     0.65625   0.30850   0.39597   0.00000  Uiso   1.00
C592   C     0.50398   0.24665   0.50036   0.00000  Uiso   1.00
C593   C     0.58735   0.05751   0.59025   0.00000  Uiso   1.00
C594   C     0.62799   0.02383   0.60647   0.00000  Uiso   1.00
C595   C     0.34940   0.04254   0.61984   0.00000  Uiso   1.00
C596   C     0.40036   0.16665   0.48802   0.00000  Uiso   1.00
C597   C     0.59964   0.16663   0.51198   0.00000  Uiso   1.00
C598   C     0.34532   0.16665   0.48157   0.00000  Uiso   1.00
C599   C     0.65467   0.16652   0.51844   0.00000  Uiso   1.00
C600   C     0.50762   0.02142   0.45940   0.00000  Uiso   1.00
C601   C     0.52155   0.31181   0.54286   0.00000  Uiso   1.00
C602   C     0.51365   0.31248   0.45947   0.00000  Uiso   1.00
F603   F     0.49941   0.04123   0.41816   0.00000  Uiso   1.00
F604   F     0.52819   0.29137   0.58371   0.00000  Uiso   1.00
H605   H     0.65803   0.16679   0.44660   0.00000  Uiso   1.00
H606   H     0.60638   0.00925   0.43475   0.00000  Uiso   1.00
H607   H     0.34455   0.29236   0.42639   0.00000  Uiso   1.00
H608   H     0.34548   0.00333   0.38881   0.00000  Uiso   1.00
H609   H     0.65320   0.28755   0.36588   0.00000  Uiso   1.00
H610   H     0.59002   0.08218   0.61673   0.00000  Uiso   1.00
H611   H     0.59711   0.07272   0.55856   0.00000  Uiso   1.00
H612   H     0.61637   0.00723   0.63641   0.00000  Uiso   1.00
H613   H     0.62937   0.00091   0.57864   0.00000  Uiso   1.00
H614   H     0.36195   0.05906   0.59015   0.00000  Uiso   1.00
H615   H     0.37796   0.01738   0.63093   0.00000  Uiso   1.00
H616   H     0.34195   0.16636   0.55342   0.00000  Uiso   1.00
H617   H     0.34961   0.06468   0.64863   0.00000  Uiso   1.00
H618   H     0.57891   0.18758   0.38543   0.00000  Uiso   1.00
H619   H     0.42186   0.14387   0.61464   0.00000  Uiso   1.00
H620   H     0.57849   0.18850   0.63478   0.00000  Uiso   1.00
H621   H     0.42176   0.14423   0.36526   0.00000  Uiso   1.00
H622   H     0.56848   0.26102   0.38625   0.00000  Uiso   1.00
H623   H     0.58859   0.26642   0.44646   0.00000  Uiso   1.00
H624   H     0.58090   0.00455   0.37469   0.00000  Uiso   1.00
N625   N     0.49999   0.16666   0.61907   0.00000  Uiso   1.00
N626   N     0.50001   0.16668   0.38093   0.00000  Uiso   1.00
O627   O     0.50000   0.10558   0.53821   0.00000  Uiso   1.00
O628   O     0.53542   0.04133   0.58484   0.00000  Uiso   1.00
O629   O     0.50000   0.22775   0.46179   0.00000  Uiso   1.00
O630   O     0.50000   0.10559   0.46176   0.00000  Uiso   1.00
O631   O     0.50000   0.22774   0.53824   0.00000  Uiso   1.00
O632   O     0.42392   0.16666   0.52928   0.00000  Uiso   1.00
O633   O     0.57608   0.16667   0.47072   0.00000  Uiso   1.00
O634   O     0.42392   0.16667   0.45284   0.00000  Uiso   1.00
O635   O     0.57608   0.16666   0.54716   0.00000  Uiso   1.00
O636   O     0.51616   0.29318   0.41803   0.00000  Uiso   1.00
Zn637  Zn    0.50000   0.16666   0.55104   0.00000  Uiso   1.00
Zn638  Zn    0.50000   0.16667   0.44896   0.00000  Uiso   1.00
C639   C     0.83578   0.08660   0.50034   0.00000  Uiso   1.00
C640   C     0.85742   0.02126   0.54307   0.00000  Uiso   1.00
C641   C     0.84656   0.29067   0.50091   0.00000  Uiso   1.00
C642   C     0.84417   0.04262   0.50113   0.00000  Uiso   1.00
C643   C     0.87708   0.17840   0.36291   0.00000  Uiso   1.00
C644   C     0.78991   0.15411   0.63712   0.00000  Uiso   1.00
C645   C     0.87694   0.17872   0.64832   0.00000  Uiso   1.00
C646   C     0.78986   0.15426   0.35169   0.00000  Uiso   1.00
C647   C     0.90246   0.28292   0.41519   0.00000  Uiso   1.00
C648   C     0.93497   0.32111   0.40505   0.00000  Uiso   1.00
C649   C     0.98958   0.30850   0.39597   0.00000  Uiso   1.00
C650   C     0.83732   0.24665   0.50036   0.00000  Uiso   1.00
C651   C     0.92068   0.05751   0.59025   0.00000  Uiso   1.00
C652   C     0.96133   0.02383   0.60647   0.00000  Uiso   1.00
C653   C     0.68274   0.04254   0.61984   0.00000  Uiso   1.00
C654   C     0.73369   0.16665   0.48802   0.00000  Uiso   1.00
C655   C     0.93297   0.16663   0.51198   0.00000  Uiso   1.00
C656   C     0.67865   0.16665   0.48157   0.00000  Uiso   1.00
C657   C     0.98800   0.16652   0.51844   0.00000  Uiso   1.00
C658   C     0.84095   0.02142   0.45940   0.00000  Uiso   1.00
C659   C     0.85488   0.31181   0.54286   0.00000  Uiso   1.00
C660   C     0.84699   0.31248   0.45947   0.00000  Uiso   1.00
F661   F     0.83275   0.04123   0.41816   0.00000  Uiso   1.00
F662   F     0.86152   0.29137   0.58371   0.00000  Uiso   1.00
H663   H     0.99137   0.16679   0.44660   0.00000  Uiso   1.00
H664   H     0.93971   0.00925   0.43475   0.00000  Uiso   1.00
H665   H     0.67788   0.29236   0.42639   0.00000  Uiso   1.00
H666   H     0.67881   0.00333   0.38881   0.00000  Uiso   1.00
H667   H     0.98653   0.28755   0.36588   0.00000  Uiso   1.00
H668   H     0.92335   0.08218   0.61673   0.00000  Uiso   1.00
H669   H     0.93045   0.07272   0.55856   0.00000  Uiso   1.00
H670   H     0.94970   0.00723   0.63641   0.00000  Uiso   1.00
H671   H     0.96271   0.00091   0.57864   0.00000  Uiso   1.00
H672   H     0.69528   0.05906   0.59015   0.00000  Uiso   1.00
H673   H     0.71130   0.01738   0.63093   0.00000  Uiso   1.00
H674   H     0.67528   0.16636   0.55342   0.00000  Uiso   1.00
H675   H     0.68294   0.06468   0.64863   0.00000  Uiso   1.00
H676   H     0.91224   0.18758   0.38543   0.00000  Uiso   1.00
H677   H     0.75520   0.14387   0.61464   0.00000  Uiso   1.00
H678   H     0.91182   0.18850   0.63478   0.00000  Uiso   1.00
H679   H     0.75510   0.14423   0.36526   0.00000  Uiso   1.00
H680   H     0.90181   0.26102   0.38625   0.00000  Uiso   1.00
H681   H     0.92192   0.26642   0.44646   0.00000  Uiso   1.00
H682   H     0.91423   0.00455   0.37469   0.00000  Uiso   1.00
N683   N     0.83332   0.16666   0.61907   0.00000  Uiso   1.00
N684   N     0.83335   0.16668   0.38093   0.00000  Uiso   1.00
O685   O     0.83333   0.10558   0.53821   0.00000  Uiso   1.00
O686   O     0.86876   0.04133   0.58484   0.00000  Uiso   1.00
O687   O     0.83334   0.22775   0.46179   0.00000  Uiso   1.00
O688   O     0.83333   0.10559   0.46176   0.00000  Uiso   1.00
O689   O     0.83334   0.22774   0.53824   0.00000  Uiso   1.00
O690   O     0.75725   0.16666   0.52928   0.00000  Uiso   1.00
O691   O     0.90942   0.16667   0.47072   0.00000  Uiso   1.00
O692   O     0.75725   0.16667   0.45284   0.00000  Uiso   1.00
O693   O     0.90942   0.16666   0.54716   0.00000  Uiso   1.00
O694   O     0.84950   0.29318   0.41803   0.00000  Uiso   1.00
Zn695  Zn    0.83333   0.16666   0.55104   0.00000  Uiso   1.00
Zn696  Zn    0.83333   0.16667   0.44896   0.00000  Uiso   1.00
C697   C     0.16912   0.41994   0.50034   0.00000  Uiso   1.00
C698   C     0.19075   0.35459   0.54307   0.00000  Uiso   1.00
C699   C     0.17989   0.62400   0.50091   0.00000  Uiso   1.00
C700   C     0.17751   0.37595   0.50113   0.00000  Uiso   1.00
C701   C     0.21041   0.51173   0.36291   0.00000  Uiso   1.00
C702   C     0.12324   0.48745   0.63712   0.00000  Uiso   1.00
C703   C     0.21028   0.51205   0.64832   0.00000  Uiso   1.00
C704   C     0.12320   0.48759   0.35169   0.00000  Uiso   1.00
C705   C     0.23580   0.61625   0.41519   0.00000  Uiso   1.00
C706   C     0.26830   0.65444   0.40505   0.00000  Uiso   1.00
C707   C     0.32291   0.64183   0.39597   0.00000  Uiso   1.00
C708   C     0.17065   0.57998   0.50036   0.00000  Uiso   1.00
C709   C     0.25401   0.39084   0.59025   0.00000  Uiso   1.00
C710   C     0.29466   0.35716   0.60647   0.00000  Uiso   1.00
C711   C     0.01607   0.37587   0.61984   0.00000  Uiso   1.00
C712   C     0.06703   0.49998   0.48802   0.00000  Uiso   1.00
C713   C     0.26630   0.49996   0.51198   0.00000  Uiso   1.00
C714   C     0.01198   0.49999   0.48157   0.00000  Uiso   1.00
C715   C     0.32134   0.49985   0.51844   0.00000  Uiso   1.00
C716   C     0.17428   0.35476   0.45940   0.00000  Uiso   1.00
C717   C     0.18822   0.64514   0.54286   0.00000  Uiso   1.00
C718   C     0.18032   0.64581   0.45947   0.00000  Uiso   1.00
F719   F     0.16608   0.37456   0.41816   0.00000  Uiso   1.00
F720   F     0.19485   0.62470   0.58371   0.00000  Uiso   1.00
H721   H     0.32470   0.50013   0.44660   0.00000  Uiso   1.00
H722   H     0.27305   0.34258   0.43475   0.00000  Uiso   1.00
H723   H     0.01122   0.62569   0.42639   0.00000  Uiso   1.00
H724   H     0.01214   0.33666   0.38881   0.00000  Uiso   1.00
H725   H     0.31986   0.62088   0.36588   0.00000  Uiso   1.00
H726   H     0.25669   0.41551   0.61673   0.00000  Uiso   1.00
H727   H     0.26378   0.40606   0.55856   0.00000  Uiso   1.00
H728   H     0.28304   0.34057   0.63641   0.00000  Uiso   1.00
H729   H     0.29604   0.33425   0.57864   0.00000  Uiso   1.00
H730   H     0.02862   0.39240   0.59015   0.00000  Uiso   1.00
H731   H     0.04463   0.35071   0.63093   0.00000  Uiso   1.00
H732   H     0.00861   0.49969   0.55342   0.00000  Uiso   1.00
H733   H     0.01627   0.39801   0.64863   0.00000  Uiso   1.00
H734   H     0.24557   0.52091   0.38543   0.00000  Uiso   1.00
H735   H     0.08853   0.47720   0.61464   0.00000  Uiso   1.00
H736   H     0.24516   0.52183   0.63478   0.00000  Uiso   1.00
H737   H     0.08843   0.47757   0.36526   0.00000  Uiso   1.00
H738   H     0.23514   0.59435   0.38625   0.00000  Uiso   1.00
H739   H     0.25525   0.59976   0.44646   0.00000  Uiso   1.00
H740   H     0.24756   0.33788   0.37469   0.00000  Uiso   1.00
N741   N     0.16665   0.49999   0.61907   0.00000  Uiso   1.00
N742   N     0.16668   0.50001   0.38093   0.00000  Uiso   1.00
O743   O     0.16666   0.43892   0.53821   0.00000  Uiso   1.00
O744   O     0.20209   0.37467   0.58484   0.00000  Uiso   1.00
O745   O     0.16667   0.56108   0.46179   0.00000  Uiso   1.00
O746   O     0.16666   0.43893   0.46176   0.00000  Uiso   1.00
O747   O     0.16667   0.56107   0.53824   0.00000  Uiso   1.00
O748   O     0.09058   0.50000   0.52928   0.00000  Uiso   1.00
O749   O     0.24275   0.50000   0.47072   0.00000  Uiso   1.00
O750   O     0.09058   0.50000   0.45284   0.00000  Uiso   1.00
O751   O     0.24275   0.50000   0.54716   0.00000  Uiso   1.00
O752   O     0.18283   0.62652   0.41803   0.00000  Uiso   1.00
Zn753  Zn    0.16667   0.49999   0.55104   0.00000  Uiso   1.00
Zn754  Zn    0.16667   0.50001   0.44896   0.00000  Uiso   1.00
C755   C     0.50245   0.41994   0.50034   0.00000  Uiso   1.00
C756   C     0.52408   0.35459   0.54307   0.00000  Uiso   1.00
C757   C     0.51323   0.62400   0.50091   0.00000  Uiso   1.00
C758   C     0.51084   0.37595   0.50113   0.00000  Uiso   1.00
C759   C     0.54375   0.51173   0.36291   0.00000  Uiso   1.00
C760   C     0.45657   0.48745   0.63712   0.00000  Uiso   1.00
C761   C     0.54361   0.51205   0.64832   0.00000  Uiso   1.00
C762   C     0.45653   0.48759   0.35169   0.00000  Uiso   1.00
C763   C     0.56913   0.61625   0.41519   0.00000  Uiso   1.00
C764   C     0.60163   0.65444   0.40505   0.00000  Uiso   1.00
C765   C     0.65625   0.64183   0.39597   0.00000  Uiso   1.00
C766   C     0.50398   0.57998   0.50036   0.00000  Uiso   1.00
C767   C     0.58735   0.39084   0.59025   0.00000  Uiso   1.00
C768   C     0.62799   0.35716   0.60647   0.00000  Uiso   1.00
C769   C     0.34940   0.37587   0.61984   0.00000  Uiso   1.00
C770   C     0.40036   0.49998   0.48802   0.00000  Uiso   1.00
C771   C     0.59964   0.49996   0.51198   0.00000  Uiso   1.00
C772   C     0.34532   0.49999   0.48157   0.00000  Uiso   1.00
C773   C     0.65467   0.49985   0.51844   0.00000  Uiso   1.00
C774   C     0.50762   0.35476   0.45940   0.00000  Uiso   1.00
C775   C     0.52155   0.64514   0.54286   0.00000  Uiso   1.00
C776   C     0.51365   0.64581   0.45947   0.00000  Uiso   1.00
F777   F     0.49941   0.37456   0.41816   0.00000  Uiso   1.00
F778   F     0.52819   0.62470   0.58371   0.00000  Uiso   1.00
H779   H     0.65803   0.50013   0.44660   0.00000  Uiso   1.00
H780   H     0.60638   0.34258   0.43475   0.00000  Uiso   1.00
H781   H     0.34455   0.62569   0.42639   0.00000  Uiso   1.00
H782   H     0.34548   0.33666   0.38881   0.00000  Uiso   1.00
H783   H     0.65320   0.62088   0.36588   0.00000  Uiso   1.00
H784   H     0.59002   0.41551   0.61673   0.00000  Uiso   1.00
H785   H     0.59711   0.40606   0.55856   0.00000  Uiso   1.00
H786   H     0.61637   0.34057   0.63641   0.00000  Uiso   1.00
H787   H     0.62937   0.33425   0.57864   0.00000  Uiso   1.00
H788   H     0.36195   0.39240   0.59015   0.00000  Uiso   1.00
H789   H     0.37796   0.35071   0.63093   0.00000  Uiso   1.00
H790   H     0.34195   0.49969   0.55342   0.00000  Uiso   1.00
H791   H     0.34961   0.39801   0.64863   0.00000  Uiso   1.00
H792   H     0.57891   0.52091   0.38543   0.00000  Uiso   1.00
H793   H     0.42186   0.47720   0.61464   0.00000  Uiso   1.00
H794   H     0.57849   0.52183   0.63478   0.00000  Uiso   1.00
H795   H     0.42176   0.47757   0.36526   0.00000  Uiso   1.00
H796   H     0.56848   0.59435   0.38625   0.00000  Uiso   1.00
H797   H     0.58859   0.59976   0.44646   0.00000  Uiso   1.00
H798   H     0.58090   0.33788   0.37469   0.00000  Uiso   1.00
N799   N     0.49999   0.49999   0.61907   0.00000  Uiso   1.00
N800   N     0.50001   0.50001   0.38093   0.00000  Uiso   1.00
O801   O     0.50000   0.43892   0.53821   0.00000  Uiso   1.00
O802   O     0.53542   0.37467   0.58484   0.00000  Uiso   1.00
O803   O     0.50000   0.56108   0.46179   0.00000  Uiso   1.00
O804   O     0.50000   0.43893   0.46176   0.00000  Uiso   1.00
O805   O     0.50000   0.56107   0.53824   0.00000  Uiso   1.00
O806   O     0.42392   0.50000   0.52928   0.00000  Uiso   1.00
O807   O     0.57608   0.50000   0.47072   0.00000  Uiso   1.00
O808   O     0.42392   0.50000   0.45284   0.00000  Uiso   1.00
O809   O     0.57608   0.50000   0.54716   0.00000  Uiso   1.00
O810   O     0.51616   0.62652   0.41803   0.00000  Uiso   1.00
Zn811  Zn    0.50000   0.49999   0.55104   0.00000  Uiso   1.00
Zn812  Zn    0.50000   0.50001   0.44896   0.00000  Uiso   1.00
C813   C     0.83578   0.41994   0.50034   0.00000  Uiso   1.00
C814   C     0.85742   0.35459   0.54307   0.00000  Uiso   1.00
C815   C     0.84656   0.62400   0.50091   0.00000  Uiso   1.00
C816   C     0.84417   0.37595   0.50113   0.00000  Uiso   1.00
C817   C     0.87708   0.51173   0.36291   0.00000  Uiso   1.00
C818   C     0.78991   0.48745   0.63712   0.00000  Uiso   1.00
C819   C     0.87694   0.51205   0.64832   0.00000  Uiso   1.00
C820   C     0.78986   0.48759   0.35169   0.00000  Uiso   1.00
C821   C     0.90246   0.61625   0.41519   0.00000  Uiso   1.00
C822   C     0.93497   0.65444   0.40505   0.00000  Uiso   1.00
C823   C     0.98958   0.64183   0.39597   0.00000  Uiso   1.00
C824   C     0.83732   0.57998   0.50036   0.00000  Uiso   1.00
C825   C     0.92068   0.39084   0.59025   0.00000  Uiso   1.00
C826   C     0.96133   0.35716   0.60647   0.00000  Uiso   1.00
C827   C     0.68274   0.37587   0.61984   0.00000  Uiso   1.00
C828   C     0.73369   0.49998   0.48802   0.00000  Uiso   1.00
C829   C     0.93297   0.49996   0.51198   0.00000  Uiso   1.00
C830   C     0.67865   0.49999   0.48157   0.00000  Uiso   1.00
C831   C     0.98800   0.49985   0.51844   0.00000  Uiso   1.00
C832   C     0.84095   0.35476   0.45940   0.00000  Uiso   1.00
C833   C     0.85488   0.64514   0.54286   0.00000  Uiso   1.00
C834   C     0.84699   0.64581   0.45947   0.00000  Uiso   1.00
F835   F     0.83275   0.37456   0.41816   0.00000  Uiso   1.00
F836   F     0.86152   0.62470   0.58371   0.00000  Uiso   1.00
H837   H     0.99137   0.50013   0.44660   0.00000  Uiso   1.00
H838   H     0.93971   0.34258   0.43475   0.00000  Uiso   1.00
H839   H     0.67788   0.62569   0.42639   0.00000  Uiso   1.00
H840   H     0.67881   0.33666   0.38881   0.00000  Uiso   1.00
H841   H     0.98653   0.62088   0.36588   0.00000  Uiso   1.00
H842   H     0.92335   0.41551   0.61673   0.00000  Uiso   1.00
H843   H     0.93045   0.40606   0.55856   0.00000  Uiso   1.00
H844   H     0.94970   0.34057   0.63641   0.00000  Uiso   1.00
H845   H     0.96271   0.33425   0.57864   0.00000  Uiso   1.00
H846   H     0.69528   0.39240   0.59015   0.00000  Uiso   1.00
H847   H     0.71130   0.35071   0.63093   0.00000  Uiso   1.00
H848   H     0.67528   0.49969   0.55342   0.00000  Uiso   1.00
H849   H     0.68294   0.39801   0.64863   0.00000  Uiso   1.00
H850   H     0.91224   0.52091   0.38543   0.00000  Uiso   1.00
H851   H     0.75520   0.47720   0.61464   0.00000  Uiso   1.00
H852   H     0.91182   0.52183   0.63478   0.00000  Uiso   1.00
H853   H     0.75510   0.47757   0.36526   0.00000  Uiso   1.00
H854   H     0.90181   0.59435   0.38625   0.00000  Uiso   1.00
H855   H     0.92192   0.59976   0.44646   0.00000  Uiso   1.00
H856   H     0.91423   0.33788   0.37469   0.00000  Uiso   1.00
N857   N     0.83332   0.49999   0.61907   0.00000  Uiso   1.00
N858   N     0.83335   0.50001   0.38093   0.00000  Uiso   1.00
O859   O     0.83333   0.43892   0.53821   0.00000  Uiso   1.00
O860   O     0.86876   0.37467   0.58484   0.00000  Uiso   1.00
O861   O     0.83334   0.56108   0.46179   0.00000  Uiso   1.00
O862   O     0.83333   0.43893   0.46176   0.00000  Uiso   1.00
O863   O     0.83334   0.56107   0.53824   0.00000  Uiso   1.00
O864   O     0.75725   0.50000   0.52928   0.00000  Uiso   1.00
O865   O     0.90942   0.50000   0.47072   0.00000  Uiso   1.00
O866   O     0.75725   0.50000   0.45284   0.00000  Uiso   1.00
O867   O     0.90942   0.50000   0.54716   0.00000  Uiso   1.00
O868   O     0.84950   0.62652   0.41803   0.00000  Uiso   1.00
Zn869  Zn    0.83333   0.49999   0.55104   0.00000  Uiso   1.00
Zn870  Zn    0.83333   0.50001   0.44896   0.00000  Uiso   1.00
C871   C     0.16912   0.75327   0.50034   0.00000  Uiso   1.00
C872   C     0.19075   0.68792   0.54307   0.00000  Uiso   1.00
C873   C     0.17989   0.95734   0.50091   0.00000  Uiso   1.00
C874   C     0.17751   0.70929   0.50113   0.00000  Uiso   1.00
C875   C     0.21041   0.84506   0.36291   0.00000  Uiso   1.00
C876   C     0.12324   0.82078   0.63712   0.00000  Uiso   1.00
C877   C     0.21028   0.84538   0.64832   0.00000  Uiso   1.00
C878   C     0.12320   0.82092   0.35169   0.00000  Uiso   1.00
C879   C     0.23580   0.94958   0.41519   0.00000  Uiso   1.00
C880   C     0.26830   0.98778   0.40505   0.00000  Uiso   1.00
C881   C     0.32291   0.97517   0.39597   0.00000  Uiso   1.00
C882   C     0.17065   0.91331   0.50036   0.00000  Uiso   1.00
C883   C     0.25401   0.72417   0.59025   0.00000  Uiso   1.00
C884   C     0.29466   0.69049   0.60647   0.00000  Uiso   1.00
C885   C     0.01607   0.70920   0.61984   0.00000  Uiso   1.00
C886   C     0.06703   0.83332   0.48802   0.00000  Uiso   1.00
C887   C     0.26630   0.83329   0.51198   0.00000  Uiso   1.00
C888   C     0.01198   0.83332   0.48157   0.00000  Uiso   1.00
C889   C     0.32134   0.83319   0.51844   0.00000  Uiso   1.00
C890   C     0.17428   0.68809   0.45940   0.00000  Uiso   1.00
C891   C     0.18822   0.97848   0.54286   0.00000  Uiso   1.00
C892   C     0.18032   0.97914   0.45947   0.00000  Uiso   1.00
F893   F     0.16608   0.70789   0.41816   0.00000  Uiso   1.00
F894   F     0.19485   0.95804   0.58371   0.00000  Uiso   1.00
H895   H     0.32470   0.83346   0.44660   0.00000  Uiso   1.00
H896   H     0.27305   0.67591   0.43475   0.00000  Uiso   1.00
H897   H     0.01122   0.95903   0.42639   0.00000  Uiso   1.00
H898   H     0.01214   0.67000   0.38881   0.00000  Uiso   1.00
H899   H     0.31986   0.95422   0.36588   0.00000  Uiso   1.00
H900   H     0.25669   0.74885   0.61673   0.00000  Uiso   1.00
H901   H     0.26378   0.73939   0.55856   0.00000  Uiso   1.00
H902   H     0.28304   0.67390   0.63641   0.00000  Uiso   1.00
H903   H     0.29604   0.66758   0.57864   0.00000  Uiso   1.00
H904   H     0.02862   0.72573   0.59015   0.00000  Uiso   1.00
H905   H     0.04463   0.68404   0.63093   0.00000  Uiso   1.00
H906   H     0.00861   0.83303   0.55342   0.00000  Uiso   1.00
H907   H     0.01627   0.73134   0.64863   0.00000  Uiso   1.00
H908   H     0.24557   0.85424   0.38543   0.00000  Uiso   1.00
H909   H     0.08853   0.81053   0.61464   0.00000  Uiso   1.00
H910   H     0.24516   0.85516   0.63478   0.00000  Uiso   1.00
H911   H     0.08843   0.81090   0.36526   0.00000  Uiso   1.00
H912   H     0.23514   0.92769   0.38625   0.00000  Uiso   1.00
H913   H     0.25525   0.93309   0.44646   0.00000  Uiso   1.00
H914   H     0.24756   0.67121   0.37469   0.00000  Uiso   1.00
N915   N     0.16665   0.83332   0.61907   0.00000  Uiso   1.00
N916   N     0.16668   0.83334   0.38093   0.00000  Uiso   1.00
O917   O     0.16666   0.77225   0.53821   0.00000  Uiso   1.00
O918   O     0.20209   0.70800   0.58484   0.00000  Uiso   1.00
O919   O     0.16667   0.89442   0.46179   0.00000  Uiso   1.00
O920   O     0.16666   0.77226   0.46176   0.00000  Uiso   1.00
O921   O     0.16667   0.89441   0.53824   0.00000  Uiso   1.00
O922   O     0.09058   0.83333   0.52928   0.00000  Uiso   1.00
O923   O     0.24275   0.83334   0.47072   0.00000  Uiso   1.00
O924   O     0.09058   0.83334   0.45284   0.00000  Uiso   1.00
O925   O     0.24275   0.83333   0.54716   0.00000  Uiso   1.00
O926   O     0.18283   0.95985   0.41803   0.00000  Uiso   1.00
Zn927  Zn    0.16667   0.83333   0.55104   0.00000  Uiso   1.00
Zn928  Zn    0.16667   0.83334   0.44896   0.00000  Uiso   1.00
C929   C     0.50245   0.75327   0.50034   0.00000  Uiso   1.00
C930   C     0.52408   0.68792   0.54307   0.00000  Uiso   1.00
C931   C     0.51323   0.95734   0.50091   0.00000  Uiso   1.00
C932   C     0.51084   0.70929   0.50113   0.00000  Uiso   1.00
C933   C     0.54375   0.84506   0.36291   0.00000  Uiso   1.00
C934   C     0.45657   0.82078   0.63712   0.00000  Uiso   1.00
C935   C     0.54361   0.84538   0.64832   0.00000  Uiso   1.00
C936   C     0.45653   0.82092   0.35169   0.00000  Uiso   1.00
C937   C     0.56913   0.94958   0.41519   0.00000  Uiso   1.00
C938   C     0.60163   0.98778   0.40505   0.00000  Uiso   1.00
C939   C     0.65625   0.97517   0.39597   0.00000  Uiso   1.00
C940   C     0.50398   0.91331   0.50036   0.00000  Uiso   1.00
C941   C     0.58735   0.72417   0.59025   0.00000  Uiso   1.00
C942   C     0.62799   0.69049   0.60647   0.00000  Uiso   1.00
C943   C     0.34940   0.70920   0.61984   0.00000  Uiso   1.00
C944   C     0.40036   0.83332   0.48802   0.00000  Uiso   1.00
C945   C     0.59964   0.83329   0.51198   0.00000  Uiso   1.00
C946   C     0.34532   0.83332   0.48157   0.00000  Uiso   1.00
C947   C     0.65467   0.83319   0.51844   0.00000  Uiso   1.00
C948   C     0.50762   0.68809   0.45940   0.00000  Uiso   1.00
C949   C     0.52155   0.97848   0.54286   0.00000  Uiso   1.00
C950   C     0.51365   0.97914   0.45947   0.00000  Uiso   1.00
F951   F     0.49941   0.70789   0.41816   0.00000  Uiso   1.00
F952   F     0.52819   0.95804   0.58371   0.00000  Uiso   1.00
H953   H     0.65803   0.83346   0.44660   0.00000  Uiso   1.00
H954   H     0.60638   0.67591   0.43475   0.00000  Uiso   1.00
H955   H     0.34455   0.95903   0.42639   0.00000  Uiso   1.00
H956   H     0.34548   0.67000   0.38881   0.00000  Uiso   1.00
H957   H     0.65320   0.95422   0.36588   0.00000  Uiso   1.00
H958   H     0.59002   0.74885   0.61673   0.00000  Uiso   1.00
H959   H     0.59711   0.73939   0.55856   0.00000  Uiso   1.00
H960   H     0.61637   0.67390   0.63641   0.00000  Uiso   1.00
H961   H     0.62937   0.66758   0.57864   0.00000  Uiso   1.00
H962   H     0.36195   0.72573   0.59015   0.00000  Uiso   1.00
H963   H     0.37796   0.68404   0.63093   0.00000  Uiso   1.00
H964   H     0.34195   0.83303   0.55342   0.00000  Uiso   1.00
H965   H     0.34961   0.73134   0.64863   0.00000  Uiso   1.00
H966   H     0.57891   0.85424   0.38543   0.00000  Uiso   1.00
H967   H     0.42186   0.81053   0.61464   0.00000  Uiso   1.00
H968   H     0.57849   0.85516   0.63478   0.00000  Uiso   1.00
H969   H     0.42176   0.81090   0.36526   0.00000  Uiso   1.00
H970   H     0.56848   0.92769   0.38625   0.00000  Uiso   1.00
H971   H     0.58859   0.93309   0.44646   0.00000  Uiso   1.00
H972   H     0.58090   0.67121   0.37469   0.00000  Uiso   1.00
N973   N     0.49999   0.83332   0.61907   0.00000  Uiso   1.00
N974   N     0.50001   0.83334   0.38093   0.00000  Uiso   1.00
O975   O     0.50000   0.77225   0.53821   0.00000  Uiso   1.00
O976   O     0.53542   0.70800   0.58484   0.00000  Uiso   1.00
O977   O     0.50000   0.89442   0.46179   0.00000  Uiso   1.00
O978   O     0.50000   0.77226   0.46176   0.00000  Uiso   1.00
O979   O     0.50000   0.89441   0.53824   0.00000  Uiso   1.00
O980   O     0.42392   0.83333   0.52928   0.00000  Uiso   1.00
O981   O     0.57608   0.83334   0.47072   0.00000  Uiso   1.00
O982   O     0.42392   0.83334   0.45284   0.00000  Uiso   1.00
O983   O     0.57608   0.83333   0.54716   0.00000  Uiso   1.00
O984   O     0.51616   0.95985   0.41803   0.00000  Uiso   1.00
Zn985  Zn    0.50000   0.83333   0.55104   0.00000  Uiso   1.00
Zn986  Zn    0.50000   0.83334   0.44896   0.00000  Uiso   1.00
C987   C     0.83578   0.75327   0.50034   0.00000  Uiso   1.00
C988   C     0.85742   0.68792   0.54307   0.00000  Uiso   1.00
C989   C     0.84656   0.95734   0.50091   0.00000  Uiso   1.00
C990   C     0.84417   0.70929   0.50113   0.00000  Uiso   1.00
C991   C     0.87708   0.84506   0.36291   0.00000  Uiso   1.00
C992   C     0.78991   0.82078   0.63712   0.00000  Uiso   1.00
C993   C     0.87694   0.84538   0.64832   0.00000  Uiso   1.00
C994   C     0.78986   0.82092   0.35169   0.00000  Uiso   1.00
C995   C     0.90246   0.94958   0.41519   0.00000  Uiso   1.00
C996   C     0.93497   0.98778   0.40505   0.00000  Uiso   1.00
C997   C     0.98958   0.97517   0.39597   0.00000  Uiso   1.00
C998   C     0.83732   0.91331   0.50036   0.00000  Uiso   1.00
C999   C     0.92068   0.72417   0.59025   0.00000  Uiso   1.00
C1000  C     0.96133   0.69049   0.60647   0.00000  Uiso   1.00
C1001  C     0.68274   0.70920   0.61984   0.00000  Uiso   1.00
C1002  C     0.73369   0.83332   0.48802   0.00000  Uiso   1.00
C1003  C     0.93297   0.83329   0.51198   0.00000  Uiso   1.00
C1004  C     0.67865   0.83332   0.48157   0.00000  Uiso   1.00
C1005  C     0.98800   0.83319   0.51844   0.00000  Uiso   1.00
C1006  C     0.84095   0.68809   0.45940   0.00000  Uiso   1.00
C1007  C     0.85488   0.97848   0.54286   0.00000  Uiso   1.00
C1008  C     0.84699   0.97914   0.45947   0.00000  Uiso   1.00
F1009  F     0.83275   0.70789   0.41816   0.00000  Uiso   1.00
F1010  F     0.86152   0.95804   0.58371   0.00000  Uiso   1.00
H1011  H     0.99137   0.83346   0.44660   0.00000  Uiso   1.00
H1012  H     0.93971   0.67591   0.43475   0.00000  Uiso   1.00
H1013  H     0.67788   0.95903   0.42639   0.00000  Uiso   1.00
H1014  H     0.67881   0.67000   0.38881   0.00000  Uiso   1.00
H1015  H     0.98653   0.95422   0.36588   0.00000  Uiso   1.00
H1016  H     0.92335   0.74885   0.61673   0.00000  Uiso   1.00
H1017  H     0.93045   0.73939   0.55856   0.00000  Uiso   1.00
H1018  H     0.94970   0.67390   0.63641   0.00000  Uiso   1.00
H1019  H     0.96271   0.66758   0.57864   0.00000  Uiso   1.00
H1020  H     0.69528   0.72573   0.59015   0.00000  Uiso   1.00
H1021  H     0.71130   0.68404   0.63093   0.00000  Uiso   1.00
H1022  H     0.67528   0.83303   0.55342   0.00000  Uiso   1.00
H1023  H     0.68294   0.73134   0.64863   0.00000  Uiso   1.00
H1024  H     0.91224   0.85424   0.38543   0.00000  Uiso   1.00
H1025  H     0.75520   0.81053   0.61464   0.00000  Uiso   1.00
H1026  H     0.91182   0.85516   0.63478   0.00000  Uiso   1.00
H1027  H     0.75510   0.81090   0.36526   0.00000  Uiso   1.00
H1028  H     0.90181   0.92769   0.38625   0.00000  Uiso   1.00
H1029  H     0.92192   0.93309   0.44646   0.00000  Uiso   1.00
H1030  H     0.91423   0.67121   0.37469   0.00000  Uiso   1.00
N1031  N     0.83332   0.83332   0.61907   0.00000  Uiso   1.00
N1032  N     0.83335   0.83334   0.38093   0.00000  Uiso   1.00
O1033  O     0.83333   0.77225   0.53821   0.00000  Uiso   1.00
O1034  O     0.86876   0.70800   0.58484   0.00000  Uiso   1.00
O1035  O     0.83334   0.89442   0.46179   0.00000  Uiso   1.00
O1036  O     0.83333   0.77226   0.46176   0.00000  Uiso   1.00
O1037  O     0.83334   0.89441   0.53824   0.00000  Uiso   1.00
O1038  O     0.75725   0.83333   0.52928   0.00000  Uiso   1.00
O1039  O     0.90942   0.83334   0.47072   0.00000  Uiso   1.00
O1040  O     0.75725   0.83334   0.45284   0.00000  Uiso   1.00
O1041  O     0.90942   0.83333   0.54716   0.00000  Uiso   1.00
O1042  O     0.84950   0.95985   0.41803   0.00000  Uiso   1.00
Zn1043 Zn    0.83333   0.83333   0.55104   0.00000  Uiso   1.00
Zn1044 Zn    0.83333   0.83334   0.44896   0.00000  Uiso   1.00
C1045  C     0.16912   0.08660   0.83367   0.00000  Uiso   1.00
C1046  C     0.19075   0.02126   0.87640   0.00000  Uiso   1.00
C1047  C     0.17989   0.29067   0.83424   0.00000  Uiso   1.00
C1048  C     0.17751   0.04262   0.83446   0.00000  Uiso   1.00
C1049  C     0.21041   0.17840   0.69624   0.00000  Uiso   1.00
C1050  C     0.12324   0.15411   0.97045   0.00000  Uiso   1.00
C1051  C     0.21028   0.17872   0.98165   0.00000  Uiso   1.00
C1052  C     0.12320   0.15426   0.68503   0.00000  Uiso   1.00
C1053  C     0.23580   0.28292   0.74852   0.00000  Uiso   1.00
C1054  C     0.26830   0.32111   0.73839   0.00000  Uiso   1.00
C1055  C     0.32291   0.30850   0.72930   0.00000  Uiso   1.00
C1056  C     0.17065   0.24665   0.83370   0.00000  Uiso   1.00
C1057  C     0.25401   0.05751   0.92358   0.00000  Uiso   1.00
C1058  C     0.29466   0.02383   0.93981   0.00000  Uiso   1.00
C1059  C     0.01607   0.04254   0.95317   0.00000  Uiso   1.00
C1060  C     0.06703   0.16665   0.82136   0.00000  Uiso   1.00
C1061  C     0.26630   0.16663   0.84531   0.00000  Uiso   1.00
C1062  C     0.01198   0.16665   0.81491   0.00000  Uiso   1.00
C1063  C     0.32134   0.16652   0.85177   0.00000  Uiso   1.00
C1064  C     0.17428   0.02142   0.79274   0.00000  Uiso   1.00
C1065  C     0.18822   0.31181   0.87619   0.00000  Uiso   1.00
C1066  C     0.18032   0.31248   0.79280   0.00000  Uiso   1.00
F1067  F     0.16608   0.04123   0.75149   0.00000  Uiso   1.00
F1068  F     0.19485   0.29137   0.91705   0.00000  Uiso   1.00
H1069  H     0.32470   0.16679   0.77993   0.00000  Uiso   1.00
H1070  H     0.27305   0.00925   0.76809   0.00000  Uiso   1.00
H1071  H     0.01122   0.29236   0.75972   0.00000  Uiso   1.00
H1072  H     0.01214   0.00333   0.72214   0.00000  Uiso   1.00
H1073  H     0.31986   0.28755   0.69921   0.00000  Uiso   1.00
H1074  H     0.25669   0.08218   0.95006   0.00000  Uiso   1.00
H1075  H     0.26378   0.07272   0.89190   0.00000  Uiso   1.00
H1076  H     0.28304   0.00723   0.96974   0.00000  Uiso   1.00
H1077  H     0.29604   0.00091   0.91197   0.00000  Uiso   1.00
H1078  H     0.02862   0.05906   0.92349   0.00000  Uiso   1.00
H1079  H     0.04463   0.01738   0.96426   0.00000  Uiso   1.00
H1080  H     0.00861   0.16636   0.88675   0.00000  Uiso   1.00
H1081  H     0.01627   0.06468   0.98197   0.00000  Uiso   1.00
H1082  H     0.24557   0.18758   0.71876   0.00000  Uiso   1.00
H1083  H     0.08853   0.14387   0.94797   0.00000  Uiso   1.00
H1084  H     0.24516   0.18850   0.96811   0.00000  Uiso   1.00
H1085  H     0.08843   0.14423   0.69860   0.00000  Uiso   1.00
H1086  H     0.23514   0.26102   0.71959   0.00000  Uiso   1.00
H1087  H     0.25525   0.26642   0.77980   0.00000  Uiso   1.00
H1088  H     0.24756   0.00455   0.70803   0.00000  Uiso   1.00
N1089  N     0.16665   0.16666   0.95240   0.00000  Uiso   1.00
N1090  N     0.16668   0.16668   0.71427   0.00000  Uiso   1.00
O1091  O     0.16666   0.10558   0.87154   0.00000  Uiso   1.00
O1092  O     0.20209   0.04133   0.91818   0.00000  Uiso   1.00
O1093  O     0.16667   0.22775   0.79513   0.00000  Uiso   1.00
O1094  O     0.16666   0.10559   0.79510   0.00000  Uiso   1.00
O1095  O     0.16667   0.22774   0.87157   0.00000  Uiso   1.00
O1096  O     0.09058   0.16666   0.86261   0.00000  Uiso   1.00
O1097  O     0.24275   0.16667   0.80405   0.00000  Uiso   1.00
O1098  O     0.09058   0.16667   0.78617   0.00000  Uiso   1.00
O1099  O     0.24275   0.16666   0.88050   0.00000  Uiso   1.00
O1100  O     0.18283   0.29318   0.75136   0.00000  Uiso   1.00
Zn1101 Zn    0.16667   0.16666   0.88437   0.00000  Uiso   1.00
Zn1102 Zn    0.16667   0.16667   0.78229   0.00000  Uiso   1.00
C1103  C     0.50245   0.08660   0.83367   0.00000  Uiso   1.00
C1104  C     0.52408   0.02126   0.87640   0.00000  Uiso   1.00
C1105  C     0.51323   0.29067   0.83424   0.00000  Uiso   1.00
C1106  C     0.51084   0.04262   0.83446   0.00000  Uiso   1.00
C1107  C     0.54375   0.17840   0.69624   0.00000  Uiso   1.00
C1108  C     0.45657   0.15411   0.97045   0.00000  Uiso   1.00
C1109  C     0.54361   0.17872   0.98165   0.00000  Uiso   1.00
C1110  C     0.45653   0.15426   0.68503   0.00000  Uiso   1.00
C1111  C     0.56913   0.28292   0.74852   0.00000  Uiso   1.00
C1112  C     0.60163   0.32111   0.73839   0.00000  Uiso   1.00
C1113  C     0.65625   0.30850   0.72930   0.00000  Uiso   1.00
C1114  C     0.50398   0.24665   0.83370   0.00000  Uiso   1.00
C1115  C     0.58735   0.05751   0.92358   0.00000  Uiso   1.00
C1116  C     0.62799   0.02383   0.93981   0.00000  Uiso   1.00
C1117  C     0.34940   0.04254   0.95317   0.00000  Uiso   1.00
C1118  C     0.40036   0.16665   0.82136   0.00000  Uiso   1.00
C1119  C     0.59964   0.16663   0.84531   0.00000  Uiso   1.00
C1120  C     0.34532   0.16665   0.81491   0.00000  Uiso   1.00
C1121  C     0.65467   0.16652   0.85177   0.00000  Uiso   1.00
C1122  C     0.50762   0.02142   0.79274   0.00000  Uiso   1.00
C1123  C     0.52155   0.31181   0.87619   0.00000  Uiso   1.00
C1124  C     0.51365   0.31248   0.79280   0.00000  Uiso   1.00
F1125  F     0.49941   0.04123   0.75149   0.00000  Uiso   1.00
F1126  F     0.52819   0.29137   0.91705   0.00000  Uiso   1.00
H1127  H     0.65803   0.16679   0.77993   0.00000  Uiso   1.00
H1128  H     0.60638   0.00925   0.76809   0.00000  Uiso   1.00
H1129  H     0.34455   0.29236   0.75972   0.00000  Uiso   1.00
H1130  H     0.34548   0.00333   0.72214   0.00000  Uiso   1.00
H1131  H     0.65320   0.28755   0.69921   0.00000  Uiso   1.00
H1132  H     0.59002   0.08218   0.95006   0.00000  Uiso   1.00
H1133  H     0.59711   0.07272   0.89190   0.00000  Uiso   1.00
H1134  H     0.61637   0.00723   0.96974   0.00000  Uiso   1.00
H1135  H     0.62937   0.00091   0.91197   0.00000  Uiso   1.00
H1136  H     0.36195   0.05906   0.92349   0.00000  Uiso   1.00
H1137  H     0.37796   0.01738   0.96426   0.00000  Uiso   1.00
H1138  H     0.34195   0.16636   0.88675   0.00000  Uiso   1.00
H1139  H     0.34961   0.06468   0.98197   0.00000  Uiso   1.00
H1140  H     0.57891   0.18758   0.71876   0.00000  Uiso   1.00
H1141  H     0.42186   0.14387   0.94797   0.00000  Uiso   1.00
H1142  H     0.57849   0.18850   0.96811   0.00000  Uiso   1.00
H1143  H     0.42176   0.14423   0.69860   0.00000  Uiso   1.00
H1144  H     0.56848   0.26102   0.71959   0.00000  Uiso   1.00
H1145  H     0.58859   0.26642   0.77980   0.00000  Uiso   1.00
H1146  H     0.58090   0.00455   0.70803   0.00000  Uiso   1.00
N1147  N     0.49999   0.16666   0.95240   0.00000  Uiso   1.00
N1148  N     0.50001   0.16668   0.71427   0.00000  Uiso   1.00
O1149  O     0.50000   0.10558   0.87154   0.00000  Uiso   1.00
O1150  O     0.53542   0.04133   0.91818   0.00000  Uiso   1.00
O1151  O     0.50000   0.22775   0.79513   0.00000  Uiso   1.00
O1152  O     0.50000   0.10559   0.79510   0.00000  Uiso   1.00
O1153  O     0.50000   0.22774   0.87157   0.00000  Uiso   1.00
O1154  O     0.42392   0.16666   0.86261   0.00000  Uiso   1.00
O1155  O     0.57608   0.16667   0.80405   0.00000  Uiso   1.00
O1156  O     0.42392   0.16667   0.78617   0.00000  Uiso   1.00
O1157  O     0.57608   0.16666   0.88050   0.00000  Uiso   1.00
O1158  O     0.51616   0.29318   0.75136   0.00000  Uiso   1.00
Zn1159 Zn    0.50000   0.16666   0.88437   0.00000  Uiso   1.00
Zn1160 Zn    0.50000   0.16667   0.78229   0.00000  Uiso   1.00
C1161  C     0.83578   0.08660   0.83367   0.00000  Uiso   1.00
C1162  C     0.85742   0.02126   0.87640   0.00000  Uiso   1.00
C1163  C     0.84656   0.29067   0.83424   0.00000  Uiso   1.00
C1164  C     0.84417   0.04262   0.83446   0.00000  Uiso   1.00
C1165  C     0.87708   0.17840   0.69624   0.00000  Uiso   1.00
C1166  C     0.78991   0.15411   0.97045   0.00000  Uiso   1.00
C1167  C     0.87694   0.17872   0.98165   0.00000  Uiso   1.00
C1168  C     0.78986   0.15426   0.68503   0.00000  Uiso   1.00
C1169  C     0.90246   0.28292   0.74852   0.00000  Uiso   1.00
C1170  C     0.93497   0.32111   0.73839   0.00000  Uiso   1.00
C1171  C     0.98958   0.30850   0.72930   0.00000  Uiso   1.00
C1172  C     0.83732   0.24665   0.83370   0.00000  Uiso   1.00
C1173  C     0.92068   0.05751   0.92358   0.00000  Uiso   1.00
C1174  C     0.96133   0.02383   0.93981   0.00000  Uiso   1.00
C1175  C     0.68274   0.04254   0.95317   0.00000  Uiso   1.00
C1176  C     0.73369   0.16665   0.82136   0.00000  Uiso   1.00
C1177  C     0.93297   0.16663   0.84531   0.00000  Uiso   1.00
C1178  C     0.67865   0.16665   0.81491   0.00000  Uiso   1.00
C1179  C     0.98800   0.16652   0.85177   0.00000  Uiso   1.00
C1180  C     0.84095   0.02142   0.79274   0.00000  Uiso   1.00
C1181  C     0.85488   0.31181   0.87619   0.00000  Uiso   1.00
C1182  C     0.84699   0.31248   0.79280   0.00000  Uiso   1.00
F1183  F     0.83275   0.04123   0.75149   0.00000  Uiso   1.00
F1184  F     0.86152   0.29137   0.91705   0.00000  Uiso   1.00
H1185  H     0.99137   0.16679   0.77993   0.00000  Uiso   1.00
H1186  H     0.93971   0.00925   0.76809   0.00000  Uiso   1.00
H1187  H     0.67788   0.29236   0.75972   0.00000  Uiso   1.00
H1188  H     0.67881   0.00333   0.72214   0.00000  Uiso   1.00
H1189  H     0.98653   0.28755   0.69921   0.00000  Uiso   1.00
H1190  H     0.92335   0.08218   0.95006   0.00000  Uiso   1.00
H1191  H     0.93045   0.07272   0.89190   0.00000  Uiso   1.00
H1192  H     0.94970   0.00723   0.96974   0.00000  Uiso   1.00
H1193  H     0.96271   0.00091   0.91197   0.00000  Uiso   1.00
H1194  H     0.69528   0.05906   0.92349   0.00000  Uiso   1.00
H1195  H     0.71130   0.01738   0.96426   0.00000  Uiso   1.00
H1196  H     0.67528   0.16636   0.88675   0.00000  Uiso   1.00
H1197  H     0.68294   0.06468   0.98197   0.00000  Uiso   1.00
H1198  H     0.91224   0.18758   0.71876   0.00000  Uiso   1.00
H1199  H     0.75520   0.14387   0.94797   0.00000  Uiso   1.00
H1200  H     0.91182   0.18850   0.96811   0.00000  Uiso   1.00
H1201  H     0.75510   0.14423   0.69860   0.00000  Uiso   1.00
H1202  H     0.90181   0.26102   0.71959   0.00000  Uiso   1.00
H1203  H     0.92192   0.26642   0.77980   0.00000  Uiso   1.00
H1204  H     0.91423   0.00455   0.70803   0.00000  Uiso   1.00
N1205  N     0.83332   0.16666   0.95240   0.00000  Uiso   1.00
N1206  N     0.83335   0.16668   0.71427   0.00000  Uiso   1.00
O1207  O     0.83333   0.10558   0.87154   0.00000  Uiso   1.00
O1208  O     0.86876   0.04133   0.91818   0.00000  Uiso   1.00
O1209  O     0.83334   0.22775   0.79513   0.00000  Uiso   1.00
O1210  O     0.83333   0.10559   0.79510   0.00000  Uiso   1.00
O1211  O     0.83334   0.22774   0.87157   0.00000  Uiso   1.00
O1212  O     0.75725   0.16666   0.86261   0.00000  Uiso   1.00
O1213  O     0.90942   0.16667   0.80405   0.00000  Uiso   1.00
O1214  O     0.75725   0.16667   0.78617   0.00000  Uiso   1.00
O1215  O     0.90942   0.16666   0.88050   0.00000  Uiso   1.00
O1216  O     0.84950   0.29318   0.75136   0.00000  Uiso   1.00
Zn1217 Zn    0.83333   0.16666   0.88437   0.00000  Uiso   1.00
Zn1218 Zn    0.83333   0.16667   0.78229   0.00000  Uiso   1.00
C1219  C     0.16912   0.41994   0.83367   0.00000  Uiso   1.00
C1220  C     0.19075   0.35459   0.87640   0.00000  Uiso   1.00
C1221  C     0.17989   0.62400   0.83424   0.00000  Uiso   1.00
C1222  C     0.17751   0.37595   0.83446   0.00000  Uiso   1.00
C1223  C     0.21041   0.51173   0.69624   0.00000  Uiso   1.00
C1224  C     0.12324   0.48745   0.97045   0.00000  Uiso   1.00
C1225  C     0.21028   0.51205   0.98165   0.00000  Uiso   1.00
C1226  C     0.12320   0.48759   0.68503   0.00000  Uiso   1.00
C1227  C     0.23580   0.61625   0.74852   0.00000  Uiso   1.00
C1228  C     0.26830   0.65444   0.73839   0.00000  Uiso   1.00
C1229  C     0.32291   0.64183   0.72930   0.00000  Uiso   1.00
C1230  C     0.17065   0.57998   0.83370   0.00000  Uiso   1.00
C1231  C     0.25401   0.39084   0.92358   0.00000  Uiso   1.00
C1232  C     0.29466   0.35716   0.93981   0.00000  Uiso   1.00
C1233  C     0.01607   0.37587   0.95317   0.00000  Uiso   1.00
C1234  C     0.06703   0.49998   0.82136   0.00000  Uiso   1.00
C1235  C     0.26630   0.49996   0.84531   0.00000  Uiso   1.00
C1236  C     0.01198   0.49999   0.81491   0.00000  Uiso   1.00
C1237  C     0.32134   0.49985   0.85177   0.00000  Uiso   1.00
C1238  C     0.17428   0.35476   0.79274   0.00000  Uiso   1.00
C1239  C     0.18822   0.64514   0.87619   0.00000  Uiso   1.00
C1240  C     0.18032   0.64581   0.79280   0.00000  Uiso   1.00
F1241  F     0.16608   0.37456   0.75149   0.00000  Uiso   1.00
F1242  F     0.19485   0.62470   0.91705   0.00000  Uiso   1.00
H1243  H     0.32470   0.50013   0.77993   0.00000  Uiso   1.00
H1244  H     0.27305   0.34258   0.76809   0.00000  Uiso   1.00
H1245  H     0.01122   0.62569   0.75972   0.00000  Uiso   1.00
H1246  H     0.01214   0.33666   0.72214   0.00000  Uiso   1.00
H1247  H     0.31986   0.62088   0.69921   0.00000  Uiso   1.00
H1248  H     0.25669   0.41551   0.95006   0.00000  Uiso   1.00
H1249  H     0.26378   0.40606   0.89190   0.00000  Uiso   1.00
H1250  H     0.28304   0.34057   0.96974   0.00000  Uiso   1.00
H1251  H     0.29604   0.33425   0.91197   0.00000  Uiso   1.00
H1252  H     0.02862   0.39240   0.92349   0.00000  Uiso   1.00
H1253  H     0.04463   0.35071   0.96426   0.00000  Uiso   1.00
H1254  H     0.00861   0.49969   0.88675   0.00000  Uiso   1.00
H1255  H     0.01627   0.39801   0.98197   0.00000  Uiso   1.00
H1256  H     0.24557   0.52091   0.71876   0.00000  Uiso   1.00
H1257  H     0.08853   0.47720   0.94797   0.00000  Uiso   1.00
H1258  H     0.24516   0.52183   0.96811   0.00000  Uiso   1.00
H1259  H     0.08843   0.47757   0.69860   0.00000  Uiso   1.00
H1260  H     0.23514   0.59435   0.71959   0.00000  Uiso   1.00
H1261  H     0.25525   0.59976   0.77980   0.00000  Uiso   1.00
H1262  H     0.24756   0.33788   0.70803   0.00000  Uiso   1.00
N1263  N     0.16665   0.49999   0.95240   0.00000  Uiso   1.00
N1264  N     0.16668   0.50001   0.71427   0.00000  Uiso   1.00
O1265  O     0.16666   0.43892   0.87154   0.00000  Uiso   1.00
O1266  O     0.20209   0.37467   0.91818   0.00000  Uiso   1.00
O1267  O     0.16667   0.56108   0.79513   0.00000  Uiso   1.00
O1268  O     0.16666   0.43893   0.79510   0.00000  Uiso   1.00
O1269  O     0.16667   0.56107   0.87157   0.00000  Uiso   1.00
O1270  O     0.09058   0.50000   0.86261   0.00000  Uiso   1.00
O1271  O     0.24275   0.50000   0.80405   0.00000  Uiso   1.00
O1272  O     0.09058   0.50000   0.78617   0.00000  Uiso   1.00
O1273  O     0.24275   0.50000   0.88050   0.00000  Uiso   1.00
O1274  O     0.18283   0.62652   0.75136   0.00000  Uiso   1.00
Zn1275 Zn    0.16667   0.49999   0.88437   0.00000  Uiso   1.00
Zn1276 Zn    0.16667   0.50001   0.78229   0.00000  Uiso   1.00
C1277  C     0.50245   0.41994   0.83367   0.00000  Uiso   1.00
C1278  C     0.52408   0.35459   0.87640   0.00000  Uiso   1.00
C1279  C     0.51323   0.62400   0.83424   0.00000  Uiso   1.00
C1280  C     0.51084   0.37595   0.83446   0.00000  Uiso   1.00
C1281  C     0.54375   0.51173   0.69624   0.00000  Uiso   1.00
C1282  C     0.45657   0.48745   0.97045   0.00000  Uiso   1.00
C1283  C     0.54361   0.51205   0.98165   0.00000  Uiso   1.00
C1284  C     0.45653   0.48759   0.68503   0.00000  Uiso   1.00
C1285  C     0.56913   0.61625   0.74852   0.00000  Uiso   1.00
C1286  C     0.60163   0.65444   0.73839   0.00000  Uiso   1.00
C1287  C     0.65625   0.64183   0.72930   0.00000  Uiso   1.00
C1288  C     0.50398   0.57998   0.83370   0.00000  Uiso   1.00
C1289  C     0.58735   0.39084   0.92358   0.00000  Uiso   1.00
C1290  C     0.62799   0.35716   0.93981   0.00000  Uiso   1.00
C1291  C     0.34940   0.37587   0.95317   0.00000  Uiso   1.00
C1292  C     0.40036   0.49998   0.82136   0.00000  Uiso   1.00
C1293  C     0.59964   0.49996   0.84531   0.00000  Uiso   1.00
C1294  C     0.34532   0.49999   0.81491   0.00000  Uiso   1.00
C1295  C     0.65467   0.49985   0.85177   0.00000  Uiso   1.00
C1296  C     0.50762   0.35476   0.79274   0.00000  Uiso   1.00
C1297  C     0.52155   0.64514   0.87619   0.00000  Uiso   1.00
C1298  C     0.51365   0.64581   0.79280   0.00000  Uiso   1.00
F1299  F     0.49941   0.37456   0.75149   0.00000  Uiso   1.00
F1300  F     0.52819   0.62470   0.91705   0.00000  Uiso   1.00
H1301  H     0.65803   0.50013   0.77993   0.00000  Uiso   1.00
H1302  H     0.60638   0.34258   0.76809   0.00000  Uiso   1.00
H1303  H     0.34455   0.62569   0.75972   0.00000  Uiso   1.00
H1304  H     0.34548   0.33666   0.72214   0.00000  Uiso   1.00
H1305  H     0.65320   0.62088   0.69921   0.00000  Uiso   1.00
H1306  H     0.59002   0.41551   0.95006   0.00000  Uiso   1.00
H1307  H     0.59711   0.40606   0.89190   0.00000  Uiso   1.00
H1308  H     0.61637   0.34057   0.96974   0.00000  Uiso   1.00
H1309  H     0.62937   0.33425   0.91197   0.00000  Uiso   1.00
H1310  H     0.36195   0.39240   0.92349   0.00000  Uiso   1.00
H1311  H     0.37796   0.35071   0.96426   0.00000  Uiso   1.00
H1312  H     0.34195   0.49969   0.88675   0.00000  Uiso   1.00
H1313  H     0.34961   0.39801   0.98197   0.00000  Uiso   1.00
H1314  H     0.57891   0.52091   0.71876   0.00000  Uiso   1.00
H1315  H     0.42186   0.47720   0.94797   0.00000  Uiso   1.00
H1316  H     0.57849   0.52183   0.96811   0.00000  Uiso   1.00
H1317  H     0.42176   0.47757   0.69860   0.00000  Uiso   1.00
H1318  H     0.56848   0.59435   0.71959   0.00000  Uiso   1.00
H1319  H     0.58859   0.59976   0.77980   0.00000  Uiso   1.00
H1320  H     0.58090   0.33788   0.70803   0.00000  Uiso   1.00
N1321  N     0.49999   0.49999   0.95240   0.00000  Uiso   1.00
N1322  N     0.50001   0.50001   0.71427   0.00000  Uiso   1.00
O1323  O     0.50000   0.43892   0.87154   0.00000  Uiso   1.00
O1324  O     0.53542   0.37467   0.91818   0.00000  Uiso   1.00
O1325  O     0.50000   0.56108   0.79513   0.00000  Uiso   1.00
O1326  O     0.50000   0.43893   0.79510   0.00000  Uiso   1.00
O1327  O     0.50000   0.56107   0.87157   0.00000  Uiso   1.00
O1328  O     0.42392   0.50000   0.86261   0.00000  Uiso   1.00
O1329  O     0.57608   0.50000   0.80405   0.00000  Uiso   1.00
O1330  O     0.42392   0.50000   0.78617   0.00000  Uiso   1.00
O1331  O     0.57608   0.50000   0.88050   0.00000  Uiso   1.00
O1332  O     0.51616   0.62652   0.75136   0.00000  Uiso   1.00
Zn1333 Zn    0.50000   0.49999   0.88437   0.00000  Uiso   1.00
Zn1334 Zn    0.50000   0.50001   0.78229   0.00000  Uiso   1.00
C1335  C     0.83578   0.41994   0.83367   0.00000  Uiso   1.00
C1336  C     0.85742   0.35459   0.87640   0.00000  Uiso   1.00
C1337  C     0.84656   0.62400   0.83424   0.00000  Uiso   1.00
C1338  C     0.84417   0.37595   0.83446   0.00000  Uiso   1.00
C1339  C     0.87708   0.51173   0.69624   0.00000  Uiso   1.00
C1340  C     0.78991   0.48745   0.97045   0.00000  Uiso   1.00
C1341  C     0.87694   0.51205   0.98165   0.00000  Uiso   1.00
C1342  C     0.78986   0.48759   0.68503   0.00000  Uiso   1.00
C1343  C     0.90246   0.61625   0.74852   0.00000  Uiso   1.00
C1344  C     0.93497   0.65444   0.73839   0.00000  Uiso   1.00
C1345  C     0.98958   0.64183   0.72930   0.00000  Uiso   1.00
C1346  C     0.83732   0.57998   0.83370   0.00000  Uiso   1.00
C1347  C     0.92068   0.39084   0.92358   0.00000  Uiso   1.00
C1348  C     0.96133   0.35716   0.93981   0.00000  Uiso   1.00
C1349  C     0.68274   0.37587   0.95317   0.00000  Uiso   1.00
C1350  C     0.73369   0.49998   0.82136   0.00000  Uiso   1.00
C1351  C     0.93297   0.49996   0.84531   0.00000  Uiso   1.00
C1352  C     0.67865   0.49999   0.81491   0.00000  Uiso   1.00
C1353  C     0.98800   0.49985   0.85177   0.00000  Uiso   1.00
C1354  C     0.84095   0.35476   0.79274   0.00000  Uiso   1.00
C1355  C     0.85488   0.64514   0.87619   0.00000  Uiso   1.00
C1356  C     0.84699   0.64581   0.79280   0.00000  Uiso   1.00
F1357  F     0.83275   0.37456   0.75149   0.00000  Uiso   1.00
F1358  F     0.86152   0.62470   0.91705   0.00000  Uiso   1.00
H1359  H     0.99137   0.50013   0.77993   0.00000  Uiso   1.00
H1360  H     0.93971   0.34258   0.76809   0.00000  Uiso   1.00
H1361  H     0.67788   0.62569   0.75972   0.00000  Uiso   1.00
H1362  H     0.67881   0.33666   0.72214   0.00000  Uiso   1.00
H1363  H     0.98653   0.62088   0.69921   0.00000  Uiso   1.00
H1364  H     0.92335   0.41551   0.95006   0.00000  Uiso   1.00
H1365  H     0.93045   0.40606   0.89190   0.00000  Uiso   1.00
H1366  H     0.94970   0.34057   0.96974   0.00000  Uiso   1.00
H1367  H     0.96271   0.33425   0.91197   0.00000  Uiso   1.00
H1368  H     0.69528   0.39240   0.92349   0.00000  Uiso   1.00
H1369  H     0.71130   0.35071   0.96426   0.00000  Uiso   1.00
H1370  H     0.67528   0.49969   0.88675   0.00000  Uiso   1.00
H1371  H     0.68294   0.39801   0.98197   0.00000  Uiso   1.00
H1372  H     0.91224   0.52091   0.71876   0.00000  Uiso   1.00
H1373  H     0.75520   0.47720   0.94797   0.00000  Uiso   1.00
H1374  H     0.91182   0.52183   0.96811   0.00000  Uiso   1.00
H1375  H     0.75510   0.47757   0.69860   0.00000  Uiso   1.00
H1376  H     0.90181   0.59435   0.71959   0.00000  Uiso   1.00
H1377  H     0.92192   0.59976   0.77980   0.00000  Uiso   1.00
H1378  H     0.91423   0.33788   0.70803   0.00000  Uiso   1.00
N1379  N     0.83332   0.49999   0.95240   0.00000  Uiso   1.00
N1380  N     0.83335   0.50001   0.71427   0.00000  Uiso   1.00
O1381  O     0.83333   0.43892   0.87154   0.00000  Uiso   1.00
O1382  O     0.86876   0.37467   0.91818   0.00000  Uiso   1.00
O1383  O     0.83334   0.56108   0.79513   0.00000  Uiso   1.00
O1384  O     0.83333   0.43893   0.79510   0.00000  Uiso   1.00
O1385  O     0.83334   0.56107   0.87157   0.00000  Uiso   1.00
O1386  O     0.75725   0.50000   0.86261   0.00000  Uiso   1.00
O1387  O     0.90942   0.50000   0.80405   0.00000  Uiso   1.00
O1388  O     0.75725   0.50000   0.78617   0.00000  Uiso   1.00
O1389  O     0.90942   0.50000   0.88050   0.00000  Uiso   1.00
O1390  O     0.84950   0.62652   0.75136   0.00000  Uiso   1.00
Zn1391 Zn    0.83333   0.49999   0.88437   0.00000  Uiso   1.00
Zn1392 Zn    0.83333   0.50001   0.78229   0.00000  Uiso   1.00
C1393  C     0.16912   0.75327   0.83367   0.00000  Uiso   1.00
C1394  C     0.19075   0.68792   0.87640   0.00000  Uiso   1.00
C1395  C     0.17989   0.95734   0.83424   0.00000  Uiso   1.00
C1396  C     0.17751   0.70929   0.83446   0.00000  Uiso   1.00
C1397  C     0.21041   0.84506   0.69624   0.00000  Uiso   1.00
C1398  C     0.12324   0.82078   0.97045   0.00000  Uiso   1.00
C1399  C     0.21028   0.84538   0.98165   0.00000  Uiso   1.00
C1400  C     0.12320   0.82092   0.68503   0.00000  Uiso   1.00
C1401  C     0.23580   0.94958   0.74852   0.00000  Uiso   1.00
C1402  C     0.26830   0.98778   0.73839   0.00000  Uiso   1.00
C1403  C     0.32291   0.97517   0.72930   0.00000  Uiso   1.00
C1404  C     0.17065   0.91331   0.83370   0.00000  Uiso   1.00
C1405  C     0.25401   0.72417   0.92358   0.00000  Uiso   1.00
C1406  C     0.29466   0.69049   0.93981   0.00000  Uiso   1.00
C1407  C     0.01607   0.70920   0.95317   0.00000  Uiso   1.00
C1408  C     0.06703   0.83332   0.82136   0.00000  Uiso   1.00
C1409  C     0.26630   0.83329   0.84531   0.00000  Uiso   1.00
C1410  C     0.01198   0.83332   0.81491   0.00000  Uiso   1.00
C1411  C     0.32134   0.83319   0.85177   0.00000  Uiso   1.00
C1412  C     0.17428   0.68809   0.79274   0.00000  Uiso   1.00
C1413  C     0.18822   0.97848   0.87619   0.00000  Uiso   1.00
C1414  C     0.18032   0.97914   0.79280   0.00000  Uiso   1.00
F1415  F     0.16608   0.70789   0.75149   0.00000  Uiso   1.00
F1416  F     0.19485   0.95804   0.91705   0.00000  Uiso   1.00
H1417  H     0.32470   0.83346   0.77993   0.00000  Uiso   1.00
H1418  H     0.27305   0.67591   0.76809   0.00000  Uiso   1.00
H1419  H     0.01122   0.95903   0.75972   0.00000  Uiso   1.00
H1420  H     0.01214   0.67000   0.72214   0.00000  Uiso   1.00
H1421  H     0.31986   0.95422   0.69921   0.00000  Uiso   1.00
H1422  H     0.25669   0.74885   0.95006   0.00000  Uiso   1.00
H1423  H     0.26378   0.73939   0.89190   0.00000  Uiso   1.00
H1424  H     0.28304   0.67390   0.96974   0.00000  Uiso   1.00
H1425  H     0.29604   0.66758   0.91197   0.00000  Uiso   1.00
H1426  H     0.02862   0.72573   0.92349   0.00000  Uiso   1.00
H1427  H     0.04463   0.68404   0.96426   0.00000  Uiso   1.00
H1428  H     0.00861   0.83303   0.88675   0.00000  Uiso   1.00
H1429  H     0.01627   0.73134   0.98197   0.00000  Uiso   1.00
H1430  H     0.24557   0.85424   0.71876   0.00000  Uiso   1.00
H1431  H     0.08853   0.81053   0.94797   0.00000  Uiso   1.00
H1432  H     0.24516   0.85516   0.96811   0.00000  Uiso   1.00
H1433  H     0.08843   0.81090   0.69860   0.00000  Uiso   1.00
H1434  H     0.23514   0.92769   0.71959   0.00000  Uiso   1.00
H1435  H     0.25525   0.93309   0.77980   0.00000  Uiso   1.00
H1436  H     0.24756   0.67121   0.70803   0.00000  Uiso   1.00
N1437  N     0.16665   0.83332   0.95240   0.00000  Uiso   1.00
N1438  N     0.16668   0.83334   0.71427   0.00000  Uiso   1.00
O1439  O     0.16666   0.77225   0.87154   0.00000  Uiso   1.00
O1440  O     0.20209   0.70800   0.91818   0.00000  Uiso   1.00
O1441  O     0.16667   0.89442   0.79513   0.00000  Uiso   1.00
O1442  O     0.16666   0.77226   0.79510   0.00000  Uiso   1.00
O1443  O     0.16667   0.89441   0.87157   0.00000  Uiso   1.00
O1444  O     0.09058   0.83333   0.86261   0.00000  Uiso   1.00
O1445  O     0.24275   0.83334   0.80405   0.00000  Uiso   1.00
O1446  O     0.09058   0.83334   0.78617   0.00000  Uiso   1.00
O1447  O     0.24275   0.83333   0.88050   0.00000  Uiso   1.00
O1448  O     0.18283   0.95985   0.75136   0.00000  Uiso   1.00
Zn1449 Zn    0.16667   0.83333   0.88437   0.00000  Uiso   1.00
Zn1450 Zn    0.16667   0.83334   0.78229   0.00000  Uiso   1.00
C1451  C     0.50245   0.75327   0.83367   0.00000  Uiso   1.00
C1452  C     0.52408   0.68792   0.87640   0.00000  Uiso   1.00
C1453  C     0.51323   0.95734   0.83424   0.00000  Uiso   1.00
C1454  C     0.51084   0.70929   0.83446   0.00000  Uiso   1.00
C1455  C     0.54375   0.84506   0.69624   0.00000  Uiso   1.00
C1456  C     0.45657   0.82078   0.97045   0.00000  Uiso   1.00
C1457  C     0.54361   0.84538   0.98165   0.00000  Uiso   1.00
C1458  C     0.45653   0.82092   0.68503   0.00000  Uiso   1.00
C1459  C     0.56913   0.94958   0.74852   0.00000  Uiso   1.00
C1460  C     0.60163   0.98778   0.73839   0.00000  Uiso   1.00
C1461  C     0.65625   0.97517   0.72930   0.00000  Uiso   1.00
C1462  C     0.50398   0.91331   0.83370   0.00000  Uiso   1.00
C1463  C     0.58735   0.72417   0.92358   0.00000  Uiso   1.00
C1464  C     0.62799   0.69049   0.93981   0.00000  Uiso   1.00
C1465  C     0.34940   0.70920   0.95317   0.00000  Uiso   1.00
C1466  C     0.40036   0.83332   0.82136   0.00000  Uiso   1.00
C1467  C     0.59964   0.83329   0.84531   0.00000  Uiso   1.00
C1468  C     0.34532   0.83332   0.81491   0.00000  Uiso   1.00
C1469  C     0.65467   0.83319   0.85177   0.00000  Uiso   1.00
C1470  C     0.50762   0.68809   0.79274   0.00000  Uiso   1.00
C1471  C     0.52155   0.97848   0.87619   0.00000  Uiso   1.00
C1472  C     0.51365   0.97914   0.79280   0.00000  Uiso   1.00
F1473  F     0.49941   0.70789   0.75149   0.00000  Uiso   1.00
F1474  F     0.52819   0.95804   0.91705   0.00000  Uiso   1.00
H1475  H     0.65803   0.83346   0.77993   0.00000  Uiso   1.00
H1476  H     0.60638   0.67591   0.76809   0.00000  Uiso   1.00
H1477  H     0.34455   0.95903   0.75972   0.00000  Uiso   1.00
H1478  H     0.34548   0.67000   0.72214   0.00000  Uiso   1.00
H1479  H     0.65320   0.95422   0.69921   0.00000  Uiso   1.00
H1480  H     0.59002   0.74885   0.95006   0.00000  Uiso   1.00
H1481  H     0.59711   0.73939   0.89190   0.00000  Uiso   1.00
H1482  H     0.61637   0.67390   0.96974   0.00000  Uiso   1.00
H1483  H     0.62937   0.66758   0.91197   0.00000  Uiso   1.00
H1484  H     0.36195   0.72573   0.92349   0.00000  Uiso   1.00
H1485  H     0.37796   0.68404   0.96426   0.00000  Uiso   1.00
H1486  H     0.34195   0.83303   0.88675   0.00000  Uiso   1.00
H1487  H     0.34961   0.73134   0.98197   0.00000  Uiso   1.00
H1488  H     0.57891   0.85424   0.71876   0.00000  Uiso   1.00
H1489  H     0.42186   0.81053   0.94797   0.00000  Uiso   1.00
H1490  H     0.57849   0.85516   0.96811   0.00000  Uiso   1.00
H1491  H     0.42176   0.81090   0.69860   0.00000  Uiso   1.00
H1492  H     0.56848   0.92769   0.71959   0.00000  Uiso   1.00
H1493  H     0.58859   0.93309   0.77980   0.00000  Uiso   1.00
H1494  H     0.58090   0.67121   0.70803   0.00000  Uiso   1.00
N1495  N     0.49999   0.83332   0.95240   0.00000  Uiso   1.00
N1496  N     0.50001   0.83334   0.71427   0.00000  Uiso   1.00
O1497  O     0.50000   0.77225   0.87154   0.00000  Uiso   1.00
O1498  O     0.53542   0.70800   0.91818   0.00000  Uiso   1.00
O1499  O     0.50000   0.89442   0.79513   0.00000  Uiso   1.00
O1500  O     0.50000   0.77226   0.79510   0.00000  Uiso   1.00
O1501  O     0.50000   0.89441   0.87157   0.00000  Uiso   1.00
O1502  O     0.42392   0.83333   0.86261   0.00000  Uiso   1.00
O1503  O     0.57608   0.83334   0.80405   0.00000  Uiso   1.00
O1504  O     0.42392   0.83334   0.78617   0.00000  Uiso   1.00
O1505  O     0.57608   0.83333   0.88050   0.00000  Uiso   1.00
O1506  O     0.51616   0.95985   0.75136   0.00000  Uiso   1.00
Zn1507 Zn    0.50000   0.83333   0.88437   0.00000  Uiso   1.00
Zn1508 Zn    0.50000   0.83334   0.78229   0.00000  Uiso   1.00
C1509  C     0.83578   0.75327   0.83367   0.00000  Uiso   1.00
C1510  C     0.85742   0.68792   0.87640   0.00000  Uiso   1.00
C1511  C     0.84656   0.95734   0.83424   0.00000  Uiso   1.00
C1512  C     0.84417   0.70929   0.83446   0.00000  Uiso   1.00
C1513  C     0.87708   0.84506   0.69624   0.00000  Uiso   1.00
C1514  C     0.78991   0.82078   0.97045   0.00000  Uiso   1.00
C1515  C     0.87694   0.84538   0.98165   0.00000  Uiso   1.00
C1516  C     0.78986   0.82092   0.68503   0.00000  Uiso   1.00
C1517  C     0.90246   0.94958   0.74852   0.00000  Uiso   1.00
C1518  C     0.93497   0.98778   0.73839   0.00000  Uiso   1.00
C1519  C     0.98958   0.97517   0.72930   0.00000  Uiso   1.00
C1520  C     0.83732   0.91331   0.83370   0.00000  Uiso   1.00
C1521  C     0.92068   0.72417   0.92358   0.00000  Uiso   1.00
C1522  C     0.96133   0.69049   0.93981   0.00000  Uiso   1.00
C1523  C     0.68274   0.70920   0.95317   0.00000  Uiso   1.00
C1524  C     0.73369   0.83332   0.82136   0.00000  Uiso   1.00
C1525  C     0.93297   0.83329   0.84531   0.00000  Uiso   1.00
C1526  C     0.67865   0.83332   0.81491   0.00000  Uiso   1.00
C1527  C     0.98800   0.83319   0.85177   0.00000  Uiso   1.00
C1528  C     0.84095   0.68809   0.79274   0.00000  Uiso   1.00
C1529  C     0.85488   0.97848   0.87619   0.00000  Uiso   1.00
C1530  C     0.84699   0.97914   0.79280   0.00000  Uiso   1.00
F1531  F     0.83275   0.70789   0.75149   0.00000  Uiso   1.00
F1532  F     0.86152   0.95804   0.91705   0.00000  Uiso   1.00
H1533  H     0.99137   0.83346   0.77993   0.00000  Uiso   1.00
H1534  H     0.93971   0.67591   0.76809   0.00000  Uiso   1.00
H1535  H     0.67788   0.95903   0.75972   0.00000  Uiso   1.00
H1536  H     0.67881   0.67000   0.72214   0.00000  Uiso   1.00
H1537  H     0.98653   0.95422   0.69921   0.00000  Uiso   1.00
H1538  H     0.92335   0.74885   0.95006   0.00000  Uiso   1.00
H1539  H     0.93045   0.73939   0.89190   0.00000  Uiso   1.00
H1540  H     0.94970   0.67390   0.96974   0.00000  Uiso   1.00
H1541  H     0.96271   0.66758   0.91197   0.00000  Uiso   1.00
H1542  H     0.69528   0.72573   0.92349   0.00000  Uiso   1.00
H1543  H     0.71130   0.68404   0.96426   0.00000  Uiso   1.00
H1544  H     0.67528   0.83303   0.88675   0.00000  Uiso   1.00
H1545  H     0.68294   0.73134   0.98197   0.00000  Uiso   1.00
H1546  H     0.91224   0.85424   0.71876   0.00000  Uiso   1.00
H1547  H     0.75520   0.81053   0.94797   0.00000  Uiso   1.00
H1548  H     0.91182   0.85516   0.96811   0.00000  Uiso   1.00
H1549  H     0.75510   0.81090   0.69860   0.00000  Uiso   1.00
H1550  H     0.90181   0.92769   0.71959   0.00000  Uiso   1.00
H1551  H     0.92192   0.93309   0.77980   0.00000  Uiso   1.00
H1552  H     0.91423   0.67121   0.70803   0.00000  Uiso   1.00
N1553  N     0.83332   0.83332   0.95240   0.00000  Uiso   1.00
N1554  N     0.83335   0.83334   0.71427   0.00000  Uiso   1.00
O1555  O     0.83333   0.77225   0.87154   0.00000  Uiso   1.00
O1556  O     0.86876   0.70800   0.91818   0.00000  Uiso   1.00
O1557  O     0.83334   0.89442   0.79513   0.00000  Uiso   1.00
O1558  O     0.83333   0.77226   0.79510   0.00000  Uiso   1.00
O1559  O     0.83334   0.89441   0.87157   0.00000  Uiso   1.00
O1560  O     0.75725   0.83333   0.86261   0.00000  Uiso   1.00
O1561  O     0.90942   0.83334   0.80405   0.00000  Uiso   1.00
O1562  O     0.75725   0.83334   0.78617   0.00000  Uiso   1.00
O1563  O     0.90942   0.83333   0.88050   0.00000  Uiso   1.00
O1564  O     0.84950   0.95985   0.75136   0.00000  Uiso   1.00
Zn1565 Zn    0.83333   0.83333   0.88437   0.00000  Uiso   1.00
Zn1566 Zn    0.83333   0.83334   0.78229   0.00000  Uiso   1.00
loop_
_geom_bond_atom_site_label_1
_geom_bond_atom_site_label_2
_geom_bond_distance
_geom_bond_site_symmetry_2
_ccdc_geom_bond_type
C1     C4      1.432   .     S
C1     O50     1.283   .     A
C1     O47     1.286   .     A
C2     C4      1.411   .     A
C2     O48     1.386   .     S
C2     C369    1.377   1_545 S
C3     C21     1.403   .     A
C3     C22     1.409   .     A
C3     C12     1.435   .     S
C4     C20     1.402   .     A
C5     H38     1.080   .     S
C5     N46     1.366   .     A
C5     C1051   1.414   1_554 S
C6     N45     1.367   .     A
C6     H39     1.081   .     S
C6     C530    1.415   .     S
C7     H40     1.081   .     S
C7     N45     1.366   .     A
C7     C527    1.414   .     S
C8     N46     1.366   .     A
C8     H41     1.081   .     S
C8     C1050   1.415   1_554 S
C9     C10     1.537   .     S
C9     O56     1.419   .     S
C9     H42     1.108   .     S
C9     H43     1.115   .     S
C10    C11     1.527   .     S
C10    H200    1.111   .     S
C10    H218    1.111   .     S
C11    H29     1.111   .     S
C11    H85     1.111   .     S
C11    H260    1.111   .     S
C12    O49     1.284   .     A
C12    O51     1.288   .     A
C13    O48     1.419   .     S
C13    C14     1.534   .     S
C13    H30     1.111   .     S
C13    H31     1.115   .     S
C14    H33     1.111   .     S
C14    H32     1.109   .     S
C14    C73     1.527   .     S
C15    H34     1.111   .     S
C15    H35     1.110   .     S
C15    H37     1.111   .     S
C15    C130    1.527   1_455 S
C16    O54     1.279   .     A
C16    C18     1.401   .     S
C16    O52     1.277   .     A
C17    O55     1.279   .     A
C17    C19     1.401   .     S
C17    O53     1.277   .     A
C18    C135    1.330   1_455 S
C18    H141    1.088   1_455 S
C19    C76     1.330   .     S
C19    H94     1.088   .     S
C20    F23     1.360   .     S
C20    C370    1.370   1_545 S
C21    F24     1.360   .     S
C21    C176    1.377   .     S
C22    O56     1.385   .     S
C22    C194    1.370   .     S
H25    C76     1.088   .     S
H26    C358    1.111   1_545 S
H27    C127    1.111   1_455 S
H28    C475    1.111   1_445 S
H36    C135    1.088   1_455 S
H44    C358    1.111   1_545 S
N45    Zn57    2.009   .     S
N46    Zn58    2.009   .     S
O47    Zn57    2.003   .     S
O49    Zn58    2.003   .     S
O50    Zn58    1.999   .     S
O51    Zn57    1.999   .     S
O52    Zn57    1.967   .     S
O53    Zn58    1.967   .     S
O54    Zn58    1.979   .     S
O55    Zn57    1.979   .     S
C59    C62     1.432   .     S
C59    O108    1.283   .     A
C59    O105    1.286   .     A
C60    C62     1.411   .     A
C60    O106    1.386   .     S
C60    C427    1.377   1_545 S
C61    C79     1.403   .     A
C61    C80     1.409   .     A
C61    C70     1.435   .     S
C62    C78     1.402   .     A
C63    H96     1.080   .     S
C63    N104    1.366   .     A
C63    C1109   1.414   1_554 S
C64    N103    1.367   .     A
C64    H97     1.081   .     S
C64    C588    1.415   .     S
C65    H98     1.081   .     S
C65    N103    1.366   .     A
C65    C585    1.414   .     S
C66    N104    1.366   .     A
C66    H99     1.081   .     S
C66    C1108   1.415   1_554 S
C67    C68     1.537   .     S
C67    O114    1.419   .     S
C67    H100    1.108   .     S
C67    H101    1.115   .     S
C68    C69     1.527   .     S
C68    H258    1.111   .     S
C68    H276    1.111   .     S
C69    H87     1.111   .     S
C69    H143    1.111   .     S
C69    H318    1.111   .     S
C70    O107    1.284   .     A
C70    O109    1.288   .     A
C71    O106    1.419   .     S
C71    C72     1.534   .     S
C71    H88     1.111   .     S
C71    H89     1.115   .     S
C72    H91     1.111   .     S
C72    H90     1.109   .     S
C72    C131    1.527   .     S
C73    H92     1.111   .     S
C73    H93     1.110   .     S
C73    H95     1.111   .     S
C74    O112    1.279   .     A
C74    C76     1.401   .     S
C74    O110    1.277   .     A
C75    O113    1.279   .     A
C75    C77     1.401   .     S
C75    O111    1.277   .     A
C77    C134    1.330   .     S
C77    H152    1.088   .     S
C78    F81     1.360   .     S
C78    C428    1.370   1_545 S
C79    F82     1.360   .     S
C79    C234    1.377   .     S
C80    O114    1.385   .     S
C80    C252    1.370   .     S
H83    C134    1.088   .     S
H84    C416    1.111   1_545 S
H86    C359    1.111   1_545 S
H102   C416    1.111   1_545 S
N103   Zn115   2.009   .     S
N104   Zn116   2.009   .     S
O105   Zn115   2.003   .     S
O107   Zn116   2.003   .     S
O108   Zn116   1.999   .     S
O109   Zn115   1.999   .     S
O110   Zn115   1.967   .     S
O111   Zn116   1.967   .     S
O112   Zn116   1.979   .     S
O113   Zn115   1.979   .     S
C117   C120    1.432   .     S
C117   O166    1.283   .     A
C117   O163    1.286   .     A
C118   C120    1.411   .     A
C118   O164    1.386   .     S
C118   C485    1.377   1_545 S
C119   C137    1.403   .     A
C119   C138    1.409   .     A
C119   C128    1.435   .     S
C120   C136    1.402   .     A
C121   H154    1.080   .     S
C121   N162    1.366   .     A
C121   C1167   1.414   1_554 S
C122   N161    1.367   .     A
C122   H155    1.081   .     S
C122   C646    1.415   .     S
C123   H156    1.081   .     S
C123   N161    1.366   .     A
C123   C643    1.414   .     S
C124   N162    1.366   .     A
C124   H157    1.081   .     S
C124   C1166   1.415   1_554 S
C125   C126    1.537   .     S
C125   O172    1.419   .     S
C125   H158    1.108   .     S
C125   H159    1.115   .     S
C126   C127    1.527   .     S
C126   H316    1.111   .     S
C126   H334    1.111   .     S
C127   H145    1.111   .     S
C127   H27     1.111   1_655 S
C127   H202    1.111   1_655 S
C128   O165    1.284   .     A
C128   O167    1.288   .     A
C129   O164    1.419   .     S
C129   C130    1.534   .     S
C129   H146    1.111   .     S
C129   H147    1.115   .     S
C130   H149    1.111   .     S
C130   H148    1.109   .     S
C130   C15     1.527   1_655 S
C131   H150    1.111   .     S
C131   H151    1.110   .     S
C131   H153    1.111   .     S
C132   O170    1.279   .     A
C132   C134    1.401   .     S
C132   O168    1.277   .     A
C133   O171    1.279   .     A
C133   C135    1.401   .     S
C133   O169    1.277   .     A
C135   C18     1.330   1_655 S
C135   H36     1.088   1_655 S
C136   F139    1.360   .     S
C136   C486    1.370   1_545 S
C137   F140    1.360   .     S
C137   C292    1.377   .     S
C138   O172    1.385   .     S
C138   C310    1.370   .     S
H141   C18     1.088   1_655 S
H142   C474    1.111   1_545 S
H144   C417    1.111   1_545 S
H160   C474    1.111   1_545 S
N161   Zn173   2.009   .     S
N162   Zn174   2.009   .     S
O163   Zn173   2.003   .     S
O165   Zn174   2.003   .     S
O166   Zn174   1.999   .     S
O167   Zn173   1.999   .     S
O168   Zn173   1.967   .     S
O169   Zn174   1.967   .     S
O170   Zn174   1.979   .     S
O171   Zn173   1.979   .     S
C175   C178    1.432   .     S
C175   O224    1.283   .     A
C175   O221    1.286   .     A
C176   C178    1.411   .     A
C176   O222    1.386   .     S
C177   C195    1.403   .     A
C177   C196    1.409   .     A
C177   C186    1.435   .     S
C178   C194    1.402   .     A
C179   H212    1.080   .     S
C179   N220    1.366   .     A
C179   C1225   1.414   1_554 S
C180   N219    1.367   .     A
C180   H213    1.081   .     S
C180   C704    1.415   .     S
C181   H214    1.081   .     S
C181   N219    1.366   .     A
C181   C701    1.414   .     S
C182   N220    1.366   .     A
C182   H215    1.081   .     S
C182   C1224   1.415   1_554 S
C183   C184    1.537   .     S
C183   O230    1.419   .     S
C183   H216    1.108   .     S
C183   H217    1.115   .     S
C184   C185    1.527   .     S
C184   H374    1.111   .     S
C184   H392    1.111   .     S
C185   H203    1.111   .     S
C185   H259    1.111   .     S
C185   H434    1.111   .     S
C186   O223    1.284   .     A
C186   O225    1.288   .     A
C187   O222    1.419   .     S
C187   C188    1.534   .     S
C187   H204    1.111   .     S
C187   H205    1.115   .     S
C188   H207    1.111   .     S
C188   H206    1.109   .     S
C188   C247    1.527   .     S
C189   H208    1.111   .     S
C189   H209    1.110   .     S
C189   H211    1.111   .     S
C189   C304    1.527   1_455 S
C190   O228    1.279   .     A
C190   C192    1.401   .     S
C190   O226    1.277   .     A
C191   O229    1.279   .     A
C191   C193    1.401   .     S
C191   O227    1.277   .     A
C192   C309    1.330   1_455 S
C192   H315    1.088   1_455 S
C193   C250    1.330   .     S
C193   H268    1.088   .     S
C194   F197    1.360   .     S
C195   F198    1.360   .     S
C195   C350    1.377   .     S
C196   O230    1.385   .     S
C196   C368    1.370   .     S
H199   C250    1.088   .     S
H201   C301    1.111   1_455 S
H202   C127    1.111   1_455 S
H210   C309    1.088   1_455 S
N219   Zn231   2.009   .     S
N220   Zn232   2.009   .     S
O221   Zn231   2.003   .     S
O223   Zn232   2.003   .     S
O224   Zn232   1.999   .     S
O225   Zn231   1.999   .     S
O226   Zn231   1.967   .     S
O227   Zn232   1.967   .     S
O228   Zn232   1.979   .     S
O229   Zn231   1.979   .     S
C233   C236    1.432   .     S
C233   O282    1.283   .     A
C233   O279    1.286   .     A
C234   C236    1.411   .     A
C234   O280    1.386   .     S
C235   C253    1.403   .     A
C235   C254    1.409   .     A
C235   C244    1.435   .     S
C236   C252    1.402   .     A
C237   H270    1.080   .     S
C237   N278    1.366   .     A
C237   C1283   1.414   1_554 S
C238   N277    1.367   .     A
C238   H271    1.081   .     S
C238   C762    1.415   .     S
C239   H272    1.081   .     S
C239   N277    1.366   .     A
C239   C759    1.414   .     S
C240   N278    1.366   .     A
C240   H273    1.081   .     S
C240   C1282   1.415   1_554 S
C241   C242    1.537   .     S
C241   O288    1.419   .     S
C241   H274    1.108   .     S
C241   H275    1.115   .     S
C242   C243    1.527   .     S
C242   H432    1.111   .     S
C242   H450    1.111   .     S
C243   H261    1.111   .     S
C243   H317    1.111   .     S
C243   H492    1.111   .     S
C244   O281    1.284   .     A
C244   O283    1.288   .     A
C245   O280    1.419   .     S
C245   C246    1.534   .     S
C245   H262    1.111   .     S
C245   H263    1.115   .     S
C246   H265    1.111   .     S
C246   H264    1.109   .     S
C246   C305    1.527   .     S
C247   H266    1.111   .     S
C247   H267    1.110   .     S
C247   H269    1.111   .     S
C248   O286    1.279   .     A
C248   C250    1.401   .     S
C248   O284    1.277   .     A
C249   O287    1.279   .     A
C249   C251    1.401   .     S
C249   O285    1.277   .     A
C251   C308    1.330   .     S
C251   H326    1.088   .     S
C252   F255    1.360   .     S
C253   F256    1.360   .     S
C253   C408    1.377   .     S
C254   O288    1.385   .     S
C254   C426    1.370   .     S
H257   C308    1.088   .     S
N277   Zn289   2.009   .     S
N278   Zn290   2.009   .     S
O279   Zn289   2.003   .     S
O281   Zn290   2.003   .     S
O282   Zn290   1.999   .     S
O283   Zn289   1.999   .     S
O284   Zn289   1.967   .     S
O285   Zn290   1.967   .     S
O286   Zn290   1.979   .     S
O287   Zn289   1.979   .     S
C291   C294    1.432   .     S
C291   O340    1.283   .     A
C291   O337    1.286   .     A
C292   C294    1.411   .     A
C292   O338    1.386   .     S
C293   C311    1.403   .     A
C293   C312    1.409   .     A
C293   C302    1.435   .     S
C294   C310    1.402   .     A
C295   H328    1.080   .     S
C295   N336    1.366   .     A
C295   C1341   1.414   1_554 S
C296   N335    1.367   .     A
C296   H329    1.081   .     S
C296   C820    1.415   .     S
C297   H330    1.081   .     S
C297   N335    1.366   .     A
C297   C817    1.414   .     S
C298   N336    1.366   .     A
C298   H331    1.081   .     S
C298   C1340   1.415   1_554 S
C299   C300    1.537   .     S
C299   O346    1.419   .     S
C299   H332    1.108   .     S
C299   H333    1.115   .     S
C300   C301    1.527   .     S
C300   H490    1.111   .     S
C300   H508    1.111   .     S
C301   H319    1.111   .     S
C301   H201    1.111   1_655 S
C301   H376    1.111   1_655 S
C302   O339    1.284   .     A
C302   O341    1.288   .     A
C303   O338    1.419   .     S
C303   C304    1.534   .     S
C303   H320    1.111   .     S
C303   H321    1.115   .     S
C304   H323    1.111   .     S
C304   H322    1.109   .     S
C304   C189    1.527   1_655 S
C305   H324    1.111   .     S
C305   H325    1.110   .     S
C305   H327    1.111   .     S
C306   O344    1.279   .     A
C306   C308    1.401   .     S
C306   O342    1.277   .     A
C307   O345    1.279   .     A
C307   C309    1.401   .     S
C307   O343    1.277   .     A
C309   C192    1.330   1_655 S
C309   H210    1.088   1_655 S
C310   F313    1.360   .     S
C311   F314    1.360   .     S
C311   C466    1.377   .     S
C312   O346    1.385   .     S
C312   C484    1.370   .     S
H315   C192    1.088   1_655 S
N335   Zn347   2.009   .     S
N336   Zn348   2.009   .     S
O337   Zn347   2.003   .     S
O339   Zn348   2.003   .     S
O340   Zn348   1.999   .     S
O341   Zn347   1.999   .     S
O342   Zn347   1.967   .     S
O343   Zn348   1.967   .     S
O344   Zn348   1.979   .     S
O345   Zn347   1.979   .     S
C349   C352    1.432   .     S
C349   O398    1.283   .     A
C349   O395    1.286   .     A
C350   C352    1.411   .     A
C350   O396    1.386   .     S
C351   C369    1.403   .     A
C351   C370    1.409   .     A
C351   C360    1.435   .     S
C352   C368    1.402   .     A
C353   H386    1.080   .     S
C353   N394    1.366   .     A
C353   C1399   1.414   1_554 S
C354   N393    1.367   .     A
C354   H387    1.081   .     S
C354   C878    1.415   .     S
C355   H388    1.081   .     S
C355   N393    1.366   .     A
C355   C875    1.414   .     S
C356   N394    1.366   .     A
C356   H389    1.081   .     S
C356   C1398   1.415   1_554 S
C357   C358    1.537   .     S
C357   O404    1.419   .     S
C357   H390    1.108   .     S
C357   H391    1.115   .     S
C358   C359    1.527   .     S
C358   H26     1.111   1_565 S
C358   H44     1.111   1_565 S
C359   H377    1.111   .     S
C359   H433    1.111   .     S
C359   H86     1.111   1_565 S
C360   O397    1.284   .     A
C360   O399    1.288   .     A
C361   O396    1.419   .     S
C361   C362    1.534   .     S
C361   H378    1.111   .     S
C361   H379    1.115   .     S
C362   H381    1.111   .     S
C362   H380    1.109   .     S
C362   C421    1.527   .     S
C363   H382    1.111   .     S
C363   H383    1.110   .     S
C363   H385    1.111   .     S
C363   C478    1.527   1_455 S
C364   O402    1.279   .     A
C364   C366    1.401   .     S
C364   O400    1.277   .     A
C365   O403    1.279   .     A
C365   C367    1.401   .     S
C365   O401    1.277   .     A
C366   C483    1.330   1_455 S
C366   H489    1.088   1_455 S
C367   C424    1.330   .     S
C367   H442    1.088   .     S
C368   F371    1.360   .     S
C369   F372    1.360   .     S
C369   C2      1.377   1_565 S
C370   O404    1.385   .     S
C370   C20     1.370   1_565 S
H373   C424    1.088   .     S
H375   C475    1.111   1_455 S
H376   C301    1.111   1_455 S
H384   C483    1.088   1_455 S
N393   Zn405   2.009   .     S
N394   Zn406   2.009   .     S
O395   Zn405   2.003   .     S
O397   Zn406   2.003   .     S
O398   Zn406   1.999   .     S
O399   Zn405   1.999   .     S
O400   Zn405   1.967   .     S
O401   Zn406   1.967   .     S
O402   Zn406   1.979   .     S
O403   Zn405   1.979   .     S
C407   C410    1.432   .     S
C407   O456    1.283   .     A
C407   O453    1.286   .     A
C408   C410    1.411   .     A
C408   O454    1.386   .     S
C409   C427    1.403   .     A
C409   C428    1.409   .     A
C409   C418    1.435   .     S
C410   C426    1.402   .     A
C411   H444    1.080   .     S
C411   N452    1.366   .     A
C411   C1457   1.414   1_554 S
C412   N451    1.367   .     A
C412   H445    1.081   .     S
C412   C936    1.415   .     S
C413   H446    1.081   .     S
C413   N451    1.366   .     A
C413   C933    1.414   .     S
C414   N452    1.366   .     A
C414   H447    1.081   .     S
C414   C1456   1.415   1_554 S
C415   C416    1.537   .     S
C415   O462    1.419   .     S
C415   H448    1.108   .     S
C415   H449    1.115   .     S
C416   C417    1.527   .     S
C416   H84     1.111   1_565 S
C416   H102    1.111   1_565 S
C417   H435    1.111   .     S
C417   H491    1.111   .     S
C417   H144    1.111   1_565 S
C418   O455    1.284   .     A
C418   O457    1.288   .     A
C419   O454    1.419   .     S
C419   C420    1.534   .     S
C419   H436    1.111   .     S
C419   H437    1.115   .     S
C420   H439    1.111   .     S
C420   H438    1.109   .     S
C420   C479    1.527   .     S
C421   H440    1.111   .     S
C421   H441    1.110   .     S
C421   H443    1.111   .     S
C422   O460    1.279   .     A
C422   C424    1.401   .     S
C422   O458    1.277   .     A
C423   O461    1.279   .     A
C423   C425    1.401   .     S
C423   O459    1.277   .     A
C425   C482    1.330   .     S
C425   H500    1.088   .     S
C426   F429    1.360   .     S
C427   F430    1.360   .     S
C427   C60     1.377   1_565 S
C428   O462    1.385   .     S
C428   C78     1.370   1_565 S
H431   C482    1.088   .     S
N451   Zn463   2.009   .     S
N452   Zn464   2.009   .     S
O453   Zn463   2.003   .     S
O455   Zn464   2.003   .     S
O456   Zn464   1.999   .     S
O457   Zn463   1.999   .     S
O458   Zn463   1.967   .     S
O459   Zn464   1.967   .     S
O460   Zn464   1.979   .     S
O461   Zn463   1.979   .     S
C465   C468    1.432   .     S
C465   O514    1.283   .     A
C465   O511    1.286   .     A
C466   C468    1.411   .     A
C466   O512    1.386   .     S
C467   C485    1.403   .     A
C467   C486    1.409   .     A
C467   C476    1.435   .     S
C468   C484    1.402   .     A
C469   H502    1.080   .     S
C469   N510    1.366   .     A
C469   C1515   1.414   1_554 S
C470   N509    1.367   .     A
C470   H503    1.081   .     S
C470   C994    1.415   .     S
C471   H504    1.081   .     S
C471   N509    1.366   .     A
C471   C991    1.414   .     S
C472   N510    1.366   .     A
C472   H505    1.081   .     S
C472   C1514   1.415   1_554 S
C473   C474    1.537   .     S
C473   O520    1.419   .     S
C473   H506    1.108   .     S
C473   H507    1.115   .     S
C474   C475    1.527   .     S
C474   H142    1.111   1_565 S
C474   H160    1.111   1_565 S
C475   H493    1.111   .     S
C475   H375    1.111   1_655 S
C475   H28     1.111   1_665 S
C476   O513    1.284   .     A
C476   O515    1.288   .     A
C477   O512    1.419   .     S
C477   C478    1.534   .     S
C477   H494    1.111   .     S
C477   H495    1.115   .     S
C478   H497    1.111   .     S
C478   H496    1.109   .     S
C478   C363    1.527   1_655 S
C479   H498    1.111   .     S
C479   H499    1.110   .     S
C479   H501    1.111   .     S
C480   O518    1.279   .     A
C480   C482    1.401   .     S
C480   O516    1.277   .     A
C481   O519    1.279   .     A
C481   C483    1.401   .     S
C481   O517    1.277   .     A
C483   C366    1.330   1_655 S
C483   H384    1.088   1_655 S
C484   F487    1.360   .     S
C485   F488    1.360   .     S
C485   C118    1.377   1_565 S
C486   O520    1.385   .     S
C486   C136    1.370   1_565 S
H489   C366    1.088   1_655 S
N509   Zn521   2.009   .     S
N510   Zn522   2.009   .     S
O511   Zn521   2.003   .     S
O513   Zn522   2.003   .     S
O514   Zn522   1.999   .     S
O515   Zn521   1.999   .     S
O516   Zn521   1.967   .     S
O517   Zn522   1.967   .     S
O518   Zn522   1.979   .     S
O519   Zn521   1.979   .     S
C523   C526    1.432   .     S
C523   O572    1.283   .     A
C523   O569    1.286   .     A
C524   C526    1.411   .     A
C524   O570    1.386   .     S
C524   C891    1.377   1_545 S
C525   C543    1.403   .     A
C525   C544    1.409   .     A
C525   C534    1.435   .     S
C526   C542    1.402   .     A
C527   H560    1.080   .     S
C527   N568    1.366   .     A
C528   N567    1.367   .     A
C528   H561    1.081   .     S
C528   C1052   1.415   .     S
C529   H562    1.081   .     S
C529   N567    1.366   .     A
C529   C1049   1.414   .     S
C530   N568    1.366   .     A
C530   H563    1.081   .     S
C531   C532    1.537   .     S
C531   O578    1.419   .     S
C531   H564    1.108   .     S
C531   H565    1.115   .     S
C532   C533    1.527   .     S
C532   H722    1.111   .     S
C532   H740    1.111   .     S
C533   H551    1.111   .     S
C533   H607    1.111   .     S
C533   H782    1.111   .     S
C534   O571    1.284   .     A
C534   O573    1.288   .     A
C535   O570    1.419   .     S
C535   C536    1.534   .     S
C535   H552    1.111   .     S
C535   H553    1.115   .     S
C536   H555    1.111   .     S
C536   H554    1.109   .     S
C536   C595    1.527   .     S
C537   H556    1.111   .     S
C537   H557    1.110   .     S
C537   H559    1.111   .     S
C537   C652    1.527   1_455 S
C538   O576    1.279   .     A
C538   C540    1.401   .     S
C538   O574    1.277   .     A
C539   O577    1.279   .     A
C539   C541    1.401   .     S
C539   O575    1.277   .     A
C540   C657    1.330   1_455 S
C540   H663    1.088   1_455 S
C541   C598    1.330   .     S
C541   H616    1.088   .     S
C542   F545    1.360   .     S
C542   C892    1.370   1_545 S
C543   F546    1.360   .     S
C543   C698    1.377   .     S
C544   O578    1.385   .     S
C544   C716    1.370   .     S
H547   C598    1.088   .     S
H548   C880    1.111   1_545 S
H549   C649    1.111   1_455 S
H550   C997    1.111   1_445 S
H558   C657    1.088   1_455 S
H566   C880    1.111   1_545 S
N567   Zn579   2.009   .     S
N568   Zn580   2.009   .     S
O569   Zn579   2.003   .     S
O571   Zn580   2.003   .     S
O572   Zn580   1.999   .     S
O573   Zn579   1.999   .     S
O574   Zn579   1.967   .     S
O575   Zn580   1.967   .     S
O576   Zn580   1.979   .     S
O577   Zn579   1.979   .     S
C581   C584    1.432   .     S
C581   O630    1.283   .     A
C581   O627    1.286   .     A
C582   C584    1.411   .     A
C582   O628    1.386   .     S
C582   C949    1.377   1_545 S
C583   C601    1.403   .     A
C583   C602    1.409   .     A
C583   C592    1.435   .     S
C584   C600    1.402   .     A
C585   H618    1.080   .     S
C585   N626    1.366   .     A
C586   N625    1.367   .     A
C586   H619    1.081   .     S
C586   C1110   1.415   .     S
C587   H620    1.081   .     S
C587   N625    1.366   .     A
C587   C1107   1.414   .     S
C588   N626    1.366   .     A
C588   H621    1.081   .     S
C589   C590    1.537   .     S
C589   O636    1.419   .     S
C589   H622    1.108   .     S
C589   H623    1.115   .     S
C590   C591    1.527   .     S
C590   H780    1.111   .     S
C590   H798    1.111   .     S
C591   H609    1.111   .     S
C591   H665    1.111   .     S
C591   H840    1.111   .     S
C592   O629    1.284   .     A
C592   O631    1.288   .     A
C593   O628    1.419   .     S
C593   C594    1.534   .     S
C593   H610    1.111   .     S
C593   H611    1.115   .     S
C594   H613    1.111   .     S
C594   H612    1.109   .     S
C594   C653    1.527   .     S
C595   H614    1.111   .     S
C595   H615    1.110   .     S
C595   H617    1.111   .     S
C596   O634    1.279   .     A
C596   C598    1.401   .     S
C596   O632    1.277   .     A
C597   O635    1.279   .     A
C597   C599    1.401   .     S
C597   O633    1.277   .     A
C599   C656    1.330   .     S
C599   H674    1.088   .     S
C600   F603    1.360   .     S
C600   C950    1.370   1_545 S
C601   F604    1.360   .     S
C601   C756    1.377   .     S
C602   O636    1.385   .     S
C602   C774    1.370   .     S
H605   C656    1.088   .     S
H606   C938    1.111   1_545 S
H608   C881    1.111   1_545 S
H624   C938    1.111   1_545 S
N625   Zn637   2.009   .     S
N626   Zn638   2.009   .     S
O627   Zn637   2.003   .     S
O629   Zn638   2.003   .     S
O630   Zn638   1.999   .     S
O631   Zn637   1.999   .     S
O632   Zn637   1.967   .     S
O633   Zn638   1.967   .     S
O634   Zn638   1.979   .     S
O635   Zn637   1.979   .     S
C639   C642    1.432   .     S
C639   O688    1.283   .     A
C639   O685    1.286   .     A
C640   C642    1.411   .     A
C640   O686    1.386   .     S
C640   C1007   1.377   1_545 S
C641   C659    1.403   .     A
C641   C660    1.409   .     A
C641   C650    1.435   .     S
C642   C658    1.402   .     A
C643   H676    1.080   .     S
C643   N684    1.366   .     A
C644   N683    1.367   .     A
C644   H677    1.081   .     S
C644   C1168   1.415   .     S
C645   H678    1.081   .     S
C645   N683    1.366   .     A
C645   C1165   1.414   .     S
C646   N684    1.366   .     A
C646   H679    1.081   .     S
C647   C648    1.537   .     S
C647   O694    1.419   .     S
C647   H680    1.108   .     S
C647   H681    1.115   .     S
C648   C649    1.527   .     S
C648   H838    1.111   .     S
C648   H856    1.111   .     S
C649   H667    1.111   .     S
C649   H549    1.111   1_655 S
C649   H724    1.111   1_655 S
C650   O687    1.284   .     A
C650   O689    1.288   .     A
C651   O686    1.419   .     S
C651   C652    1.534   .     S
C651   H668    1.111   .     S
C651   H669    1.115   .     S
C652   H671    1.111   .     S
C652   H670    1.109   .     S
C652   C537    1.527   1_655 S
C653   H672    1.111   .     S
C653   H673    1.110   .     S
C653   H675    1.111   .     S
C654   O692    1.279   .     A
C654   C656    1.401   .     S
C654   O690    1.277   .     A
C655   O693    1.279   .     A
C655   C657    1.401   .     S
C655   O691    1.277   .     A
C657   C540    1.330   1_655 S
C657   H558    1.088   1_655 S
C658   F661    1.360   .     S
C658   C1008   1.370   1_545 S
C659   F662    1.360   .     S
C659   C814    1.377   .     S
C660   O694    1.385   .     S
C660   C832    1.370   .     S
H663   C540    1.088   1_655 S
H664   C996    1.111   1_545 S
H666   C939    1.111   1_545 S
H682   C996    1.111   1_545 S
N683   Zn695   2.009   .     S
N684   Zn696   2.009   .     S
O685   Zn695   2.003   .     S
O687   Zn696   2.003   .     S
O688   Zn696   1.999   .     S
O689   Zn695   1.999   .     S
O690   Zn695   1.967   .     S
O691   Zn696   1.967   .     S
O692   Zn696   1.979   .     S
O693   Zn695   1.979   .     S
C697   C700    1.432   .     S
C697   O746    1.283   .     A
C697   O743    1.286   .     A
C698   C700    1.411   .     A
C698   O744    1.386   .     S
C699   C717    1.403   .     A
C699   C718    1.409   .     A
C699   C708    1.435   .     S
C700   C716    1.402   .     A
C701   H734    1.080   .     S
C701   N742    1.366   .     A
C702   N741    1.367   .     A
C702   H735    1.081   .     S
C702   C1226   1.415   .     S
C703   H736    1.081   .     S
C703   N741    1.366   .     A
C703   C1223   1.414   .     S
C704   N742    1.366   .     A
C704   H737    1.081   .     S
C705   C706    1.537   .     S
C705   O752    1.419   .     S
C705   H738    1.108   .     S
C705   H739    1.115   .     S
C706   C707    1.527   .     S
C706   H896    1.111   .     S
C706   H914    1.111   .     S
C707   H725    1.111   .     S
C707   H781    1.111   .     S
C707   H956    1.111   .     S
C708   O745    1.284   .     A
C708   O747    1.288   .     A
C709   O744    1.419   .     S
C709   C710    1.534   .     S
C709   H726    1.111   .     S
C709   H727    1.115   .     S
C710   H729    1.111   .     S
C710   H728    1.109   .     S
C710   C769    1.527   .     S
C711   H730    1.111   .     S
C711   H731    1.110   .     S
C711   H733    1.111   .     S
C711   C826    1.527   1_455 S
C712   O750    1.279   .     A
C712   C714    1.401   .     S
C712   O748    1.277   .     A
C713   O751    1.279   .     A
C713   C715    1.401   .     S
C713   O749    1.277   .     A
C714   C831    1.330   1_455 S
C714   H837    1.088   1_455 S
C715   C772    1.330   .     S
C715   H790    1.088   .     S
C716   F719    1.360   .     S
C717   F720    1.360   .     S
C717   C872    1.377   .     S
C718   O752    1.385   .     S
C718   C890    1.370   .     S
H721   C772    1.088   .     S
H723   C823    1.111   1_455 S
H724   C649    1.111   1_455 S
H732   C831    1.088   1_455 S
N741   Zn753   2.009   .     S
N742   Zn754   2.009   .     S
O743   Zn753   2.003   .     S
O745   Zn754   2.003   .     S
O746   Zn754   1.999   .     S
O747   Zn753   1.999   .     S
O748   Zn753   1.967   .     S
O749   Zn754   1.967   .     S
O750   Zn754   1.979   .     S
O751   Zn753   1.979   .     S
C755   C758    1.432   .     S
C755   O804    1.283   .     A
C755   O801    1.286   .     A
C756   C758    1.411   .     A
C756   O802    1.386   .     S
C757   C775    1.403   .     A
C757   C776    1.409   .     A
C757   C766    1.435   .     S
C758   C774    1.402   .     A
C759   H792    1.080   .     S
C759   N800    1.366   .     A
C760   N799    1.367   .     A
C760   H793    1.081   .     S
C760   C1284   1.415   .     S
C761   H794    1.081   .     S
C761   N799    1.366   .     A
C761   C1281   1.414   .     S
C762   N800    1.366   .     A
C762   H795    1.081   .     S
C763   C764    1.537   .     S
C763   O810    1.419   .     S
C763   H796    1.108   .     S
C763   H797    1.115   .     S
C764   C765    1.527   .     S
C764   H954    1.111   .     S
C764   H972    1.111   .     S
C765   H783    1.111   .     S
C765   H839    1.111   .     S
C765   H1014   1.111   .     S
C766   O803    1.284   .     A
C766   O805    1.288   .     A
C767   O802    1.419   .     S
C767   C768    1.534   .     S
C767   H784    1.111   .     S
C767   H785    1.115   .     S
C768   H787    1.111   .     S
C768   H786    1.109   .     S
C768   C827    1.527   .     S
C769   H788    1.111   .     S
C769   H789    1.110   .     S
C769   H791    1.111   .     S
C770   O808    1.279   .     A
C770   C772    1.401   .     S
C770   O806    1.277   .     A
C771   O809    1.279   .     A
C771   C773    1.401   .     S
C771   O807    1.277   .     A
C773   C830    1.330   .     S
C773   H848    1.088   .     S
C774   F777    1.360   .     S
C775   F778    1.360   .     S
C775   C930    1.377   .     S
C776   O810    1.385   .     S
C776   C948    1.370   .     S
H779   C830    1.088   .     S
N799   Zn811   2.009   .     S
N800   Zn812   2.009   .     S
O801   Zn811   2.003   .     S
O803   Zn812   2.003   .     S
O804   Zn812   1.999   .     S
O805   Zn811   1.999   .     S
O806   Zn811   1.967   .     S
O807   Zn812   1.967   .     S
O808   Zn812   1.979   .     S
O809   Zn811   1.979   .     S
C813   C816    1.432   .     S
C813   O862    1.283   .     A
C813   O859    1.286   .     A
C814   C816    1.411   .     A
C814   O860    1.386   .     S
C815   C833    1.403   .     A
C815   C834    1.409   .     A
C815   C824    1.435   .     S
C816   C832    1.402   .     A
C817   H850    1.080   .     S
C817   N858    1.366   .     A
C818   N857    1.367   .     A
C818   H851    1.081   .     S
C818   C1342   1.415   .     S
C819   H852    1.081   .     S
C819   N857    1.366   .     A
C819   C1339   1.414   .     S
C820   N858    1.366   .     A
C820   H853    1.081   .     S
C821   C822    1.537   .     S
C821   O868    1.419   .     S
C821   H854    1.108   .     S
C821   H855    1.115   .     S
C822   C823    1.527   .     S
C822   H1012   1.111   .     S
C822   H1030   1.111   .     S
C823   H841    1.111   .     S
C823   H723    1.111   1_655 S
C823   H898    1.111   1_655 S
C824   O861    1.284   .     A
C824   O863    1.288   .     A
C825   O860    1.419   .     S
C825   C826    1.534   .     S
C825   H842    1.111   .     S
C825   H843    1.115   .     S
C826   H845    1.111   .     S
C826   H844    1.109   .     S
C826   C711    1.527   1_655 S
C827   H846    1.111   .     S
C827   H847    1.110   .     S
C827   H849    1.111   .     S
C828   O866    1.279   .     A
C828   C830    1.401   .     S
C828   O864    1.277   .     A
C829   O867    1.279   .     A
C829   C831    1.401   .     S
C829   O865    1.277   .     A
C831   C714    1.330   1_655 S
C831   H732    1.088   1_655 S
C832   F835    1.360   .     S
C833   F836    1.360   .     S
C833   C988    1.377   .     S
C834   O868    1.385   .     S
C834   C1006   1.370   .     S
H837   C714    1.088   1_655 S
N857   Zn869   2.009   .     S
N858   Zn870   2.009   .     S
O859   Zn869   2.003   .     S
O861   Zn870   2.003   .     S
O862   Zn870   1.999   .     S
O863   Zn869   1.999   .     S
O864   Zn869   1.967   .     S
O865   Zn870   1.967   .     S
O866   Zn870   1.979   .     S
O867   Zn869   1.979   .     S
C871   C874    1.432   .     S
C871   O920    1.283   .     A
C871   O917    1.286   .     A
C872   C874    1.411   .     A
C872   O918    1.386   .     S
C873   C891    1.403   .     A
C873   C892    1.409   .     A
C873   C882    1.435   .     S
C874   C890    1.402   .     A
C875   H908    1.080   .     S
C875   N916    1.366   .     A
C876   N915    1.367   .     A
C876   H909    1.081   .     S
C876   C1400   1.415   .     S
C877   H910    1.081   .     S
C877   N915    1.366   .     A
C877   C1397   1.414   .     S
C878   N916    1.366   .     A
C878   H911    1.081   .     S
C879   C880    1.537   .     S
C879   O926    1.419   .     S
C879   H912    1.108   .     S
C879   H913    1.115   .     S
C880   C881    1.527   .     S
C880   H548    1.111   1_565 S
C880   H566    1.111   1_565 S
C881   H899    1.111   .     S
C881   H955    1.111   .     S
C881   H608    1.111   1_565 S
C882   O919    1.284   .     A
C882   O921    1.288   .     A
C883   O918    1.419   .     S
C883   C884    1.534   .     S
C883   H900    1.111   .     S
C883   H901    1.115   .     S
C884   H903    1.111   .     S
C884   H902    1.109   .     S
C884   C943    1.527   .     S
C885   H904    1.111   .     S
C885   H905    1.110   .     S
C885   H907    1.111   .     S
C885   C1000   1.527   1_455 S
C886   O924    1.279   .     A
C886   C888    1.401   .     S
C886   O922    1.277   .     A
C887   O925    1.279   .     A
C887   C889    1.401   .     S
C887   O923    1.277   .     A
C888   C1005   1.330   1_455 S
C888   H1011   1.088   1_455 S
C889   C946    1.330   .     S
C889   H964    1.088   .     S
C890   F893    1.360   .     S
C891   F894    1.360   .     S
C891   C524    1.377   1_565 S
C892   O926    1.385   .     S
C892   C542    1.370   1_565 S
H895   C946    1.088   .     S
H897   C997    1.111   1_455 S
H898   C823    1.111   1_455 S
H906   C1005   1.088   1_455 S
N915   Zn927   2.009   .     S
N916   Zn928   2.009   .     S
O917   Zn927   2.003   .     S
O919   Zn928   2.003   .     S
O920   Zn928   1.999   .     S
O921   Zn927   1.999   .     S
O922   Zn927   1.967   .     S
O923   Zn928   1.967   .     S
O924   Zn928   1.979   .     S
O925   Zn927   1.979   .     S
C929   C932    1.432   .     S
C929   O978    1.283   .     A
C929   O975    1.286   .     A
C930   C932    1.411   .     A
C930   O976    1.386   .     S
C931   C949    1.403   .     A
C931   C950    1.409   .     A
C931   C940    1.435   .     S
C932   C948    1.402   .     A
C933   H966    1.080   .     S
C933   N974    1.366   .     A
C934   N973    1.367   .     A
C934   H967    1.081   .     S
C934   C1458   1.415   .     S
C935   H968    1.081   .     S
C935   N973    1.366   .     A
C935   C1455   1.414   .     S
C936   N974    1.366   .     A
C936   H969    1.081   .     S
C937   C938    1.537   .     S
C937   O984    1.419   .     S
C937   H970    1.108   .     S
C937   H971    1.115   .     S
C938   C939    1.527   .     S
C938   H606    1.111   1_565 S
C938   H624    1.111   1_565 S
C939   H957    1.111   .     S
C939   H1013   1.111   .     S
C939   H666    1.111   1_565 S
C940   O977    1.284   .     A
C940   O979    1.288   .     A
C941   O976    1.419   .     S
C941   C942    1.534   .     S
C941   H958    1.111   .     S
C941   H959    1.115   .     S
C942   H961    1.111   .     S
C942   H960    1.109   .     S
C942   C1001   1.527   .     S
C943   H962    1.111   .     S
C943   H963    1.110   .     S
C943   H965    1.111   .     S
C944   O982    1.279   .     A
C944   C946    1.401   .     S
C944   O980    1.277   .     A
C945   O983    1.279   .     A
C945   C947    1.401   .     S
C945   O981    1.277   .     A
C947   C1004   1.330   .     S
C947   H1022   1.088   .     S
C948   F951    1.360   .     S
C949   F952    1.360   .     S
C949   C582    1.377   1_565 S
C950   O984    1.385   .     S
C950   C600    1.370   1_565 S
H953   C1004   1.088   .     S
N973   Zn985   2.009   .     S
N974   Zn986   2.009   .     S
O975   Zn985   2.003   .     S
O977   Zn986   2.003   .     S
O978   Zn986   1.999   .     S
O979   Zn985   1.999   .     S
O980   Zn985   1.967   .     S
O981   Zn986   1.967   .     S
O982   Zn986   1.979   .     S
O983   Zn985   1.979   .     S
C987   C990    1.432   .     S
C987   O1036   1.283   .     A
C987   O1033   1.286   .     A
C988   C990    1.411   .     A
C988   O1034   1.386   .     S
C989   C1007   1.403   .     A
C989   C1008   1.409   .     A
C989   C998    1.435   .     S
C990   C1006   1.402   .     A
C991   H1024   1.080   .     S
C991   N1032   1.366   .     A
C992   N1031   1.367   .     A
C992   H1025   1.081   .     S
C992   C1516   1.415   .     S
C993   H1026   1.081   .     S
C993   N1031   1.366   .     A
C993   C1513   1.414   .     S
C994   N1032   1.366   .     A
C994   H1027   1.081   .     S
C995   C996    1.537   .     S
C995   O1042   1.419   .     S
C995   H1028   1.108   .     S
C995   H1029   1.115   .     S
C996   C997    1.527   .     S
C996   H664    1.111   1_565 S
C996   H682    1.111   1_565 S
C997   H1015   1.111   .     S
C997   H897    1.111   1_655 S
C997   H550    1.111   1_665 S
C998   O1035   1.284   .     A
C998   O1037   1.288   .     A
C999   O1034   1.419   .     S
C999   C1000   1.534   .     S
C999   H1016   1.111   .     S
C999   H1017   1.115   .     S
C1000  H1019   1.111   .     S
C1000  H1018   1.109   .     S
C1000  C885    1.527   1_655 S
C1001  H1020   1.111   .     S
C1001  H1021   1.110   .     S
C1001  H1023   1.111   .     S
C1002  O1040   1.279   .     A
C1002  C1004   1.401   .     S
C1002  O1038   1.277   .     A
C1003  O1041   1.279   .     A
C1003  C1005   1.401   .     S
C1003  O1039   1.277   .     A
C1005  C888    1.330   1_655 S
C1005  H906    1.088   1_655 S
C1006  F1009   1.360   .     S
C1007  F1010   1.360   .     S
C1007  C640    1.377   1_565 S
C1008  O1042   1.385   .     S
C1008  C658    1.370   1_565 S
H1011  C888    1.088   1_655 S
N1031  Zn1043  2.009   .     S
N1032  Zn1044  2.009   .     S
O1033  Zn1043  2.003   .     S
O1035  Zn1044  2.003   .     S
O1036  Zn1044  1.999   .     S
O1037  Zn1043  1.999   .     S
O1038  Zn1043  1.967   .     S
O1039  Zn1044  1.967   .     S
O1040  Zn1044  1.979   .     S
O1041  Zn1043  1.979   .     S
C1045  C1048   1.432   .     S
C1045  O1094   1.283   .     A
C1045  O1091   1.286   .     A
C1046  C1048   1.411   .     A
C1046  O1092   1.386   .     S
C1046  C1413   1.377   1_545 S
C1047  C1065   1.403   .     A
C1047  C1066   1.409   .     A
C1047  C1056   1.435   .     S
C1048  C1064   1.402   .     A
C1049  H1082   1.080   .     S
C1049  N1090   1.366   .     A
C1050  N1089   1.367   .     A
C1050  H1083   1.081   .     S
C1050  C8      1.415   1_556 S
C1051  H1084   1.081   .     S
C1051  N1089   1.366   .     A
C1051  C5      1.414   1_556 S
C1052  N1090   1.366   .     A
C1052  H1085   1.081   .     S
C1053  C1054   1.537   .     S
C1053  O1100   1.419   .     S
C1053  H1086   1.108   .     S
C1053  H1087   1.115   .     S
C1054  C1055   1.527   .     S
C1054  H1244   1.111   .     S
C1054  H1262   1.111   .     S
C1055  H1073   1.111   .     S
C1055  H1129   1.111   .     S
C1055  H1304   1.111   .     S
C1056  O1093   1.284   .     A
C1056  O1095   1.288   .     A
C1057  O1092   1.419   .     S
C1057  C1058   1.534   .     S
C1057  H1074   1.111   .     S
C1057  H1075   1.115   .     S
C1058  H1077   1.111   .     S
C1058  H1076   1.109   .     S
C1058  C1117   1.527   .     S
C1059  H1078   1.111   .     S
C1059  H1079   1.110   .     S
C1059  H1081   1.111   .     S
C1059  C1174   1.527   1_455 S
C1060  O1098   1.279   .     A
C1060  C1062   1.401   .     S
C1060  O1096   1.277   .     A
C1061  O1099   1.279   .     A
C1061  C1063   1.401   .     S
C1061  O1097   1.277   .     A
C1062  C1179   1.330   1_455 S
C1062  H1185   1.088   1_455 S
C1063  C1120   1.330   .     S
C1063  H1138   1.088   .     S
C1064  F1067   1.360   .     S
C1064  C1414   1.370   1_545 S
C1065  F1068   1.360   .     S
C1065  C1220   1.377   .     S
C1066  O1100   1.385   .     S
C1066  C1238   1.370   .     S
H1069  C1120   1.088   .     S
H1070  C1402   1.111   1_545 S
H1071  C1171   1.111   1_455 S
H1072  C1519   1.111   1_445 S
H1080  C1179   1.088   1_455 S
H1088  C1402   1.111   1_545 S
N1089  Zn1101  2.009   .     S
N1090  Zn1102  2.009   .     S
O1091  Zn1101  2.003   .     S
O1093  Zn1102  2.003   .     S
O1094  Zn1102  1.999   .     S
O1095  Zn1101  1.999   .     S
O1096  Zn1101  1.967   .     S
O1097  Zn1102  1.967   .     S
O1098  Zn1102  1.979   .     S
O1099  Zn1101  1.979   .     S
C1103  C1106   1.432   .     S
C1103  O1152   1.283   .     A
C1103  O1149   1.286   .     A
C1104  C1106   1.411   .     A
C1104  O1150   1.386   .     S
C1104  C1471   1.377   1_545 S
C1105  C1123   1.403   .     A
C1105  C1124   1.409   .     A
C1105  C1114   1.435   .     S
C1106  C1122   1.402   .     A
C1107  H1140   1.080   .     S
C1107  N1148   1.366   .     A
C1108  N1147   1.367   .     A
C1108  H1141   1.081   .     S
C1108  C66     1.415   1_556 S
C1109  H1142   1.081   .     S
C1109  N1147   1.366   .     A
C1109  C63     1.414   1_556 S
C1110  N1148   1.366   .     A
C1110  H1143   1.081   .     S
C1111  C1112   1.537   .     S
C1111  O1158   1.419   .     S
C1111  H1144   1.108   .     S
C1111  H1145   1.115   .     S
C1112  C1113   1.527   .     S
C1112  H1302   1.111   .     S
C1112  H1320   1.111   .     S
C1113  H1131   1.111   .     S
C1113  H1187   1.111   .     S
C1113  H1362   1.111   .     S
C1114  O1151   1.284   .     A
C1114  O1153   1.288   .     A
C1115  O1150   1.419   .     S
C1115  C1116   1.534   .     S
C1115  H1132   1.111   .     S
C1115  H1133   1.115   .     S
C1116  H1135   1.111   .     S
C1116  H1134   1.109   .     S
C1116  C1175   1.527   .     S
C1117  H1136   1.111   .     S
C1117  H1137   1.110   .     S
C1117  H1139   1.111   .     S
C1118  O1156   1.279   .     A
C1118  C1120   1.401   .     S
C1118  O1154   1.277   .     A
C1119  O1157   1.279   .     A
C1119  C1121   1.401   .     S
C1119  O1155   1.277   .     A
C1121  C1178   1.330   .     S
C1121  H1196   1.088   .     S
C1122  F1125   1.360   .     S
C1122  C1472   1.370   1_545 S
C1123  F1126   1.360   .     S
C1123  C1278   1.377   .     S
C1124  O1158   1.385   .     S
C1124  C1296   1.370   .     S
H1127  C1178   1.088   .     S
H1128  C1460   1.111   1_545 S
H1130  C1403   1.111   1_545 S
H1146  C1460   1.111   1_545 S
N1147  Zn1159  2.009   .     S
N1148  Zn1160  2.009   .     S
O1149  Zn1159  2.003   .     S
O1151  Zn1160  2.003   .     S
O1152  Zn1160  1.999   .     S
O1153  Zn1159  1.999   .     S
O1154  Zn1159  1.967   .     S
O1155  Zn1160  1.967   .     S
O1156  Zn1160  1.979   .     S
O1157  Zn1159  1.979   .     S
C1161  C1164   1.432   .     S
C1161  O1210   1.283   .     A
C1161  O1207   1.286   .     A
C1162  C1164   1.411   .     A
C1162  O1208   1.386   .     S
C1162  C1529   1.377   1_545 S
C1163  C1181   1.403   .     A
C1163  C1182   1.409   .     A
C1163  C1172   1.435   .     S
C1164  C1180   1.402   .     A
C1165  H1198   1.080   .     S
C1165  N1206   1.366   .     A
C1166  N1205   1.367   .     A
C1166  H1199   1.081   .     S
C1166  C124    1.415   1_556 S
C1167  H1200   1.081   .     S
C1167  N1205   1.366   .     A
C1167  C121    1.414   1_556 S
C1168  N1206   1.366   .     A
C1168  H1201   1.081   .     S
C1169  C1170   1.537   .     S
C1169  O1216   1.419   .     S
C1169  H1202   1.108   .     S
C1169  H1203   1.115   .     S
C1170  C1171   1.527   .     S
C1170  H1360   1.111   .     S
C1170  H1378   1.111   .     S
C1171  H1189   1.111   .     S
C1171  H1071   1.111   1_655 S
C1171  H1246   1.111   1_655 S
C1172  O1209   1.284   .     A
C1172  O1211   1.288   .     A
C1173  O1208   1.419   .     S
C1173  C1174   1.534   .     S
C1173  H1190   1.111   .     S
C1173  H1191   1.115   .     S
C1174  H1193   1.111   .     S
C1174  H1192   1.109   .     S
C1174  C1059   1.527   1_655 S
C1175  H1194   1.111   .     S
C1175  H1195   1.110   .     S
C1175  H1197   1.111   .     S
C1176  O1214   1.279   .     A
C1176  C1178   1.401   .     S
C1176  O1212   1.277   .     A
C1177  O1215   1.279   .     A
C1177  C1179   1.401   .     S
C1177  O1213   1.277   .     A
C1179  C1062   1.330   1_655 S
C1179  H1080   1.088   1_655 S
C1180  F1183   1.360   .     S
C1180  C1530   1.370   1_545 S
C1181  F1184   1.360   .     S
C1181  C1336   1.377   .     S
C1182  O1216   1.385   .     S
C1182  C1354   1.370   .     S
H1185  C1062   1.088   1_655 S
H1186  C1518   1.111   1_545 S
H1188  C1461   1.111   1_545 S
H1204  C1518   1.111   1_545 S
N1205  Zn1217  2.009   .     S
N1206  Zn1218  2.009   .     S
O1207  Zn1217  2.003   .     S
O1209  Zn1218  2.003   .     S
O1210  Zn1218  1.999   .     S
O1211  Zn1217  1.999   .     S
O1212  Zn1217  1.967   .     S
O1213  Zn1218  1.967   .     S
O1214  Zn1218  1.979   .     S
O1215  Zn1217  1.979   .     S
C1219  C1222   1.432   .     S
C1219  O1268   1.283   .     A
C1219  O1265   1.286   .     A
C1220  C1222   1.411   .     A
C1220  O1266   1.386   .     S
C1221  C1239   1.403   .     A
C1221  C1240   1.409   .     A
C1221  C1230   1.435   .     S
C1222  C1238   1.402   .     A
C1223  H1256   1.080   .     S
C1223  N1264   1.366   .     A
C1224  N1263   1.367   .     A
C1224  H1257   1.081   .     S
C1224  C182    1.415   1_556 S
C1225  H1258   1.081   .     S
C1225  N1263   1.366   .     A
C1225  C179    1.414   1_556 S
C1226  N1264   1.366   .     A
C1226  H1259   1.081   .     S
C1227  C1228   1.537   .     S
C1227  O1274   1.419   .     S
C1227  H1260   1.108   .     S
C1227  H1261   1.115   .     S
C1228  C1229   1.527   .     S
C1228  H1418   1.111   .     S
C1228  H1436   1.111   .     S
C1229  H1247   1.111   .     S
C1229  H1303   1.111   .     S
C1229  H1478   1.111   .     S
C1230  O1267   1.284   .     A
C1230  O1269   1.288   .     A
C1231  O1266   1.419   .     S
C1231  C1232   1.534   .     S
C1231  H1248   1.111   .     S
C1231  H1249   1.115   .     S
C1232  H1251   1.111   .     S
C1232  H1250   1.109   .     S
C1232  C1291   1.527   .     S
C1233  H1252   1.111   .     S
C1233  H1253   1.110   .     S
C1233  H1255   1.111   .     S
C1233  C1348   1.527   1_455 S
C1234  O1272   1.279   .     A
C1234  C1236   1.401   .     S
C1234  O1270   1.277   .     A
C1235  O1273   1.279   .     A
C1235  C1237   1.401   .     S
C1235  O1271   1.277   .     A
C1236  C1353   1.330   1_455 S
C1236  H1359   1.088   1_455 S
C1237  C1294   1.330   .     S
C1237  H1312   1.088   .     S
C1238  F1241   1.360   .     S
C1239  F1242   1.360   .     S
C1239  C1394   1.377   .     S
C1240  O1274   1.385   .     S
C1240  C1412   1.370   .     S
H1243  C1294   1.088   .     S
H1245  C1345   1.111   1_455 S
H1246  C1171   1.111   1_455 S
H1254  C1353   1.088   1_455 S
N1263  Zn1275  2.009   .     S
N1264  Zn1276  2.009   .     S
O1265  Zn1275  2.003   .     S
O1267  Zn1276  2.003   .     S
O1268  Zn1276  1.999   .     S
O1269  Zn1275  1.999   .     S
O1270  Zn1275  1.967   .     S
O1271  Zn1276  1.967   .     S
O1272  Zn1276  1.979   .     S
O1273  Zn1275  1.979   .     S
C1277  C1280   1.432   .     S
C1277  O1326   1.283   .     A
C1277  O1323   1.286   .     A
C1278  C1280   1.411   .     A
C1278  O1324   1.386   .     S
C1279  C1297   1.403   .     A
C1279  C1298   1.409   .     A
C1279  C1288   1.435   .     S
C1280  C1296   1.402   .     A
C1281  H1314   1.080   .     S
C1281  N1322   1.366   .     A
C1282  N1321   1.367   .     A
C1282  H1315   1.081   .     S
C1282  C240    1.415   1_556 S
C1283  H1316   1.081   .     S
C1283  N1321   1.366   .     A
C1283  C237    1.414   1_556 S
C1284  N1322   1.366   .     A
C1284  H1317   1.081   .     S
C1285  C1286   1.537   .     S
C1285  O1332   1.419   .     S
C1285  H1318   1.108   .     S
C1285  H1319   1.115   .     S
C1286  C1287   1.527   .     S
C1286  H1476   1.111   .     S
C1286  H1494   1.111   .     S
C1287  H1305   1.111   .     S
C1287  H1361   1.111   .     S
C1287  H1536   1.111   .     S
C1288  O1325   1.284   .     A
C1288  O1327   1.288   .     A
C1289  O1324   1.419   .     S
C1289  C1290   1.534   .     S
C1289  H1306   1.111   .     S
C1289  H1307   1.115   .     S
C1290  H1309   1.111   .     S
C1290  H1308   1.109   .     S
C1290  C1349   1.527   .     S
C1291  H1310   1.111   .     S
C1291  H1311   1.110   .     S
C1291  H1313   1.111   .     S
C1292  O1330   1.279   .     A
C1292  C1294   1.401   .     S
C1292  O1328   1.277   .     A
C1293  O1331   1.279   .     A
C1293  C1295   1.401   .     S
C1293  O1329   1.277   .     A
C1295  C1352   1.330   .     S
C1295  H1370   1.088   .     S
C1296  F1299   1.360   .     S
C1297  F1300   1.360   .     S
C1297  C1452   1.377   .     S
C1298  O1332   1.385   .     S
C1298  C1470   1.370   .     S
H1301  C1352   1.088   .     S
N1321  Zn1333  2.009   .     S
N1322  Zn1334  2.009   .     S
O1323  Zn1333  2.003   .     S
O1325  Zn1334  2.003   .     S
O1326  Zn1334  1.999   .     S
O1327  Zn1333  1.999   .     S
O1328  Zn1333  1.967   .     S
O1329  Zn1334  1.967   .     S
O1330  Zn1334  1.979   .     S
O1331  Zn1333  1.979   .     S
C1335  C1338   1.432   .     S
C1335  O1384   1.283   .     A
C1335  O1381   1.286   .     A
C1336  C1338   1.411   .     A
C1336  O1382   1.386   .     S
C1337  C1355   1.403   .     A
C1337  C1356   1.409   .     A
C1337  C1346   1.435   .     S
C1338  C1354   1.402   .     A
C1339  H1372   1.080   .     S
C1339  N1380   1.366   .     A
C1340  N1379   1.367   .     A
C1340  H1373   1.081   .     S
C1340  C298    1.415   1_556 S
C1341  H1374   1.081   .     S
C1341  N1379   1.366   .     A
C1341  C295    1.414   1_556 S
C1342  N1380   1.366   .     A
C1342  H1375   1.081   .     S
C1343  C1344   1.537   .     S
C1343  O1390   1.419   .     S
C1343  H1376   1.108   .     S
C1343  H1377   1.115   .     S
C1344  C1345   1.527   .     S
C1344  H1534   1.111   .     S
C1344  H1552   1.111   .     S
C1345  H1363   1.111   .     S
C1345  H1245   1.111   1_655 S
C1345  H1420   1.111   1_655 S
C1346  O1383   1.284   .     A
C1346  O1385   1.288   .     A
C1347  O1382   1.419   .     S
C1347  C1348   1.534   .     S
C1347  H1364   1.111   .     S
C1347  H1365   1.115   .     S
C1348  H1367   1.111   .     S
C1348  H1366   1.109   .     S
C1348  C1233   1.527   1_655 S
C1349  H1368   1.111   .     S
C1349  H1369   1.110   .     S
C1349  H1371   1.111   .     S
C1350  O1388   1.279   .     A
C1350  C1352   1.401   .     S
C1350  O1386   1.277   .     A
C1351  O1389   1.279   .     A
C1351  C1353   1.401   .     S
C1351  O1387   1.277   .     A
C1353  C1236   1.330   1_655 S
C1353  H1254   1.088   1_655 S
C1354  F1357   1.360   .     S
C1355  F1358   1.360   .     S
C1355  C1510   1.377   .     S
C1356  O1390   1.385   .     S
C1356  C1528   1.370   .     S
H1359  C1236   1.088   1_655 S
N1379  Zn1391  2.009   .     S
N1380  Zn1392  2.009   .     S
O1381  Zn1391  2.003   .     S
O1383  Zn1392  2.003   .     S
O1384  Zn1392  1.999   .     S
O1385  Zn1391  1.999   .     S
O1386  Zn1391  1.967   .     S
O1387  Zn1392  1.967   .     S
O1388  Zn1392  1.979   .     S
O1389  Zn1391  1.979   .     S
C1393  C1396   1.432   .     S
C1393  O1442   1.283   .     A
C1393  O1439   1.286   .     A
C1394  C1396   1.411   .     A
C1394  O1440   1.386   .     S
C1395  C1413   1.403   .     A
C1395  C1414   1.409   .     A
C1395  C1404   1.435   .     S
C1396  C1412   1.402   .     A
C1397  H1430   1.080   .     S
C1397  N1438   1.366   .     A
C1398  N1437   1.367   .     A
C1398  H1431   1.081   .     S
C1398  C356    1.415   1_556 S
C1399  H1432   1.081   .     S
C1399  N1437   1.366   .     A
C1399  C353    1.414   1_556 S
C1400  N1438   1.366   .     A
C1400  H1433   1.081   .     S
C1401  C1402   1.537   .     S
C1401  O1448   1.419   .     S
C1401  H1434   1.108   .     S
C1401  H1435   1.115   .     S
C1402  C1403   1.527   .     S
C1402  H1070   1.111   1_565 S
C1402  H1088   1.111   1_565 S
C1403  H1421   1.111   .     S
C1403  H1477   1.111   .     S
C1403  H1130   1.111   1_565 S
C1404  O1441   1.284   .     A
C1404  O1443   1.288   .     A
C1405  O1440   1.419   .     S
C1405  C1406   1.534   .     S
C1405  H1422   1.111   .     S
C1405  H1423   1.115   .     S
C1406  H1425   1.111   .     S
C1406  H1424   1.109   .     S
C1406  C1465   1.527   .     S
C1407  H1426   1.111   .     S
C1407  H1427   1.110   .     S
C1407  H1429   1.111   .     S
C1407  C1522   1.527   1_455 S
C1408  O1446   1.279   .     A
C1408  C1410   1.401   .     S
C1408  O1444   1.277   .     A
C1409  O1447   1.279   .     A
C1409  C1411   1.401   .     S
C1409  O1445   1.277   .     A
C1410  C1527   1.330   1_455 S
C1410  H1533   1.088   1_455 S
C1411  C1468   1.330   .     S
C1411  H1486   1.088   .     S
C1412  F1415   1.360   .     S
C1413  F1416   1.360   .     S
C1413  C1046   1.377   1_565 S
C1414  O1448   1.385   .     S
C1414  C1064   1.370   1_565 S
H1417  C1468   1.088   .     S
H1419  C1519   1.111   1_455 S
H1420  C1345   1.111   1_455 S
H1428  C1527   1.088   1_455 S
N1437  Zn1449  2.009   .     S
N1438  Zn1450  2.009   .     S
O1439  Zn1449  2.003   .     S
O1441  Zn1450  2.003   .     S
O1442  Zn1450  1.999   .     S
O1443  Zn1449  1.999   .     S
O1444  Zn1449  1.967   .     S
O1445  Zn1450  1.967   .     S
O1446  Zn1450  1.979   .     S
O1447  Zn1449  1.979   .     S
C1451  C1454   1.432   .     S
C1451  O1500   1.283   .     A
C1451  O1497   1.286   .     A
C1452  C1454   1.411   .     A
C1452  O1498   1.386   .     S
C1453  C1471   1.403   .     A
C1453  C1472   1.409   .     A
C1453  C1462   1.435   .     S
C1454  C1470   1.402   .     A
C1455  H1488   1.080   .     S
C1455  N1496   1.366   .     A
C1456  N1495   1.367   .     A
C1456  H1489   1.081   .     S
C1456  C414    1.415   1_556 S
C1457  H1490   1.081   .     S
C1457  N1495   1.366   .     A
C1457  C411    1.414   1_556 S
C1458  N1496   1.366   .     A
C1458  H1491   1.081   .     S
C1459  C1460   1.537   .     S
C1459  O1506   1.419   .     S
C1459  H1492   1.108   .     S
C1459  H1493   1.115   .     S
C1460  C1461   1.527   .     S
C1460  H1128   1.111   1_565 S
C1460  H1146   1.111   1_565 S
C1461  H1479   1.111   .     S
C1461  H1535   1.111   .     S
C1461  H1188   1.111   1_565 S
C1462  O1499   1.284   .     A
C1462  O1501   1.288   .     A
C1463  O1498   1.419   .     S
C1463  C1464   1.534   .     S
C1463  H1480   1.111   .     S
C1463  H1481   1.115   .     S
C1464  H1483   1.111   .     S
C1464  H1482   1.109   .     S
C1464  C1523   1.527   .     S
C1465  H1484   1.111   .     S
C1465  H1485   1.110   .     S
C1465  H1487   1.111   .     S
C1466  O1504   1.279   .     A
C1466  C1468   1.401   .     S
C1466  O1502   1.277   .     A
C1467  O1505   1.279   .     A
C1467  C1469   1.401   .     S
C1467  O1503   1.277   .     A
C1469  C1526   1.330   .     S
C1469  H1544   1.088   .     S
C1470  F1473   1.360   .     S
C1471  F1474   1.360   .     S
C1471  C1104   1.377   1_565 S
C1472  O1506   1.385   .     S
C1472  C1122   1.370   1_565 S
H1475  C1526   1.088   .     S
N1495  Zn1507  2.009   .     S
N1496  Zn1508  2.009   .     S
O1497  Zn1507  2.003   .     S
O1499  Zn1508  2.003   .     S
O1500  Zn1508  1.999   .     S
O1501  Zn1507  1.999   .     S
O1502  Zn1507  1.967   .     S
O1503  Zn1508  1.967   .     S
O1504  Zn1508  1.979   .     S
O1505  Zn1507  1.979   .     S
C1509  C1512   1.432   .     S
C1509  O1558   1.283   .     A
C1509  O1555   1.286   .     A
C1510  C1512   1.411   .     A
C1510  O1556   1.386   .     S
C1511  C1529   1.403   .     A
C1511  C1530   1.409   .     A
C1511  C1520   1.435   .     S
C1512  C1528   1.402   .     A
C1513  H1546   1.080   .     S
C1513  N1554   1.366   .     A
C1514  N1553   1.367   .     A
C1514  H1547   1.081   .     S
C1514  C472    1.415   1_556 S
C1515  H1548   1.081   .     S
C1515  N1553   1.366   .     A
C1515  C469    1.414   1_556 S
C1516  N1554   1.366   .     A
C1516  H1549   1.081   .     S
C1517  C1518   1.537   .     S
C1517  O1564   1.419   .     S
C1517  H1550   1.108   .     S
C1517  H1551   1.115   .     S
C1518  C1519   1.527   .     S
C1518  H1186   1.111   1_565 S
C1518  H1204   1.111   1_565 S
C1519  H1537   1.111   .     S
C1519  H1419   1.111   1_655 S
C1519  H1072   1.111   1_665 S
C1520  O1557   1.284   .     A
C1520  O1559   1.288   .     A
C1521  O1556   1.419   .     S
C1521  C1522   1.534   .     S
C1521  H1538   1.111   .     S
C1521  H1539   1.115   .     S
C1522  H1541   1.111   .     S
C1522  H1540   1.109   .     S
C1522  C1407   1.527   1_655 S
C1523  H1542   1.111   .     S
C1523  H1543   1.110   .     S
C1523  H1545   1.111   .     S
C1524  O1562   1.279   .     A
C1524  C1526   1.401   .     S
C1524  O1560   1.277   .     A
C1525  O1563   1.279   .     A
C1525  C1527   1.401   .     S
C1525  O1561   1.277   .     A
C1527  C1410   1.330   1_655 S
C1527  H1428   1.088   1_655 S
C1528  F1531   1.360   .     S
C1529  F1532   1.360   .     S
C1529  C1162   1.377   1_565 S
C1530  O1564   1.385   .     S
C1530  C1180   1.370   1_565 S
H1533  C1410   1.088   1_655 S
N1553  Zn1565  2.009   .     S
N1554  Zn1566  2.009   .     S
O1555  Zn1565  2.003   .     S
O1557  Zn1566  2.003   .     S
O1558  Zn1566  1.999   .     S
O1559  Zn1565  1.999   .     S
O1560  Zn1565  1.967   .     S
O1561  Zn1566  1.967   .     S
O1562  Zn1566  1.979   .     S
O1563  Zn1565  1.979   .     S
