data_str_m1_o10_o16_pcu_sym.214
_audit_creation_date              2020-01-03
_audit_creation_method            'Materials Studio'
_symmetry_space_group_name_H-M    'P1'
_symmetry_Int_Tables_number       1
_symmetry_cell_setting            triclinic
loop_
_symmetry_equiv_pos_as_xyz
  x,y,z
_cell_length_a                    32.4973
_cell_length_b                    32.6917
_cell_length_c                    31.0492
_cell_angle_alpha                 96.3966
_cell_angle_beta                  74.3369
_cell_angle_gamma                 98.1171
loop_
_atom_site_label
_atom_site_type_symbol
_atom_site_fract_x
_atom_site_fract_y
_atom_site_fract_z
_atom_site_U_iso_or_equiv
_atom_site_adp_type
_atom_site_occupancy
Zn1    Zn    0.19338   0.13994   0.28734   0.00000  Uiso   1.00
Zn2    Zn    0.13379   0.12458   0.21876   0.00000  Uiso   1.00
Zn3    Zn    0.21056   0.19775   0.20657   0.00000  Uiso   1.00
Zn4    Zn    0.12893   0.20439   0.28734   0.00000  Uiso   1.00
O5     O     0.16667   0.16667   0.25000   0.00000  Uiso   1.00
O6     O     0.07071   0.18878   0.28213   0.00000  Uiso   1.00
O7     O     0.25491   0.15226   0.27014   0.00000  Uiso   1.00
O8     O     0.13760   0.06944   0.23413   0.00000  Uiso   1.00
O9     O     0.20345   0.25620   0.21361   0.00000  Uiso   1.00
O10    O     0.15451   0.12637   0.15459   0.00000  Uiso   1.00
O11    O     0.12940   0.20391   0.34968   0.00000  Uiso   1.00
O12    O     0.20824   0.17759   0.14606   0.00000  Uiso   1.00
O13    O     0.17451   0.15880   0.34968   0.00000  Uiso   1.00
O14    O     0.17930   0.08019   0.28214   0.00000  Uiso   1.00
O15    O     0.14632   0.26085   0.27014   0.00000  Uiso   1.00
O16    O     0.07412   0.13291   0.23413   0.00000  Uiso   1.00
O17    O     0.26693   0.19272   0.21361   0.00000  Uiso   1.00
C18    C     0.05276   0.15984   0.26012   0.00000  Uiso   1.00
C19    C     0.28080   0.17385   0.24000   0.00000  Uiso   1.00
C20    C     0.15706   0.05614   0.25946   0.00000  Uiso   1.00
C21    C     0.17620   0.27790   0.24054   0.00000  Uiso   1.00
C22    C     0.18548   0.14846   0.12939   0.00000  Uiso   1.00
C23    C     0.14906   0.18519   0.37090   0.00000  Uiso   1.00
C24    C     0.24888   0.13631   0.01026   0.00000  Uiso   1.00
H25    H     0.25722   0.12411   0.07383   0.00000  Uiso   1.00
H26    H     0.27017   0.16026   0.42597   0.00000  Uiso   1.00
C27    C     0.19479   0.14254   0.08088   0.00000  Uiso   1.00
C28    C     0.09752   0.19979   0.44379   0.00000  Uiso   1.00
C29    C     0.08328   0.19702   0.48980   0.00000  Uiso   1.00
C30    C     0.10925   0.18341   0.01301   0.00000  Uiso   1.00
C31    C     0.15154   0.17425   0.49082   0.00000  Uiso   1.00
C32    C     0.16700   0.18014   0.44428   0.00000  Uiso   1.00
C33    C     0.17903   0.15960   0.01319   0.00000  Uiso   1.00
C34    C     0.22154   0.15165   0.48874   0.00000  Uiso   1.00
C35    C     0.23698   0.16204   0.44431   0.00000  Uiso   1.00
C36    C     0.21054   0.17668   0.42283   0.00000  Uiso   1.00
C37    C     0.16622   0.15393   0.05946   0.00000  Uiso   1.00
C38    C     0.23553   0.13324   0.05651   0.00000  Uiso   1.00
C39    C     0.13871   0.19014   0.42033   0.00000  Uiso   1.00
H40    H     0.13546   0.16094   0.08058   0.00000  Uiso   1.00
H41    H     0.07551   0.20788   0.42626   0.00000  Uiso   1.00
H42    H     0.09508   0.18060   0.04827   0.00000  Uiso   1.00
H43    H     0.05118   0.20406   0.00744   0.00000  Uiso   1.00
H44    H     0.22520   0.18616   0.38932   0.00000  Uiso   1.00
C45    C     0.32674   0.17648   0.23582   0.00000  Uiso   1.00
H46    H     0.01592   0.19354   0.20938   0.00000  Uiso   1.00
C47    C     0.00741   0.15782   0.26436   0.00000  Uiso   1.00
H48    H     0.31889   0.14096   0.29132   0.00000  Uiso   1.00
C49    C     0.17859   0.32226   0.23792   0.00000  Uiso   1.00
H50    H     0.20459   0.00291   0.21179   0.00000  Uiso   1.00
C51    C     0.15057   0.01297   0.26584   0.00000  Uiso   1.00
S52    S     0.10616   0.33074   0.31101   0.00000  Uiso   1.00
O53    O     0.07444   0.29982   0.29361   0.00000  Uiso   1.00
O54    O     0.12165   0.31179   0.34487   0.00000  Uiso   1.00
O55    O     0.08158   0.03904   0.33607   0.00000  Uiso   1.00
H56    H     0.05851   0.02843   0.36169   0.00000  Uiso   1.00
N57    N     0.29036   0.12443   0.48597   0.00000  Uiso   1.00
O58    O     0.29425   0.10043   0.44907   0.00000  Uiso   1.00
O59    O     0.32238   0.13127   0.00452   0.00000  Uiso   1.00
Zn60   Zn    0.52672   0.13994   0.28734   0.00000  Uiso   1.00
Zn61   Zn    0.46713   0.12458   0.21876   0.00000  Uiso   1.00
Zn62   Zn    0.54389   0.19775   0.20657   0.00000  Uiso   1.00
Zn63   Zn    0.46226   0.20439   0.28734   0.00000  Uiso   1.00
O64    O     0.50000   0.16667   0.25000   0.00000  Uiso   1.00
O65    O     0.40405   0.18878   0.28213   0.00000  Uiso   1.00
O66    O     0.58824   0.15226   0.27014   0.00000  Uiso   1.00
O67    O     0.47093   0.06944   0.23413   0.00000  Uiso   1.00
O68    O     0.53678   0.25620   0.21361   0.00000  Uiso   1.00
O69    O     0.48784   0.12637   0.15459   0.00000  Uiso   1.00
O70    O     0.46274   0.20391   0.34968   0.00000  Uiso   1.00
O71    O     0.54157   0.17759   0.14606   0.00000  Uiso   1.00
O72    O     0.50785   0.15880   0.34968   0.00000  Uiso   1.00
O73    O     0.51264   0.08019   0.28214   0.00000  Uiso   1.00
O74    O     0.47965   0.26085   0.27014   0.00000  Uiso   1.00
O75    O     0.40745   0.13291   0.23413   0.00000  Uiso   1.00
O76    O     0.60026   0.19272   0.21361   0.00000  Uiso   1.00
C77    C     0.38609   0.15984   0.26012   0.00000  Uiso   1.00
C78    C     0.61413   0.17385   0.24000   0.00000  Uiso   1.00
C79    C     0.49039   0.05614   0.25946   0.00000  Uiso   1.00
C80    C     0.50953   0.27790   0.24054   0.00000  Uiso   1.00
C81    C     0.51882   0.14846   0.12939   0.00000  Uiso   1.00
C82    C     0.48240   0.18519   0.37090   0.00000  Uiso   1.00
C83    C     0.58222   0.13631   0.01026   0.00000  Uiso   1.00
H84    H     0.59055   0.12411   0.07383   0.00000  Uiso   1.00
H85    H     0.60351   0.16026   0.42597   0.00000  Uiso   1.00
C86    C     0.52812   0.14254   0.08088   0.00000  Uiso   1.00
C87    C     0.43086   0.19979   0.44379   0.00000  Uiso   1.00
C88    C     0.41661   0.19702   0.48980   0.00000  Uiso   1.00
C89    C     0.44259   0.18341   0.01301   0.00000  Uiso   1.00
C90    C     0.48487   0.17425   0.49082   0.00000  Uiso   1.00
C91    C     0.50033   0.18014   0.44428   0.00000  Uiso   1.00
C92    C     0.51236   0.15960   0.01319   0.00000  Uiso   1.00
C93    C     0.55487   0.15165   0.48874   0.00000  Uiso   1.00
C94    C     0.57031   0.16204   0.44431   0.00000  Uiso   1.00
C95    C     0.54387   0.17668   0.42283   0.00000  Uiso   1.00
C96    C     0.49956   0.15393   0.05946   0.00000  Uiso   1.00
C97    C     0.56887   0.13324   0.05651   0.00000  Uiso   1.00
C98    C     0.47204   0.19014   0.42033   0.00000  Uiso   1.00
H99    H     0.46879   0.16094   0.08058   0.00000  Uiso   1.00
H100   H     0.40884   0.20788   0.42626   0.00000  Uiso   1.00
H101   H     0.42841   0.18060   0.04827   0.00000  Uiso   1.00
H102   H     0.38451   0.20406   0.00744   0.00000  Uiso   1.00
H103   H     0.55853   0.18616   0.38932   0.00000  Uiso   1.00
C104   C     0.66007   0.17648   0.23582   0.00000  Uiso   1.00
H105   H     0.34926   0.19354   0.20938   0.00000  Uiso   1.00
C106   C     0.34074   0.15782   0.26436   0.00000  Uiso   1.00
H107   H     0.65222   0.14096   0.29132   0.00000  Uiso   1.00
C108   C     0.51192   0.32226   0.23792   0.00000  Uiso   1.00
H109   H     0.53793   0.00291   0.21179   0.00000  Uiso   1.00
C110   C     0.48390   0.01297   0.26584   0.00000  Uiso   1.00
S111   S     0.43949   0.33074   0.31101   0.00000  Uiso   1.00
O112   O     0.40778   0.29982   0.29361   0.00000  Uiso   1.00
O113   O     0.45498   0.31179   0.34487   0.00000  Uiso   1.00
O114   O     0.41491   0.03904   0.33607   0.00000  Uiso   1.00
H115   H     0.39184   0.02843   0.36169   0.00000  Uiso   1.00
N116   N     0.62369   0.12443   0.48597   0.00000  Uiso   1.00
O117   O     0.62758   0.10043   0.44907   0.00000  Uiso   1.00
O118   O     0.65571   0.13127   0.00452   0.00000  Uiso   1.00
Zn119  Zn    0.86005   0.13994   0.28734   0.00000  Uiso   1.00
Zn120  Zn    0.80046   0.12458   0.21876   0.00000  Uiso   1.00
Zn121  Zn    0.87723   0.19775   0.20657   0.00000  Uiso   1.00
Zn122  Zn    0.79560   0.20439   0.28734   0.00000  Uiso   1.00
O123   O     0.83333   0.16667   0.25000   0.00000  Uiso   1.00
O124   O     0.73738   0.18878   0.28213   0.00000  Uiso   1.00
O125   O     0.92158   0.15226   0.27014   0.00000  Uiso   1.00
O126   O     0.80426   0.06944   0.23413   0.00000  Uiso   1.00
O127   O     0.87012   0.25620   0.21361   0.00000  Uiso   1.00
O128   O     0.82118   0.12637   0.15459   0.00000  Uiso   1.00
O129   O     0.79607   0.20391   0.34968   0.00000  Uiso   1.00
O130   O     0.87491   0.17759   0.14606   0.00000  Uiso   1.00
O131   O     0.84118   0.15880   0.34968   0.00000  Uiso   1.00
O132   O     0.84597   0.08019   0.28214   0.00000  Uiso   1.00
O133   O     0.81298   0.26085   0.27014   0.00000  Uiso   1.00
O134   O     0.74078   0.13291   0.23413   0.00000  Uiso   1.00
O135   O     0.93360   0.19272   0.21361   0.00000  Uiso   1.00
C136   C     0.71943   0.15984   0.26012   0.00000  Uiso   1.00
C137   C     0.94746   0.17385   0.24000   0.00000  Uiso   1.00
C138   C     0.82372   0.05614   0.25946   0.00000  Uiso   1.00
C139   C     0.84287   0.27790   0.24054   0.00000  Uiso   1.00
C140   C     0.85215   0.14846   0.12939   0.00000  Uiso   1.00
C141   C     0.81573   0.18519   0.37090   0.00000  Uiso   1.00
C142   C     0.91555   0.13631   0.01026   0.00000  Uiso   1.00
H143   H     0.92389   0.12411   0.07383   0.00000  Uiso   1.00
H144   H     0.93684   0.16026   0.42597   0.00000  Uiso   1.00
C145   C     0.86146   0.14254   0.08088   0.00000  Uiso   1.00
C146   C     0.76419   0.19979   0.44379   0.00000  Uiso   1.00
C147   C     0.74994   0.19702   0.48980   0.00000  Uiso   1.00
C148   C     0.77592   0.18341   0.01301   0.00000  Uiso   1.00
C149   C     0.81820   0.17425   0.49082   0.00000  Uiso   1.00
C150   C     0.83366   0.18014   0.44428   0.00000  Uiso   1.00
C151   C     0.84570   0.15960   0.01319   0.00000  Uiso   1.00
C152   C     0.88820   0.15165   0.48874   0.00000  Uiso   1.00
C153   C     0.90365   0.16204   0.44431   0.00000  Uiso   1.00
C154   C     0.87721   0.17668   0.42283   0.00000  Uiso   1.00
C155   C     0.83289   0.15393   0.05946   0.00000  Uiso   1.00
C156   C     0.90220   0.13324   0.05651   0.00000  Uiso   1.00
C157   C     0.80538   0.19014   0.42033   0.00000  Uiso   1.00
H158   H     0.80213   0.16094   0.08058   0.00000  Uiso   1.00
H159   H     0.74217   0.20788   0.42626   0.00000  Uiso   1.00
H160   H     0.76175   0.18060   0.04827   0.00000  Uiso   1.00
H161   H     0.71784   0.20406   0.00744   0.00000  Uiso   1.00
H162   H     0.89187   0.18616   0.38932   0.00000  Uiso   1.00
C163   C     0.99340   0.17648   0.23582   0.00000  Uiso   1.00
H164   H     0.68259   0.19354   0.20938   0.00000  Uiso   1.00
C165   C     0.67408   0.15782   0.26436   0.00000  Uiso   1.00
H166   H     0.98556   0.14096   0.29132   0.00000  Uiso   1.00
C167   C     0.84526   0.32226   0.23792   0.00000  Uiso   1.00
H168   H     0.87126   0.00291   0.21179   0.00000  Uiso   1.00
C169   C     0.81723   0.01297   0.26584   0.00000  Uiso   1.00
S170   S     0.77283   0.33074   0.31101   0.00000  Uiso   1.00
O171   O     0.74111   0.29982   0.29361   0.00000  Uiso   1.00
O172   O     0.78832   0.31179   0.34487   0.00000  Uiso   1.00
O173   O     0.74824   0.03904   0.33607   0.00000  Uiso   1.00
H174   H     0.72517   0.02843   0.36169   0.00000  Uiso   1.00
N175   N     0.95703   0.12443   0.48597   0.00000  Uiso   1.00
O176   O     0.96091   0.10043   0.44907   0.00000  Uiso   1.00
O177   O     0.98904   0.13127   0.00452   0.00000  Uiso   1.00
Zn178  Zn    0.19338   0.47327   0.28734   0.00000  Uiso   1.00
Zn179  Zn    0.13379   0.45791   0.21876   0.00000  Uiso   1.00
Zn180  Zn    0.21056   0.53109   0.20657   0.00000  Uiso   1.00
Zn181  Zn    0.12893   0.53773   0.28734   0.00000  Uiso   1.00
O182   O     0.16667   0.50000   0.25000   0.00000  Uiso   1.00
O183   O     0.07071   0.52211   0.28213   0.00000  Uiso   1.00
O184   O     0.25491   0.48559   0.27014   0.00000  Uiso   1.00
O185   O     0.13760   0.40277   0.23413   0.00000  Uiso   1.00
O186   O     0.20345   0.58953   0.21361   0.00000  Uiso   1.00
O187   O     0.15451   0.45970   0.15459   0.00000  Uiso   1.00
O188   O     0.12940   0.53724   0.34968   0.00000  Uiso   1.00
O189   O     0.20824   0.51092   0.14606   0.00000  Uiso   1.00
O190   O     0.17451   0.49213   0.34968   0.00000  Uiso   1.00
O191   O     0.17930   0.41352   0.28214   0.00000  Uiso   1.00
O192   O     0.14632   0.59418   0.27014   0.00000  Uiso   1.00
O193   O     0.07412   0.46625   0.23413   0.00000  Uiso   1.00
O194   O     0.26693   0.52605   0.21361   0.00000  Uiso   1.00
C195   C     0.05276   0.49317   0.26012   0.00000  Uiso   1.00
C196   C     0.28080   0.50719   0.24000   0.00000  Uiso   1.00
C197   C     0.15706   0.38947   0.25946   0.00000  Uiso   1.00
C198   C     0.17620   0.61123   0.24054   0.00000  Uiso   1.00
C199   C     0.18548   0.48179   0.12939   0.00000  Uiso   1.00
C200   C     0.14906   0.51852   0.37090   0.00000  Uiso   1.00
C201   C     0.24888   0.46964   0.01026   0.00000  Uiso   1.00
H202   H     0.25722   0.45744   0.07383   0.00000  Uiso   1.00
H203   H     0.27017   0.49359   0.42597   0.00000  Uiso   1.00
C204   C     0.19479   0.47588   0.08088   0.00000  Uiso   1.00
C205   C     0.09752   0.53313   0.44379   0.00000  Uiso   1.00
C206   C     0.08328   0.53035   0.48980   0.00000  Uiso   1.00
C207   C     0.10925   0.51675   0.01301   0.00000  Uiso   1.00
C208   C     0.15154   0.50758   0.49082   0.00000  Uiso   1.00
C209   C     0.16700   0.51347   0.44428   0.00000  Uiso   1.00
C210   C     0.17903   0.49293   0.01319   0.00000  Uiso   1.00
C211   C     0.22154   0.48499   0.48874   0.00000  Uiso   1.00
C212   C     0.23698   0.49537   0.44431   0.00000  Uiso   1.00
C213   C     0.21054   0.51001   0.42283   0.00000  Uiso   1.00
C214   C     0.16622   0.48727   0.05946   0.00000  Uiso   1.00
C215   C     0.23553   0.46657   0.05651   0.00000  Uiso   1.00
C216   C     0.13871   0.52347   0.42033   0.00000  Uiso   1.00
H217   H     0.13546   0.49427   0.08058   0.00000  Uiso   1.00
H218   H     0.07551   0.54121   0.42626   0.00000  Uiso   1.00
H219   H     0.09508   0.51393   0.04827   0.00000  Uiso   1.00
H220   H     0.05118   0.53739   0.00744   0.00000  Uiso   1.00
H221   H     0.22520   0.51949   0.38932   0.00000  Uiso   1.00
C222   C     0.32674   0.50981   0.23582   0.00000  Uiso   1.00
H223   H     0.01592   0.52687   0.20938   0.00000  Uiso   1.00
C224   C     0.00741   0.49116   0.26436   0.00000  Uiso   1.00
H225   H     0.31889   0.47429   0.29132   0.00000  Uiso   1.00
C226   C     0.17859   0.65559   0.23792   0.00000  Uiso   1.00
H227   H     0.20459   0.33625   0.21179   0.00000  Uiso   1.00
C228   C     0.15057   0.34630   0.26584   0.00000  Uiso   1.00
S229   S     0.10616   0.66408   0.31101   0.00000  Uiso   1.00
O230   O     0.07444   0.63315   0.29361   0.00000  Uiso   1.00
O231   O     0.12165   0.64513   0.34487   0.00000  Uiso   1.00
O232   O     0.08158   0.37237   0.33607   0.00000  Uiso   1.00
H233   H     0.05851   0.36176   0.36169   0.00000  Uiso   1.00
N234   N     0.29036   0.45776   0.48597   0.00000  Uiso   1.00
O235   O     0.29425   0.43376   0.44907   0.00000  Uiso   1.00
O236   O     0.32238   0.46461   0.00452   0.00000  Uiso   1.00
Zn237  Zn    0.52672   0.47327   0.28734   0.00000  Uiso   1.00
Zn238  Zn    0.46713   0.45791   0.21876   0.00000  Uiso   1.00
Zn239  Zn    0.54389   0.53109   0.20657   0.00000  Uiso   1.00
Zn240  Zn    0.46226   0.53773   0.28734   0.00000  Uiso   1.00
O241   O     0.50000   0.50000   0.25000   0.00000  Uiso   1.00
O242   O     0.40405   0.52211   0.28213   0.00000  Uiso   1.00
O243   O     0.58824   0.48559   0.27014   0.00000  Uiso   1.00
O244   O     0.47093   0.40277   0.23413   0.00000  Uiso   1.00
O245   O     0.53678   0.58953   0.21361   0.00000  Uiso   1.00
O246   O     0.48784   0.45970   0.15459   0.00000  Uiso   1.00
O247   O     0.46274   0.53724   0.34968   0.00000  Uiso   1.00
O248   O     0.54157   0.51092   0.14606   0.00000  Uiso   1.00
O249   O     0.50785   0.49213   0.34968   0.00000  Uiso   1.00
O250   O     0.51264   0.41352   0.28214   0.00000  Uiso   1.00
O251   O     0.47965   0.59418   0.27014   0.00000  Uiso   1.00
O252   O     0.40745   0.46625   0.23413   0.00000  Uiso   1.00
O253   O     0.60026   0.52605   0.21361   0.00000  Uiso   1.00
C254   C     0.38609   0.49317   0.26012   0.00000  Uiso   1.00
C255   C     0.61413   0.50719   0.24000   0.00000  Uiso   1.00
C256   C     0.49039   0.38947   0.25946   0.00000  Uiso   1.00
C257   C     0.50953   0.61123   0.24054   0.00000  Uiso   1.00
C258   C     0.51882   0.48179   0.12939   0.00000  Uiso   1.00
C259   C     0.48240   0.51852   0.37090   0.00000  Uiso   1.00
C260   C     0.58222   0.46964   0.01026   0.00000  Uiso   1.00
H261   H     0.59055   0.45744   0.07383   0.00000  Uiso   1.00
H262   H     0.60351   0.49359   0.42597   0.00000  Uiso   1.00
C263   C     0.52812   0.47588   0.08088   0.00000  Uiso   1.00
C264   C     0.43086   0.53313   0.44379   0.00000  Uiso   1.00
C265   C     0.41661   0.53035   0.48980   0.00000  Uiso   1.00
C266   C     0.44259   0.51675   0.01301   0.00000  Uiso   1.00
C267   C     0.48487   0.50758   0.49082   0.00000  Uiso   1.00
C268   C     0.50033   0.51347   0.44428   0.00000  Uiso   1.00
C269   C     0.51236   0.49293   0.01319   0.00000  Uiso   1.00
C270   C     0.55487   0.48499   0.48874   0.00000  Uiso   1.00
C271   C     0.57031   0.49537   0.44431   0.00000  Uiso   1.00
C272   C     0.54387   0.51001   0.42283   0.00000  Uiso   1.00
C273   C     0.49956   0.48727   0.05946   0.00000  Uiso   1.00
C274   C     0.56887   0.46657   0.05651   0.00000  Uiso   1.00
C275   C     0.47204   0.52347   0.42033   0.00000  Uiso   1.00
H276   H     0.46879   0.49427   0.08058   0.00000  Uiso   1.00
H277   H     0.40884   0.54121   0.42626   0.00000  Uiso   1.00
H278   H     0.42841   0.51393   0.04827   0.00000  Uiso   1.00
H279   H     0.38451   0.53739   0.00744   0.00000  Uiso   1.00
H280   H     0.55853   0.51949   0.38932   0.00000  Uiso   1.00
C281   C     0.66007   0.50981   0.23582   0.00000  Uiso   1.00
H282   H     0.34926   0.52687   0.20938   0.00000  Uiso   1.00
C283   C     0.34074   0.49116   0.26436   0.00000  Uiso   1.00
H284   H     0.65222   0.47429   0.29132   0.00000  Uiso   1.00
C285   C     0.51192   0.65559   0.23792   0.00000  Uiso   1.00
H286   H     0.53793   0.33625   0.21179   0.00000  Uiso   1.00
C287   C     0.48390   0.34630   0.26584   0.00000  Uiso   1.00
S288   S     0.43949   0.66408   0.31101   0.00000  Uiso   1.00
O289   O     0.40778   0.63315   0.29361   0.00000  Uiso   1.00
O290   O     0.45498   0.64513   0.34487   0.00000  Uiso   1.00
O291   O     0.41491   0.37237   0.33607   0.00000  Uiso   1.00
H292   H     0.39184   0.36176   0.36169   0.00000  Uiso   1.00
N293   N     0.62369   0.45776   0.48597   0.00000  Uiso   1.00
O294   O     0.62758   0.43376   0.44907   0.00000  Uiso   1.00
O295   O     0.65571   0.46461   0.00452   0.00000  Uiso   1.00
Zn296  Zn    0.86005   0.47327   0.28734   0.00000  Uiso   1.00
Zn297  Zn    0.80046   0.45791   0.21876   0.00000  Uiso   1.00
Zn298  Zn    0.87723   0.53109   0.20657   0.00000  Uiso   1.00
Zn299  Zn    0.79560   0.53773   0.28734   0.00000  Uiso   1.00
O300   O     0.83333   0.50000   0.25000   0.00000  Uiso   1.00
O301   O     0.73738   0.52211   0.28213   0.00000  Uiso   1.00
O302   O     0.92158   0.48559   0.27014   0.00000  Uiso   1.00
O303   O     0.80426   0.40277   0.23413   0.00000  Uiso   1.00
O304   O     0.87012   0.58953   0.21361   0.00000  Uiso   1.00
O305   O     0.82118   0.45970   0.15459   0.00000  Uiso   1.00
O306   O     0.79607   0.53724   0.34968   0.00000  Uiso   1.00
O307   O     0.87491   0.51092   0.14606   0.00000  Uiso   1.00
O308   O     0.84118   0.49213   0.34968   0.00000  Uiso   1.00
O309   O     0.84597   0.41352   0.28214   0.00000  Uiso   1.00
O310   O     0.81298   0.59418   0.27014   0.00000  Uiso   1.00
O311   O     0.74078   0.46625   0.23413   0.00000  Uiso   1.00
O312   O     0.93360   0.52605   0.21361   0.00000  Uiso   1.00
C313   C     0.71943   0.49317   0.26012   0.00000  Uiso   1.00
C314   C     0.94746   0.50719   0.24000   0.00000  Uiso   1.00
C315   C     0.82372   0.38947   0.25946   0.00000  Uiso   1.00
C316   C     0.84287   0.61123   0.24054   0.00000  Uiso   1.00
C317   C     0.85215   0.48179   0.12939   0.00000  Uiso   1.00
C318   C     0.81573   0.51852   0.37090   0.00000  Uiso   1.00
C319   C     0.91555   0.46964   0.01026   0.00000  Uiso   1.00
H320   H     0.92389   0.45744   0.07383   0.00000  Uiso   1.00
H321   H     0.93684   0.49359   0.42597   0.00000  Uiso   1.00
C322   C     0.86146   0.47588   0.08088   0.00000  Uiso   1.00
C323   C     0.76419   0.53313   0.44379   0.00000  Uiso   1.00
C324   C     0.74994   0.53035   0.48980   0.00000  Uiso   1.00
C325   C     0.77592   0.51675   0.01301   0.00000  Uiso   1.00
C326   C     0.81820   0.50758   0.49082   0.00000  Uiso   1.00
C327   C     0.83366   0.51347   0.44428   0.00000  Uiso   1.00
C328   C     0.84570   0.49293   0.01319   0.00000  Uiso   1.00
C329   C     0.88820   0.48499   0.48874   0.00000  Uiso   1.00
C330   C     0.90365   0.49537   0.44431   0.00000  Uiso   1.00
C331   C     0.87721   0.51001   0.42283   0.00000  Uiso   1.00
C332   C     0.83289   0.48727   0.05946   0.00000  Uiso   1.00
C333   C     0.90220   0.46657   0.05651   0.00000  Uiso   1.00
C334   C     0.80538   0.52347   0.42033   0.00000  Uiso   1.00
H335   H     0.80213   0.49427   0.08058   0.00000  Uiso   1.00
H336   H     0.74217   0.54121   0.42626   0.00000  Uiso   1.00
H337   H     0.76175   0.51393   0.04827   0.00000  Uiso   1.00
H338   H     0.71784   0.53739   0.00744   0.00000  Uiso   1.00
H339   H     0.89187   0.51949   0.38932   0.00000  Uiso   1.00
C340   C     0.99340   0.50981   0.23582   0.00000  Uiso   1.00
H341   H     0.68259   0.52687   0.20938   0.00000  Uiso   1.00
C342   C     0.67408   0.49116   0.26436   0.00000  Uiso   1.00
H343   H     0.98556   0.47429   0.29132   0.00000  Uiso   1.00
C344   C     0.84526   0.65559   0.23792   0.00000  Uiso   1.00
H345   H     0.87126   0.33625   0.21179   0.00000  Uiso   1.00
C346   C     0.81723   0.34630   0.26584   0.00000  Uiso   1.00
S347   S     0.77283   0.66408   0.31101   0.00000  Uiso   1.00
O348   O     0.74111   0.63315   0.29361   0.00000  Uiso   1.00
O349   O     0.78832   0.64513   0.34487   0.00000  Uiso   1.00
O350   O     0.74824   0.37237   0.33607   0.00000  Uiso   1.00
H351   H     0.72517   0.36176   0.36169   0.00000  Uiso   1.00
N352   N     0.95703   0.45776   0.48597   0.00000  Uiso   1.00
O353   O     0.96091   0.43376   0.44907   0.00000  Uiso   1.00
O354   O     0.98904   0.46461   0.00452   0.00000  Uiso   1.00
Zn355  Zn    0.19338   0.80661   0.28734   0.00000  Uiso   1.00
Zn356  Zn    0.13379   0.79124   0.21876   0.00000  Uiso   1.00
Zn357  Zn    0.21056   0.86442   0.20657   0.00000  Uiso   1.00
Zn358  Zn    0.12893   0.87106   0.28734   0.00000  Uiso   1.00
O359   O     0.16667   0.83333   0.25000   0.00000  Uiso   1.00
O360   O     0.07071   0.85544   0.28213   0.00000  Uiso   1.00
O361   O     0.25491   0.81892   0.27014   0.00000  Uiso   1.00
O362   O     0.13760   0.73610   0.23413   0.00000  Uiso   1.00
O363   O     0.20345   0.92286   0.21361   0.00000  Uiso   1.00
O364   O     0.15451   0.79304   0.15459   0.00000  Uiso   1.00
O365   O     0.12940   0.87058   0.34968   0.00000  Uiso   1.00
O366   O     0.20824   0.84425   0.14606   0.00000  Uiso   1.00
O367   O     0.17451   0.82546   0.34968   0.00000  Uiso   1.00
O368   O     0.17930   0.74686   0.28214   0.00000  Uiso   1.00
O369   O     0.14632   0.92751   0.27014   0.00000  Uiso   1.00
O370   O     0.07412   0.79958   0.23413   0.00000  Uiso   1.00
O371   O     0.26693   0.85939   0.21361   0.00000  Uiso   1.00
C372   C     0.05276   0.82650   0.26012   0.00000  Uiso   1.00
C373   C     0.28080   0.84052   0.24000   0.00000  Uiso   1.00
C374   C     0.15706   0.72281   0.25946   0.00000  Uiso   1.00
C375   C     0.17620   0.94457   0.24054   0.00000  Uiso   1.00
C376   C     0.18548   0.81512   0.12939   0.00000  Uiso   1.00
C377   C     0.14906   0.85186   0.37090   0.00000  Uiso   1.00
C378   C     0.24888   0.80298   0.01026   0.00000  Uiso   1.00
H379   H     0.25722   0.79077   0.07383   0.00000  Uiso   1.00
H380   H     0.27017   0.82693   0.42597   0.00000  Uiso   1.00
C381   C     0.19479   0.80921   0.08088   0.00000  Uiso   1.00
C382   C     0.09752   0.86646   0.44379   0.00000  Uiso   1.00
C383   C     0.08328   0.86368   0.48980   0.00000  Uiso   1.00
C384   C     0.10925   0.85008   0.01301   0.00000  Uiso   1.00
C385   C     0.15154   0.84091   0.49082   0.00000  Uiso   1.00
C386   C     0.16700   0.84680   0.44428   0.00000  Uiso   1.00
C387   C     0.17903   0.82626   0.01319   0.00000  Uiso   1.00
C388   C     0.22154   0.81832   0.48874   0.00000  Uiso   1.00
C389   C     0.23698   0.82870   0.44431   0.00000  Uiso   1.00
C390   C     0.21054   0.84334   0.42283   0.00000  Uiso   1.00
C391   C     0.16622   0.82060   0.05946   0.00000  Uiso   1.00
C392   C     0.23553   0.79991   0.05651   0.00000  Uiso   1.00
C393   C     0.13871   0.85680   0.42033   0.00000  Uiso   1.00
H394   H     0.13546   0.82760   0.08058   0.00000  Uiso   1.00
H395   H     0.07551   0.87454   0.42626   0.00000  Uiso   1.00
H396   H     0.09508   0.84726   0.04827   0.00000  Uiso   1.00
H397   H     0.05118   0.87072   0.00744   0.00000  Uiso   1.00
H398   H     0.22520   0.85283   0.38932   0.00000  Uiso   1.00
C399   C     0.32674   0.84315   0.23582   0.00000  Uiso   1.00
H400   H     0.01592   0.86021   0.20938   0.00000  Uiso   1.00
C401   C     0.00741   0.82449   0.26436   0.00000  Uiso   1.00
H402   H     0.31889   0.80763   0.29132   0.00000  Uiso   1.00
C403   C     0.17859   0.98892   0.23792   0.00000  Uiso   1.00
H404   H     0.20459   0.66958   0.21179   0.00000  Uiso   1.00
C405   C     0.15057   0.67964   0.26584   0.00000  Uiso   1.00
S406   S     0.10616   0.99741   0.31101   0.00000  Uiso   1.00
O407   O     0.07444   0.96649   0.29361   0.00000  Uiso   1.00
O408   O     0.12165   0.97846   0.34487   0.00000  Uiso   1.00
O409   O     0.08158   0.70571   0.33607   0.00000  Uiso   1.00
H410   H     0.05851   0.69510   0.36169   0.00000  Uiso   1.00
N411   N     0.29036   0.79109   0.48597   0.00000  Uiso   1.00
O412   O     0.29425   0.76710   0.44907   0.00000  Uiso   1.00
O413   O     0.32238   0.79794   0.00452   0.00000  Uiso   1.00
Zn414  Zn    0.52672   0.80661   0.28734   0.00000  Uiso   1.00
Zn415  Zn    0.46713   0.79124   0.21876   0.00000  Uiso   1.00
Zn416  Zn    0.54389   0.86442   0.20657   0.00000  Uiso   1.00
Zn417  Zn    0.46226   0.87106   0.28734   0.00000  Uiso   1.00
O418   O     0.50000   0.83333   0.25000   0.00000  Uiso   1.00
O419   O     0.40405   0.85544   0.28213   0.00000  Uiso   1.00
O420   O     0.58824   0.81892   0.27014   0.00000  Uiso   1.00
O421   O     0.47093   0.73610   0.23413   0.00000  Uiso   1.00
O422   O     0.53678   0.92286   0.21361   0.00000  Uiso   1.00
O423   O     0.48784   0.79304   0.15459   0.00000  Uiso   1.00
O424   O     0.46274   0.87058   0.34968   0.00000  Uiso   1.00
O425   O     0.54157   0.84425   0.14606   0.00000  Uiso   1.00
O426   O     0.50785   0.82546   0.34968   0.00000  Uiso   1.00
O427   O     0.51264   0.74686   0.28214   0.00000  Uiso   1.00
O428   O     0.47965   0.92751   0.27014   0.00000  Uiso   1.00
O429   O     0.40745   0.79958   0.23413   0.00000  Uiso   1.00
O430   O     0.60026   0.85939   0.21361   0.00000  Uiso   1.00
C431   C     0.38609   0.82650   0.26012   0.00000  Uiso   1.00
C432   C     0.61413   0.84052   0.24000   0.00000  Uiso   1.00
C433   C     0.49039   0.72281   0.25946   0.00000  Uiso   1.00
C434   C     0.50953   0.94457   0.24054   0.00000  Uiso   1.00
C435   C     0.51882   0.81512   0.12939   0.00000  Uiso   1.00
C436   C     0.48240   0.85186   0.37090   0.00000  Uiso   1.00
C437   C     0.58222   0.80298   0.01026   0.00000  Uiso   1.00
H438   H     0.59055   0.79077   0.07383   0.00000  Uiso   1.00
H439   H     0.60351   0.82693   0.42597   0.00000  Uiso   1.00
C440   C     0.52812   0.80921   0.08088   0.00000  Uiso   1.00
C441   C     0.43086   0.86646   0.44379   0.00000  Uiso   1.00
C442   C     0.41661   0.86368   0.48980   0.00000  Uiso   1.00
C443   C     0.44259   0.85008   0.01301   0.00000  Uiso   1.00
C444   C     0.48487   0.84091   0.49082   0.00000  Uiso   1.00
C445   C     0.50033   0.84680   0.44428   0.00000  Uiso   1.00
C446   C     0.51236   0.82626   0.01319   0.00000  Uiso   1.00
C447   C     0.55487   0.81832   0.48874   0.00000  Uiso   1.00
C448   C     0.57031   0.82870   0.44431   0.00000  Uiso   1.00
C449   C     0.54387   0.84334   0.42283   0.00000  Uiso   1.00
C450   C     0.49956   0.82060   0.05946   0.00000  Uiso   1.00
C451   C     0.56887   0.79991   0.05651   0.00000  Uiso   1.00
C452   C     0.47204   0.85680   0.42033   0.00000  Uiso   1.00
H453   H     0.46879   0.82760   0.08058   0.00000  Uiso   1.00
H454   H     0.40884   0.87454   0.42626   0.00000  Uiso   1.00
H455   H     0.42841   0.84726   0.04827   0.00000  Uiso   1.00
H456   H     0.38451   0.87072   0.00744   0.00000  Uiso   1.00
H457   H     0.55853   0.85283   0.38932   0.00000  Uiso   1.00
C458   C     0.66007   0.84315   0.23582   0.00000  Uiso   1.00
H459   H     0.34926   0.86021   0.20938   0.00000  Uiso   1.00
C460   C     0.34074   0.82449   0.26436   0.00000  Uiso   1.00
H461   H     0.65222   0.80763   0.29132   0.00000  Uiso   1.00
C462   C     0.51192   0.98892   0.23792   0.00000  Uiso   1.00
H463   H     0.53793   0.66958   0.21179   0.00000  Uiso   1.00
C464   C     0.48390   0.67964   0.26584   0.00000  Uiso   1.00
S465   S     0.43949   0.99741   0.31101   0.00000  Uiso   1.00
O466   O     0.40778   0.96649   0.29361   0.00000  Uiso   1.00
O467   O     0.45498   0.97846   0.34487   0.00000  Uiso   1.00
O468   O     0.41491   0.70571   0.33607   0.00000  Uiso   1.00
H469   H     0.39184   0.69510   0.36169   0.00000  Uiso   1.00
N470   N     0.62369   0.79109   0.48597   0.00000  Uiso   1.00
O471   O     0.62758   0.76710   0.44907   0.00000  Uiso   1.00
O472   O     0.65571   0.79794   0.00452   0.00000  Uiso   1.00
Zn473  Zn    0.86005   0.80661   0.28734   0.00000  Uiso   1.00
Zn474  Zn    0.80046   0.79124   0.21876   0.00000  Uiso   1.00
Zn475  Zn    0.87723   0.86442   0.20657   0.00000  Uiso   1.00
Zn476  Zn    0.79560   0.87106   0.28734   0.00000  Uiso   1.00
O477   O     0.83333   0.83333   0.25000   0.00000  Uiso   1.00
O478   O     0.73738   0.85544   0.28213   0.00000  Uiso   1.00
O479   O     0.92158   0.81892   0.27014   0.00000  Uiso   1.00
O480   O     0.80426   0.73610   0.23413   0.00000  Uiso   1.00
O481   O     0.87012   0.92286   0.21361   0.00000  Uiso   1.00
O482   O     0.82118   0.79304   0.15459   0.00000  Uiso   1.00
O483   O     0.79607   0.87058   0.34968   0.00000  Uiso   1.00
O484   O     0.87491   0.84425   0.14606   0.00000  Uiso   1.00
O485   O     0.84118   0.82546   0.34968   0.00000  Uiso   1.00
O486   O     0.84597   0.74686   0.28214   0.00000  Uiso   1.00
O487   O     0.81298   0.92751   0.27014   0.00000  Uiso   1.00
O488   O     0.74078   0.79958   0.23413   0.00000  Uiso   1.00
O489   O     0.93360   0.85939   0.21361   0.00000  Uiso   1.00
C490   C     0.71943   0.82650   0.26012   0.00000  Uiso   1.00
C491   C     0.94746   0.84052   0.24000   0.00000  Uiso   1.00
C492   C     0.82372   0.72281   0.25946   0.00000  Uiso   1.00
C493   C     0.84287   0.94457   0.24054   0.00000  Uiso   1.00
C494   C     0.85215   0.81512   0.12939   0.00000  Uiso   1.00
C495   C     0.81573   0.85186   0.37090   0.00000  Uiso   1.00
C496   C     0.91555   0.80298   0.01026   0.00000  Uiso   1.00
H497   H     0.92389   0.79077   0.07383   0.00000  Uiso   1.00
H498   H     0.93684   0.82693   0.42597   0.00000  Uiso   1.00
C499   C     0.86146   0.80921   0.08088   0.00000  Uiso   1.00
C500   C     0.76419   0.86646   0.44379   0.00000  Uiso   1.00
C501   C     0.74994   0.86368   0.48980   0.00000  Uiso   1.00
C502   C     0.77592   0.85008   0.01301   0.00000  Uiso   1.00
C503   C     0.81820   0.84091   0.49082   0.00000  Uiso   1.00
C504   C     0.83366   0.84680   0.44428   0.00000  Uiso   1.00
C505   C     0.84570   0.82626   0.01319   0.00000  Uiso   1.00
C506   C     0.88820   0.81832   0.48874   0.00000  Uiso   1.00
C507   C     0.90365   0.82870   0.44431   0.00000  Uiso   1.00
C508   C     0.87721   0.84334   0.42283   0.00000  Uiso   1.00
C509   C     0.83289   0.82060   0.05946   0.00000  Uiso   1.00
C510   C     0.90220   0.79991   0.05651   0.00000  Uiso   1.00
C511   C     0.80538   0.85680   0.42033   0.00000  Uiso   1.00
H512   H     0.80213   0.82760   0.08058   0.00000  Uiso   1.00
H513   H     0.74217   0.87454   0.42626   0.00000  Uiso   1.00
H514   H     0.76175   0.84726   0.04827   0.00000  Uiso   1.00
H515   H     0.71784   0.87072   0.00744   0.00000  Uiso   1.00
H516   H     0.89187   0.85283   0.38932   0.00000  Uiso   1.00
C517   C     0.99340   0.84315   0.23582   0.00000  Uiso   1.00
H518   H     0.68259   0.86021   0.20938   0.00000  Uiso   1.00
C519   C     0.67408   0.82449   0.26436   0.00000  Uiso   1.00
H520   H     0.98556   0.80763   0.29132   0.00000  Uiso   1.00
C521   C     0.84526   0.98892   0.23792   0.00000  Uiso   1.00
H522   H     0.87126   0.66958   0.21179   0.00000  Uiso   1.00
C523   C     0.81723   0.67964   0.26584   0.00000  Uiso   1.00
S524   S     0.77283   0.99741   0.31101   0.00000  Uiso   1.00
O525   O     0.74111   0.96649   0.29361   0.00000  Uiso   1.00
O526   O     0.78832   0.97846   0.34487   0.00000  Uiso   1.00
O527   O     0.74824   0.70571   0.33607   0.00000  Uiso   1.00
H528   H     0.72517   0.69510   0.36169   0.00000  Uiso   1.00
N529   N     0.95703   0.79109   0.48597   0.00000  Uiso   1.00
O530   O     0.96091   0.76710   0.44907   0.00000  Uiso   1.00
O531   O     0.98904   0.79794   0.00452   0.00000  Uiso   1.00
Zn532  Zn    0.19338   0.13994   0.78734   0.00000  Uiso   1.00
Zn533  Zn    0.13379   0.12458   0.71876   0.00000  Uiso   1.00
Zn534  Zn    0.21056   0.19775   0.70657   0.00000  Uiso   1.00
Zn535  Zn    0.12893   0.20439   0.78734   0.00000  Uiso   1.00
O536   O     0.16667   0.16667   0.75000   0.00000  Uiso   1.00
O537   O     0.07071   0.18878   0.78213   0.00000  Uiso   1.00
O538   O     0.25491   0.15226   0.77014   0.00000  Uiso   1.00
O539   O     0.13760   0.06944   0.73413   0.00000  Uiso   1.00
O540   O     0.20345   0.25620   0.71361   0.00000  Uiso   1.00
O541   O     0.15451   0.12637   0.65459   0.00000  Uiso   1.00
O542   O     0.12940   0.20391   0.84968   0.00000  Uiso   1.00
O543   O     0.20824   0.17759   0.64606   0.00000  Uiso   1.00
O544   O     0.17451   0.15880   0.84968   0.00000  Uiso   1.00
O545   O     0.17930   0.08019   0.78214   0.00000  Uiso   1.00
O546   O     0.14632   0.26085   0.77014   0.00000  Uiso   1.00
O547   O     0.07412   0.13291   0.73413   0.00000  Uiso   1.00
O548   O     0.26693   0.19272   0.71361   0.00000  Uiso   1.00
C549   C     0.05276   0.15984   0.76012   0.00000  Uiso   1.00
C550   C     0.28080   0.17385   0.74000   0.00000  Uiso   1.00
C551   C     0.15706   0.05614   0.75946   0.00000  Uiso   1.00
C552   C     0.17620   0.27790   0.74054   0.00000  Uiso   1.00
C553   C     0.18548   0.14846   0.62939   0.00000  Uiso   1.00
C554   C     0.14906   0.18519   0.87090   0.00000  Uiso   1.00
C555   C     0.24888   0.13631   0.51026   0.00000  Uiso   1.00
H556   H     0.25722   0.12411   0.57383   0.00000  Uiso   1.00
H557   H     0.27017   0.16026   0.92597   0.00000  Uiso   1.00
C558   C     0.19479   0.14254   0.58088   0.00000  Uiso   1.00
C559   C     0.09752   0.19979   0.94379   0.00000  Uiso   1.00
C560   C     0.08328   0.19702   0.98980   0.00000  Uiso   1.00
C561   C     0.10925   0.18341   0.51301   0.00000  Uiso   1.00
C562   C     0.15154   0.17425   0.99082   0.00000  Uiso   1.00
C563   C     0.16700   0.18014   0.94428   0.00000  Uiso   1.00
C564   C     0.17903   0.15960   0.51319   0.00000  Uiso   1.00
C565   C     0.22154   0.15165   0.98874   0.00000  Uiso   1.00
C566   C     0.23698   0.16204   0.94431   0.00000  Uiso   1.00
C567   C     0.21054   0.17668   0.92283   0.00000  Uiso   1.00
C568   C     0.16622   0.15393   0.55946   0.00000  Uiso   1.00
C569   C     0.23553   0.13324   0.55651   0.00000  Uiso   1.00
C570   C     0.13871   0.19014   0.92033   0.00000  Uiso   1.00
H571   H     0.13546   0.16094   0.58058   0.00000  Uiso   1.00
H572   H     0.07551   0.20788   0.92626   0.00000  Uiso   1.00
H573   H     0.09508   0.18060   0.54827   0.00000  Uiso   1.00
H574   H     0.05118   0.20406   0.50744   0.00000  Uiso   1.00
H575   H     0.22520   0.18616   0.88932   0.00000  Uiso   1.00
C576   C     0.32674   0.17648   0.73582   0.00000  Uiso   1.00
H577   H     0.01592   0.19354   0.70938   0.00000  Uiso   1.00
C578   C     0.00741   0.15782   0.76436   0.00000  Uiso   1.00
H579   H     0.31889   0.14096   0.79132   0.00000  Uiso   1.00
C580   C     0.17859   0.32226   0.73792   0.00000  Uiso   1.00
H581   H     0.20459   0.00291   0.71179   0.00000  Uiso   1.00
C582   C     0.15057   0.01297   0.76584   0.00000  Uiso   1.00
S583   S     0.10616   0.33074   0.81101   0.00000  Uiso   1.00
O584   O     0.07444   0.29982   0.79361   0.00000  Uiso   1.00
O585   O     0.12165   0.31179   0.84487   0.00000  Uiso   1.00
O586   O     0.08158   0.03904   0.83607   0.00000  Uiso   1.00
H587   H     0.05851   0.02843   0.86169   0.00000  Uiso   1.00
N588   N     0.29036   0.12443   0.98597   0.00000  Uiso   1.00
O589   O     0.29425   0.10043   0.94907   0.00000  Uiso   1.00
O590   O     0.32238   0.13127   0.50452   0.00000  Uiso   1.00
Zn591  Zn    0.52672   0.13994   0.78734   0.00000  Uiso   1.00
Zn592  Zn    0.46713   0.12458   0.71876   0.00000  Uiso   1.00
Zn593  Zn    0.54389   0.19775   0.70657   0.00000  Uiso   1.00
Zn594  Zn    0.46226   0.20439   0.78734   0.00000  Uiso   1.00
O595   O     0.50000   0.16667   0.75000   0.00000  Uiso   1.00
O596   O     0.40405   0.18878   0.78213   0.00000  Uiso   1.00
O597   O     0.58824   0.15226   0.77014   0.00000  Uiso   1.00
O598   O     0.47093   0.06944   0.73413   0.00000  Uiso   1.00
O599   O     0.53678   0.25620   0.71361   0.00000  Uiso   1.00
O600   O     0.48784   0.12637   0.65459   0.00000  Uiso   1.00
O601   O     0.46274   0.20391   0.84968   0.00000  Uiso   1.00
O602   O     0.54157   0.17759   0.64606   0.00000  Uiso   1.00
O603   O     0.50785   0.15880   0.84968   0.00000  Uiso   1.00
O604   O     0.51264   0.08019   0.78214   0.00000  Uiso   1.00
O605   O     0.47965   0.26085   0.77014   0.00000  Uiso   1.00
O606   O     0.40745   0.13291   0.73413   0.00000  Uiso   1.00
O607   O     0.60026   0.19272   0.71361   0.00000  Uiso   1.00
C608   C     0.38609   0.15984   0.76012   0.00000  Uiso   1.00
C609   C     0.61413   0.17385   0.74000   0.00000  Uiso   1.00
C610   C     0.49039   0.05614   0.75946   0.00000  Uiso   1.00
C611   C     0.50953   0.27790   0.74054   0.00000  Uiso   1.00
C612   C     0.51882   0.14846   0.62939   0.00000  Uiso   1.00
C613   C     0.48240   0.18519   0.87090   0.00000  Uiso   1.00
C614   C     0.58222   0.13631   0.51026   0.00000  Uiso   1.00
H615   H     0.59055   0.12411   0.57383   0.00000  Uiso   1.00
H616   H     0.60351   0.16026   0.92597   0.00000  Uiso   1.00
C617   C     0.52812   0.14254   0.58088   0.00000  Uiso   1.00
C618   C     0.43086   0.19979   0.94379   0.00000  Uiso   1.00
C619   C     0.41661   0.19702   0.98980   0.00000  Uiso   1.00
C620   C     0.44259   0.18341   0.51301   0.00000  Uiso   1.00
C621   C     0.48487   0.17425   0.99082   0.00000  Uiso   1.00
C622   C     0.50033   0.18014   0.94428   0.00000  Uiso   1.00
C623   C     0.51236   0.15960   0.51319   0.00000  Uiso   1.00
C624   C     0.55487   0.15165   0.98874   0.00000  Uiso   1.00
C625   C     0.57031   0.16204   0.94431   0.00000  Uiso   1.00
C626   C     0.54387   0.17668   0.92283   0.00000  Uiso   1.00
C627   C     0.49956   0.15393   0.55946   0.00000  Uiso   1.00
C628   C     0.56887   0.13324   0.55651   0.00000  Uiso   1.00
C629   C     0.47204   0.19014   0.92033   0.00000  Uiso   1.00
H630   H     0.46879   0.16094   0.58058   0.00000  Uiso   1.00
H631   H     0.40884   0.20788   0.92626   0.00000  Uiso   1.00
H632   H     0.42841   0.18060   0.54827   0.00000  Uiso   1.00
H633   H     0.38451   0.20406   0.50744   0.00000  Uiso   1.00
H634   H     0.55853   0.18616   0.88932   0.00000  Uiso   1.00
C635   C     0.66007   0.17648   0.73582   0.00000  Uiso   1.00
H636   H     0.34926   0.19354   0.70938   0.00000  Uiso   1.00
C637   C     0.34074   0.15782   0.76436   0.00000  Uiso   1.00
H638   H     0.65222   0.14096   0.79132   0.00000  Uiso   1.00
C639   C     0.51192   0.32226   0.73792   0.00000  Uiso   1.00
H640   H     0.53793   0.00291   0.71179   0.00000  Uiso   1.00
C641   C     0.48390   0.01297   0.76584   0.00000  Uiso   1.00
S642   S     0.43949   0.33074   0.81101   0.00000  Uiso   1.00
O643   O     0.40778   0.29982   0.79361   0.00000  Uiso   1.00
O644   O     0.45498   0.31179   0.84487   0.00000  Uiso   1.00
O645   O     0.41491   0.03904   0.83607   0.00000  Uiso   1.00
H646   H     0.39184   0.02843   0.86169   0.00000  Uiso   1.00
N647   N     0.62369   0.12443   0.98597   0.00000  Uiso   1.00
O648   O     0.62758   0.10043   0.94907   0.00000  Uiso   1.00
O649   O     0.65571   0.13127   0.50452   0.00000  Uiso   1.00
Zn650  Zn    0.86005   0.13994   0.78734   0.00000  Uiso   1.00
Zn651  Zn    0.80046   0.12458   0.71876   0.00000  Uiso   1.00
Zn652  Zn    0.87723   0.19775   0.70657   0.00000  Uiso   1.00
Zn653  Zn    0.79560   0.20439   0.78734   0.00000  Uiso   1.00
O654   O     0.83333   0.16667   0.75000   0.00000  Uiso   1.00
O655   O     0.73738   0.18878   0.78213   0.00000  Uiso   1.00
O656   O     0.92158   0.15226   0.77014   0.00000  Uiso   1.00
O657   O     0.80426   0.06944   0.73413   0.00000  Uiso   1.00
O658   O     0.87012   0.25620   0.71361   0.00000  Uiso   1.00
O659   O     0.82118   0.12637   0.65459   0.00000  Uiso   1.00
O660   O     0.79607   0.20391   0.84968   0.00000  Uiso   1.00
O661   O     0.87491   0.17759   0.64606   0.00000  Uiso   1.00
O662   O     0.84118   0.15880   0.84968   0.00000  Uiso   1.00
O663   O     0.84597   0.08019   0.78214   0.00000  Uiso   1.00
O664   O     0.81298   0.26085   0.77014   0.00000  Uiso   1.00
O665   O     0.74078   0.13291   0.73413   0.00000  Uiso   1.00
O666   O     0.93360   0.19272   0.71361   0.00000  Uiso   1.00
C667   C     0.71943   0.15984   0.76012   0.00000  Uiso   1.00
C668   C     0.94746   0.17385   0.74000   0.00000  Uiso   1.00
C669   C     0.82372   0.05614   0.75946   0.00000  Uiso   1.00
C670   C     0.84287   0.27790   0.74054   0.00000  Uiso   1.00
C671   C     0.85215   0.14846   0.62939   0.00000  Uiso   1.00
C672   C     0.81573   0.18519   0.87090   0.00000  Uiso   1.00
C673   C     0.91555   0.13631   0.51026   0.00000  Uiso   1.00
H674   H     0.92389   0.12411   0.57383   0.00000  Uiso   1.00
H675   H     0.93684   0.16026   0.92597   0.00000  Uiso   1.00
C676   C     0.86146   0.14254   0.58088   0.00000  Uiso   1.00
C677   C     0.76419   0.19979   0.94379   0.00000  Uiso   1.00
C678   C     0.74994   0.19702   0.98980   0.00000  Uiso   1.00
C679   C     0.77592   0.18341   0.51301   0.00000  Uiso   1.00
C680   C     0.81820   0.17425   0.99082   0.00000  Uiso   1.00
C681   C     0.83366   0.18014   0.94428   0.00000  Uiso   1.00
C682   C     0.84570   0.15960   0.51319   0.00000  Uiso   1.00
C683   C     0.88820   0.15165   0.98874   0.00000  Uiso   1.00
C684   C     0.90365   0.16204   0.94431   0.00000  Uiso   1.00
C685   C     0.87721   0.17668   0.92283   0.00000  Uiso   1.00
C686   C     0.83289   0.15393   0.55946   0.00000  Uiso   1.00
C687   C     0.90220   0.13324   0.55651   0.00000  Uiso   1.00
C688   C     0.80538   0.19014   0.92033   0.00000  Uiso   1.00
H689   H     0.80213   0.16094   0.58058   0.00000  Uiso   1.00
H690   H     0.74217   0.20788   0.92626   0.00000  Uiso   1.00
H691   H     0.76175   0.18060   0.54827   0.00000  Uiso   1.00
H692   H     0.71784   0.20406   0.50744   0.00000  Uiso   1.00
H693   H     0.89187   0.18616   0.88932   0.00000  Uiso   1.00
C694   C     0.99340   0.17648   0.73582   0.00000  Uiso   1.00
H695   H     0.68259   0.19354   0.70938   0.00000  Uiso   1.00
C696   C     0.67408   0.15782   0.76436   0.00000  Uiso   1.00
H697   H     0.98556   0.14096   0.79132   0.00000  Uiso   1.00
C698   C     0.84526   0.32226   0.73792   0.00000  Uiso   1.00
H699   H     0.87126   0.00291   0.71179   0.00000  Uiso   1.00
C700   C     0.81723   0.01297   0.76584   0.00000  Uiso   1.00
S701   S     0.77283   0.33074   0.81101   0.00000  Uiso   1.00
O702   O     0.74111   0.29982   0.79361   0.00000  Uiso   1.00
O703   O     0.78832   0.31179   0.84487   0.00000  Uiso   1.00
O704   O     0.74824   0.03904   0.83607   0.00000  Uiso   1.00
H705   H     0.72517   0.02843   0.86169   0.00000  Uiso   1.00
N706   N     0.95703   0.12443   0.98597   0.00000  Uiso   1.00
O707   O     0.96091   0.10043   0.94907   0.00000  Uiso   1.00
O708   O     0.98904   0.13127   0.50452   0.00000  Uiso   1.00
Zn709  Zn    0.19338   0.47327   0.78734   0.00000  Uiso   1.00
Zn710  Zn    0.13379   0.45791   0.71876   0.00000  Uiso   1.00
Zn711  Zn    0.21056   0.53109   0.70657   0.00000  Uiso   1.00
Zn712  Zn    0.12893   0.53773   0.78734   0.00000  Uiso   1.00
O713   O     0.16667   0.50000   0.75000   0.00000  Uiso   1.00
O714   O     0.07071   0.52211   0.78213   0.00000  Uiso   1.00
O715   O     0.25491   0.48559   0.77014   0.00000  Uiso   1.00
O716   O     0.13760   0.40277   0.73413   0.00000  Uiso   1.00
O717   O     0.20345   0.58953   0.71361   0.00000  Uiso   1.00
O718   O     0.15451   0.45970   0.65459   0.00000  Uiso   1.00
O719   O     0.12940   0.53724   0.84968   0.00000  Uiso   1.00
O720   O     0.20824   0.51092   0.64606   0.00000  Uiso   1.00
O721   O     0.17451   0.49213   0.84968   0.00000  Uiso   1.00
O722   O     0.17930   0.41352   0.78214   0.00000  Uiso   1.00
O723   O     0.14632   0.59418   0.77014   0.00000  Uiso   1.00
O724   O     0.07412   0.46625   0.73413   0.00000  Uiso   1.00
O725   O     0.26693   0.52605   0.71361   0.00000  Uiso   1.00
C726   C     0.05276   0.49317   0.76012   0.00000  Uiso   1.00
C727   C     0.28080   0.50719   0.74000   0.00000  Uiso   1.00
C728   C     0.15706   0.38947   0.75946   0.00000  Uiso   1.00
C729   C     0.17620   0.61123   0.74054   0.00000  Uiso   1.00
C730   C     0.18548   0.48179   0.62939   0.00000  Uiso   1.00
C731   C     0.14906   0.51852   0.87090   0.00000  Uiso   1.00
C732   C     0.24888   0.46964   0.51026   0.00000  Uiso   1.00
H733   H     0.25722   0.45744   0.57383   0.00000  Uiso   1.00
H734   H     0.27017   0.49359   0.92597   0.00000  Uiso   1.00
C735   C     0.19479   0.47588   0.58088   0.00000  Uiso   1.00
C736   C     0.09752   0.53313   0.94379   0.00000  Uiso   1.00
C737   C     0.08328   0.53035   0.98980   0.00000  Uiso   1.00
C738   C     0.10925   0.51675   0.51301   0.00000  Uiso   1.00
C739   C     0.15154   0.50758   0.99082   0.00000  Uiso   1.00
C740   C     0.16700   0.51347   0.94428   0.00000  Uiso   1.00
C741   C     0.17903   0.49293   0.51319   0.00000  Uiso   1.00
C742   C     0.22154   0.48499   0.98874   0.00000  Uiso   1.00
C743   C     0.23698   0.49537   0.94431   0.00000  Uiso   1.00
C744   C     0.21054   0.51001   0.92283   0.00000  Uiso   1.00
C745   C     0.16622   0.48727   0.55946   0.00000  Uiso   1.00
C746   C     0.23553   0.46657   0.55651   0.00000  Uiso   1.00
C747   C     0.13871   0.52347   0.92033   0.00000  Uiso   1.00
H748   H     0.13546   0.49427   0.58058   0.00000  Uiso   1.00
H749   H     0.07551   0.54121   0.92626   0.00000  Uiso   1.00
H750   H     0.09508   0.51393   0.54827   0.00000  Uiso   1.00
H751   H     0.05118   0.53739   0.50744   0.00000  Uiso   1.00
H752   H     0.22520   0.51949   0.88932   0.00000  Uiso   1.00
C753   C     0.32674   0.50981   0.73582   0.00000  Uiso   1.00
H754   H     0.01592   0.52687   0.70938   0.00000  Uiso   1.00
C755   C     0.00741   0.49116   0.76436   0.00000  Uiso   1.00
H756   H     0.31889   0.47429   0.79132   0.00000  Uiso   1.00
C757   C     0.17859   0.65559   0.73792   0.00000  Uiso   1.00
H758   H     0.20459   0.33625   0.71179   0.00000  Uiso   1.00
C759   C     0.15057   0.34630   0.76584   0.00000  Uiso   1.00
S760   S     0.10616   0.66408   0.81101   0.00000  Uiso   1.00
O761   O     0.07444   0.63315   0.79361   0.00000  Uiso   1.00
O762   O     0.12165   0.64513   0.84487   0.00000  Uiso   1.00
O763   O     0.08158   0.37237   0.83607   0.00000  Uiso   1.00
H764   H     0.05851   0.36176   0.86169   0.00000  Uiso   1.00
N765   N     0.29036   0.45776   0.98597   0.00000  Uiso   1.00
O766   O     0.29425   0.43376   0.94907   0.00000  Uiso   1.00
O767   O     0.32238   0.46461   0.50452   0.00000  Uiso   1.00
Zn768  Zn    0.52672   0.47327   0.78734   0.00000  Uiso   1.00
Zn769  Zn    0.46713   0.45791   0.71876   0.00000  Uiso   1.00
Zn770  Zn    0.54389   0.53109   0.70657   0.00000  Uiso   1.00
Zn771  Zn    0.46226   0.53773   0.78734   0.00000  Uiso   1.00
O772   O     0.50000   0.50000   0.75000   0.00000  Uiso   1.00
O773   O     0.40405   0.52211   0.78213   0.00000  Uiso   1.00
O774   O     0.58824   0.48559   0.77014   0.00000  Uiso   1.00
O775   O     0.47093   0.40277   0.73413   0.00000  Uiso   1.00
O776   O     0.53678   0.58953   0.71361   0.00000  Uiso   1.00
O777   O     0.48784   0.45970   0.65459   0.00000  Uiso   1.00
O778   O     0.46274   0.53724   0.84968   0.00000  Uiso   1.00
O779   O     0.54157   0.51092   0.64606   0.00000  Uiso   1.00
O780   O     0.50785   0.49213   0.84968   0.00000  Uiso   1.00
O781   O     0.51264   0.41352   0.78214   0.00000  Uiso   1.00
O782   O     0.47965   0.59418   0.77014   0.00000  Uiso   1.00
O783   O     0.40745   0.46625   0.73413   0.00000  Uiso   1.00
O784   O     0.60026   0.52605   0.71361   0.00000  Uiso   1.00
C785   C     0.38609   0.49317   0.76012   0.00000  Uiso   1.00
C786   C     0.61413   0.50719   0.74000   0.00000  Uiso   1.00
C787   C     0.49039   0.38947   0.75946   0.00000  Uiso   1.00
C788   C     0.50953   0.61123   0.74054   0.00000  Uiso   1.00
C789   C     0.51882   0.48179   0.62939   0.00000  Uiso   1.00
C790   C     0.48240   0.51852   0.87090   0.00000  Uiso   1.00
C791   C     0.58222   0.46964   0.51026   0.00000  Uiso   1.00
H792   H     0.59055   0.45744   0.57383   0.00000  Uiso   1.00
H793   H     0.60351   0.49359   0.92597   0.00000  Uiso   1.00
C794   C     0.52812   0.47588   0.58088   0.00000  Uiso   1.00
C795   C     0.43086   0.53313   0.94379   0.00000  Uiso   1.00
C796   C     0.41661   0.53035   0.98980   0.00000  Uiso   1.00
C797   C     0.44259   0.51675   0.51301   0.00000  Uiso   1.00
C798   C     0.48487   0.50758   0.99082   0.00000  Uiso   1.00
C799   C     0.50033   0.51347   0.94428   0.00000  Uiso   1.00
C800   C     0.51236   0.49293   0.51319   0.00000  Uiso   1.00
C801   C     0.55487   0.48499   0.98874   0.00000  Uiso   1.00
C802   C     0.57031   0.49537   0.94431   0.00000  Uiso   1.00
C803   C     0.54387   0.51001   0.92283   0.00000  Uiso   1.00
C804   C     0.49956   0.48727   0.55946   0.00000  Uiso   1.00
C805   C     0.56887   0.46657   0.55651   0.00000  Uiso   1.00
C806   C     0.47204   0.52347   0.92033   0.00000  Uiso   1.00
H807   H     0.46879   0.49427   0.58058   0.00000  Uiso   1.00
H808   H     0.40884   0.54121   0.92626   0.00000  Uiso   1.00
H809   H     0.42841   0.51393   0.54827   0.00000  Uiso   1.00
H810   H     0.38451   0.53739   0.50744   0.00000  Uiso   1.00
H811   H     0.55853   0.51949   0.88932   0.00000  Uiso   1.00
C812   C     0.66007   0.50981   0.73582   0.00000  Uiso   1.00
H813   H     0.34926   0.52687   0.70938   0.00000  Uiso   1.00
C814   C     0.34074   0.49116   0.76436   0.00000  Uiso   1.00
H815   H     0.65222   0.47429   0.79132   0.00000  Uiso   1.00
C816   C     0.51192   0.65559   0.73792   0.00000  Uiso   1.00
H817   H     0.53793   0.33625   0.71179   0.00000  Uiso   1.00
C818   C     0.48390   0.34630   0.76584   0.00000  Uiso   1.00
S819   S     0.43949   0.66408   0.81101   0.00000  Uiso   1.00
O820   O     0.40778   0.63315   0.79361   0.00000  Uiso   1.00
O821   O     0.45498   0.64513   0.84487   0.00000  Uiso   1.00
O822   O     0.41491   0.37237   0.83607   0.00000  Uiso   1.00
H823   H     0.39184   0.36176   0.86169   0.00000  Uiso   1.00
N824   N     0.62369   0.45776   0.98597   0.00000  Uiso   1.00
O825   O     0.62758   0.43376   0.94907   0.00000  Uiso   1.00
O826   O     0.65571   0.46461   0.50452   0.00000  Uiso   1.00
Zn827  Zn    0.86005   0.47327   0.78734   0.00000  Uiso   1.00
Zn828  Zn    0.80046   0.45791   0.71876   0.00000  Uiso   1.00
Zn829  Zn    0.87723   0.53109   0.70657   0.00000  Uiso   1.00
Zn830  Zn    0.79560   0.53773   0.78734   0.00000  Uiso   1.00
O831   O     0.83333   0.50000   0.75000   0.00000  Uiso   1.00
O832   O     0.73738   0.52211   0.78213   0.00000  Uiso   1.00
O833   O     0.92158   0.48559   0.77014   0.00000  Uiso   1.00
O834   O     0.80426   0.40277   0.73413   0.00000  Uiso   1.00
O835   O     0.87012   0.58953   0.71361   0.00000  Uiso   1.00
O836   O     0.82118   0.45970   0.65459   0.00000  Uiso   1.00
O837   O     0.79607   0.53724   0.84968   0.00000  Uiso   1.00
O838   O     0.87491   0.51092   0.64606   0.00000  Uiso   1.00
O839   O     0.84118   0.49213   0.84968   0.00000  Uiso   1.00
O840   O     0.84597   0.41352   0.78214   0.00000  Uiso   1.00
O841   O     0.81298   0.59418   0.77014   0.00000  Uiso   1.00
O842   O     0.74078   0.46625   0.73413   0.00000  Uiso   1.00
O843   O     0.93360   0.52605   0.71361   0.00000  Uiso   1.00
C844   C     0.71943   0.49317   0.76012   0.00000  Uiso   1.00
C845   C     0.94746   0.50719   0.74000   0.00000  Uiso   1.00
C846   C     0.82372   0.38947   0.75946   0.00000  Uiso   1.00
C847   C     0.84287   0.61123   0.74054   0.00000  Uiso   1.00
C848   C     0.85215   0.48179   0.62939   0.00000  Uiso   1.00
C849   C     0.81573   0.51852   0.87090   0.00000  Uiso   1.00
C850   C     0.91555   0.46964   0.51026   0.00000  Uiso   1.00
H851   H     0.92389   0.45744   0.57383   0.00000  Uiso   1.00
H852   H     0.93684   0.49359   0.92597   0.00000  Uiso   1.00
C853   C     0.86146   0.47588   0.58088   0.00000  Uiso   1.00
C854   C     0.76419   0.53313   0.94379   0.00000  Uiso   1.00
C855   C     0.74994   0.53035   0.98980   0.00000  Uiso   1.00
C856   C     0.77592   0.51675   0.51301   0.00000  Uiso   1.00
C857   C     0.81820   0.50758   0.99082   0.00000  Uiso   1.00
C858   C     0.83366   0.51347   0.94428   0.00000  Uiso   1.00
C859   C     0.84570   0.49293   0.51319   0.00000  Uiso   1.00
C860   C     0.88820   0.48499   0.98874   0.00000  Uiso   1.00
C861   C     0.90365   0.49537   0.94431   0.00000  Uiso   1.00
C862   C     0.87721   0.51001   0.92283   0.00000  Uiso   1.00
C863   C     0.83289   0.48727   0.55946   0.00000  Uiso   1.00
C864   C     0.90220   0.46657   0.55651   0.00000  Uiso   1.00
C865   C     0.80538   0.52347   0.92033   0.00000  Uiso   1.00
H866   H     0.80213   0.49427   0.58058   0.00000  Uiso   1.00
H867   H     0.74217   0.54121   0.92626   0.00000  Uiso   1.00
H868   H     0.76175   0.51393   0.54827   0.00000  Uiso   1.00
H869   H     0.71784   0.53739   0.50744   0.00000  Uiso   1.00
H870   H     0.89187   0.51949   0.88932   0.00000  Uiso   1.00
C871   C     0.99340   0.50981   0.73582   0.00000  Uiso   1.00
H872   H     0.68259   0.52687   0.70938   0.00000  Uiso   1.00
C873   C     0.67408   0.49116   0.76436   0.00000  Uiso   1.00
H874   H     0.98556   0.47429   0.79132   0.00000  Uiso   1.00
C875   C     0.84526   0.65559   0.73792   0.00000  Uiso   1.00
H876   H     0.87126   0.33625   0.71179   0.00000  Uiso   1.00
C877   C     0.81723   0.34630   0.76584   0.00000  Uiso   1.00
S878   S     0.77283   0.66408   0.81101   0.00000  Uiso   1.00
O879   O     0.74111   0.63315   0.79361   0.00000  Uiso   1.00
O880   O     0.78832   0.64513   0.84487   0.00000  Uiso   1.00
O881   O     0.74824   0.37237   0.83607   0.00000  Uiso   1.00
H882   H     0.72517   0.36176   0.86169   0.00000  Uiso   1.00
N883   N     0.95703   0.45776   0.98597   0.00000  Uiso   1.00
O884   O     0.96091   0.43376   0.94907   0.00000  Uiso   1.00
O885   O     0.98904   0.46461   0.50452   0.00000  Uiso   1.00
Zn886  Zn    0.19338   0.80661   0.78734   0.00000  Uiso   1.00
Zn887  Zn    0.13379   0.79124   0.71876   0.00000  Uiso   1.00
Zn888  Zn    0.21056   0.86442   0.70657   0.00000  Uiso   1.00
Zn889  Zn    0.12893   0.87106   0.78734   0.00000  Uiso   1.00
O890   O     0.16667   0.83333   0.75000   0.00000  Uiso   1.00
O891   O     0.07071   0.85544   0.78213   0.00000  Uiso   1.00
O892   O     0.25491   0.81892   0.77014   0.00000  Uiso   1.00
O893   O     0.13760   0.73610   0.73413   0.00000  Uiso   1.00
O894   O     0.20345   0.92286   0.71361   0.00000  Uiso   1.00
O895   O     0.15451   0.79304   0.65459   0.00000  Uiso   1.00
O896   O     0.12940   0.87058   0.84968   0.00000  Uiso   1.00
O897   O     0.20824   0.84425   0.64606   0.00000  Uiso   1.00
O898   O     0.17451   0.82546   0.84968   0.00000  Uiso   1.00
O899   O     0.17930   0.74686   0.78214   0.00000  Uiso   1.00
O900   O     0.14632   0.92751   0.77014   0.00000  Uiso   1.00
O901   O     0.07412   0.79958   0.73413   0.00000  Uiso   1.00
O902   O     0.26693   0.85939   0.71361   0.00000  Uiso   1.00
C903   C     0.05276   0.82650   0.76012   0.00000  Uiso   1.00
C904   C     0.28080   0.84052   0.74000   0.00000  Uiso   1.00
C905   C     0.15706   0.72281   0.75946   0.00000  Uiso   1.00
C906   C     0.17620   0.94457   0.74054   0.00000  Uiso   1.00
C907   C     0.18548   0.81512   0.62939   0.00000  Uiso   1.00
C908   C     0.14906   0.85186   0.87090   0.00000  Uiso   1.00
C909   C     0.24888   0.80298   0.51026   0.00000  Uiso   1.00
H910   H     0.25722   0.79077   0.57383   0.00000  Uiso   1.00
H911   H     0.27017   0.82693   0.92597   0.00000  Uiso   1.00
C912   C     0.19479   0.80921   0.58088   0.00000  Uiso   1.00
C913   C     0.09752   0.86646   0.94379   0.00000  Uiso   1.00
C914   C     0.08328   0.86368   0.98980   0.00000  Uiso   1.00
C915   C     0.10925   0.85008   0.51301   0.00000  Uiso   1.00
C916   C     0.15154   0.84091   0.99082   0.00000  Uiso   1.00
C917   C     0.16700   0.84680   0.94428   0.00000  Uiso   1.00
C918   C     0.17903   0.82626   0.51319   0.00000  Uiso   1.00
C919   C     0.22154   0.81832   0.98874   0.00000  Uiso   1.00
C920   C     0.23698   0.82870   0.94431   0.00000  Uiso   1.00
C921   C     0.21054   0.84334   0.92283   0.00000  Uiso   1.00
C922   C     0.16622   0.82060   0.55946   0.00000  Uiso   1.00
C923   C     0.23553   0.79991   0.55651   0.00000  Uiso   1.00
C924   C     0.13871   0.85680   0.92033   0.00000  Uiso   1.00
H925   H     0.13546   0.82760   0.58058   0.00000  Uiso   1.00
H926   H     0.07551   0.87454   0.92626   0.00000  Uiso   1.00
H927   H     0.09508   0.84726   0.54827   0.00000  Uiso   1.00
H928   H     0.05118   0.87072   0.50744   0.00000  Uiso   1.00
H929   H     0.22520   0.85283   0.88932   0.00000  Uiso   1.00
C930   C     0.32674   0.84315   0.73582   0.00000  Uiso   1.00
H931   H     0.01592   0.86021   0.70938   0.00000  Uiso   1.00
C932   C     0.00741   0.82449   0.76436   0.00000  Uiso   1.00
H933   H     0.31889   0.80763   0.79132   0.00000  Uiso   1.00
C934   C     0.17859   0.98892   0.73792   0.00000  Uiso   1.00
H935   H     0.20459   0.66958   0.71179   0.00000  Uiso   1.00
C936   C     0.15057   0.67964   0.76584   0.00000  Uiso   1.00
S937   S     0.10616   0.99741   0.81101   0.00000  Uiso   1.00
O938   O     0.07444   0.96649   0.79361   0.00000  Uiso   1.00
O939   O     0.12165   0.97846   0.84487   0.00000  Uiso   1.00
O940   O     0.08158   0.70571   0.83607   0.00000  Uiso   1.00
H941   H     0.05851   0.69510   0.86169   0.00000  Uiso   1.00
N942   N     0.29036   0.79109   0.98597   0.00000  Uiso   1.00
O943   O     0.29425   0.76710   0.94907   0.00000  Uiso   1.00
O944   O     0.32238   0.79794   0.50452   0.00000  Uiso   1.00
Zn945  Zn    0.52672   0.80661   0.78734   0.00000  Uiso   1.00
Zn946  Zn    0.46713   0.79124   0.71876   0.00000  Uiso   1.00
Zn947  Zn    0.54389   0.86442   0.70657   0.00000  Uiso   1.00
Zn948  Zn    0.46226   0.87106   0.78734   0.00000  Uiso   1.00
O949   O     0.50000   0.83333   0.75000   0.00000  Uiso   1.00
O950   O     0.40405   0.85544   0.78213   0.00000  Uiso   1.00
O951   O     0.58824   0.81892   0.77014   0.00000  Uiso   1.00
O952   O     0.47093   0.73610   0.73413   0.00000  Uiso   1.00
O953   O     0.53678   0.92286   0.71361   0.00000  Uiso   1.00
O954   O     0.48784   0.79304   0.65459   0.00000  Uiso   1.00
O955   O     0.46274   0.87058   0.84968   0.00000  Uiso   1.00
O956   O     0.54157   0.84425   0.64606   0.00000  Uiso   1.00
O957   O     0.50785   0.82546   0.84968   0.00000  Uiso   1.00
O958   O     0.51264   0.74686   0.78214   0.00000  Uiso   1.00
O959   O     0.47965   0.92751   0.77014   0.00000  Uiso   1.00
O960   O     0.40745   0.79958   0.73413   0.00000  Uiso   1.00
O961   O     0.60026   0.85939   0.71361   0.00000  Uiso   1.00
C962   C     0.38609   0.82650   0.76012   0.00000  Uiso   1.00
C963   C     0.61413   0.84052   0.74000   0.00000  Uiso   1.00
C964   C     0.49039   0.72281   0.75946   0.00000  Uiso   1.00
C965   C     0.50953   0.94457   0.74054   0.00000  Uiso   1.00
C966   C     0.51882   0.81512   0.62939   0.00000  Uiso   1.00
C967   C     0.48240   0.85186   0.87090   0.00000  Uiso   1.00
C968   C     0.58222   0.80298   0.51026   0.00000  Uiso   1.00
H969   H     0.59055   0.79077   0.57383   0.00000  Uiso   1.00
H970   H     0.60351   0.82693   0.92597   0.00000  Uiso   1.00
C971   C     0.52812   0.80921   0.58088   0.00000  Uiso   1.00
C972   C     0.43086   0.86646   0.94379   0.00000  Uiso   1.00
C973   C     0.41661   0.86368   0.98980   0.00000  Uiso   1.00
C974   C     0.44259   0.85008   0.51301   0.00000  Uiso   1.00
C975   C     0.48487   0.84091   0.99082   0.00000  Uiso   1.00
C976   C     0.50033   0.84680   0.94428   0.00000  Uiso   1.00
C977   C     0.51236   0.82626   0.51319   0.00000  Uiso   1.00
C978   C     0.55487   0.81832   0.98874   0.00000  Uiso   1.00
C979   C     0.57031   0.82870   0.94431   0.00000  Uiso   1.00
C980   C     0.54387   0.84334   0.92283   0.00000  Uiso   1.00
C981   C     0.49956   0.82060   0.55946   0.00000  Uiso   1.00
C982   C     0.56887   0.79991   0.55651   0.00000  Uiso   1.00
C983   C     0.47204   0.85680   0.92033   0.00000  Uiso   1.00
H984   H     0.46879   0.82760   0.58058   0.00000  Uiso   1.00
H985   H     0.40884   0.87454   0.92626   0.00000  Uiso   1.00
H986   H     0.42841   0.84726   0.54827   0.00000  Uiso   1.00
H987   H     0.38451   0.87072   0.50744   0.00000  Uiso   1.00
H988   H     0.55853   0.85283   0.88932   0.00000  Uiso   1.00
C989   C     0.66007   0.84315   0.73582   0.00000  Uiso   1.00
H990   H     0.34926   0.86021   0.70938   0.00000  Uiso   1.00
C991   C     0.34074   0.82449   0.76436   0.00000  Uiso   1.00
H992   H     0.65222   0.80763   0.79132   0.00000  Uiso   1.00
C993   C     0.51192   0.98892   0.73792   0.00000  Uiso   1.00
H994   H     0.53793   0.66958   0.71179   0.00000  Uiso   1.00
C995   C     0.48390   0.67964   0.76584   0.00000  Uiso   1.00
S996   S     0.43949   0.99741   0.81101   0.00000  Uiso   1.00
O997   O     0.40778   0.96649   0.79361   0.00000  Uiso   1.00
O998   O     0.45498   0.97846   0.84487   0.00000  Uiso   1.00
O999   O     0.41491   0.70571   0.83607   0.00000  Uiso   1.00
H1000  H     0.39184   0.69510   0.86169   0.00000  Uiso   1.00
N1001  N     0.62369   0.79109   0.98597   0.00000  Uiso   1.00
O1002  O     0.62758   0.76710   0.94907   0.00000  Uiso   1.00
O1003  O     0.65571   0.79794   0.50452   0.00000  Uiso   1.00
Zn1004 Zn    0.86005   0.80661   0.78734   0.00000  Uiso   1.00
Zn1005 Zn    0.80046   0.79124   0.71876   0.00000  Uiso   1.00
Zn1006 Zn    0.87723   0.86442   0.70657   0.00000  Uiso   1.00
Zn1007 Zn    0.79560   0.87106   0.78734   0.00000  Uiso   1.00
O1008  O     0.83333   0.83333   0.75000   0.00000  Uiso   1.00
O1009  O     0.73738   0.85544   0.78213   0.00000  Uiso   1.00
O1010  O     0.92158   0.81892   0.77014   0.00000  Uiso   1.00
O1011  O     0.80426   0.73610   0.73413   0.00000  Uiso   1.00
O1012  O     0.87012   0.92286   0.71361   0.00000  Uiso   1.00
O1013  O     0.82118   0.79304   0.65459   0.00000  Uiso   1.00
O1014  O     0.79607   0.87058   0.84968   0.00000  Uiso   1.00
O1015  O     0.87491   0.84425   0.64606   0.00000  Uiso   1.00
O1016  O     0.84118   0.82546   0.84968   0.00000  Uiso   1.00
O1017  O     0.84597   0.74686   0.78214   0.00000  Uiso   1.00
O1018  O     0.81298   0.92751   0.77014   0.00000  Uiso   1.00
O1019  O     0.74078   0.79958   0.73413   0.00000  Uiso   1.00
O1020  O     0.93360   0.85939   0.71361   0.00000  Uiso   1.00
C1021  C     0.71943   0.82650   0.76012   0.00000  Uiso   1.00
C1022  C     0.94746   0.84052   0.74000   0.00000  Uiso   1.00
C1023  C     0.82372   0.72281   0.75946   0.00000  Uiso   1.00
C1024  C     0.84287   0.94457   0.74054   0.00000  Uiso   1.00
C1025  C     0.85215   0.81512   0.62939   0.00000  Uiso   1.00
C1026  C     0.81573   0.85186   0.87090   0.00000  Uiso   1.00
C1027  C     0.91555   0.80298   0.51026   0.00000  Uiso   1.00
H1028  H     0.92389   0.79077   0.57383   0.00000  Uiso   1.00
H1029  H     0.93684   0.82693   0.92597   0.00000  Uiso   1.00
C1030  C     0.86146   0.80921   0.58088   0.00000  Uiso   1.00
C1031  C     0.76419   0.86646   0.94379   0.00000  Uiso   1.00
C1032  C     0.74994   0.86368   0.98980   0.00000  Uiso   1.00
C1033  C     0.77592   0.85008   0.51301   0.00000  Uiso   1.00
C1034  C     0.81820   0.84091   0.99082   0.00000  Uiso   1.00
C1035  C     0.83366   0.84680   0.94428   0.00000  Uiso   1.00
C1036  C     0.84570   0.82626   0.51319   0.00000  Uiso   1.00
C1037  C     0.88820   0.81832   0.98874   0.00000  Uiso   1.00
C1038  C     0.90365   0.82870   0.94431   0.00000  Uiso   1.00
C1039  C     0.87721   0.84334   0.92283   0.00000  Uiso   1.00
C1040  C     0.83289   0.82060   0.55946   0.00000  Uiso   1.00
C1041  C     0.90220   0.79991   0.55651   0.00000  Uiso   1.00
C1042  C     0.80538   0.85680   0.92033   0.00000  Uiso   1.00
H1043  H     0.80213   0.82760   0.58058   0.00000  Uiso   1.00
H1044  H     0.74217   0.87454   0.92626   0.00000  Uiso   1.00
H1045  H     0.76175   0.84726   0.54827   0.00000  Uiso   1.00
H1046  H     0.71784   0.87072   0.50744   0.00000  Uiso   1.00
H1047  H     0.89187   0.85283   0.88932   0.00000  Uiso   1.00
C1048  C     0.99340   0.84315   0.73582   0.00000  Uiso   1.00
H1049  H     0.68259   0.86021   0.70938   0.00000  Uiso   1.00
C1050  C     0.67408   0.82449   0.76436   0.00000  Uiso   1.00
H1051  H     0.98556   0.80763   0.79132   0.00000  Uiso   1.00
C1052  C     0.84526   0.98892   0.73792   0.00000  Uiso   1.00
H1053  H     0.87126   0.66958   0.71179   0.00000  Uiso   1.00
C1054  C     0.81723   0.67964   0.76584   0.00000  Uiso   1.00
S1055  S     0.77283   0.99741   0.81101   0.00000  Uiso   1.00
O1056  O     0.74111   0.96649   0.79361   0.00000  Uiso   1.00
O1057  O     0.78832   0.97846   0.84487   0.00000  Uiso   1.00
O1058  O     0.74824   0.70571   0.83607   0.00000  Uiso   1.00
H1059  H     0.72517   0.69510   0.86169   0.00000  Uiso   1.00
N1060  N     0.95703   0.79109   0.98597   0.00000  Uiso   1.00
O1061  O     0.96091   0.76710   0.94907   0.00000  Uiso   1.00
O1062  O     0.98904   0.79794   0.50452   0.00000  Uiso   1.00
loop_
_geom_bond_atom_site_label_1
_geom_bond_atom_site_label_2
_geom_bond_distance
_geom_bond_site_symmetry_2
_ccdc_geom_bond_type
Zn1    O5      1.961   .     S
Zn1    O13     1.924   .     S
Zn1    O14     1.941   .     S
Zn1    O7      1.921   .     S
Zn2    O16     1.919   .     S
Zn2    O5      1.955   .     S
Zn2    O10     1.928   .     S
Zn2    O8      1.944   .     S
Zn3    O9      1.938   .     S
Zn3    O12     1.938   .     S
Zn3    O17     1.934   .     S
Zn3    O5      1.935   .     S
Zn4    O15     1.942   .     S
Zn4    O11     1.942   .     S
Zn4    O5      1.926   .     S
Zn4    O6      1.934   .     S
O6     C18     1.272   .     A
O7     C19     1.279   .     A
O8     C20     1.277   .     A
O9     C21     1.278   .     A
O10    C22     1.281   .     A
O11    C23     1.282   .     A
O12    C22     1.273   .     A
O13    C23     1.282   .     A
O14    C20     1.276   .     A
O15    C21     1.256   .     A
O16    C18     1.273   .     A
O17    C19     1.283   .     A
C18    C47     1.436   .     S
C19    C45     1.454   .     S
C20    C51     1.425   .     S
C21    C49     1.451   .     S
C22    C27     1.450   .     S
C23    C39     1.475   .     S
C24    C38     1.394   .     A
C24    C565    1.417   1_554 S
C24    N588    1.439   1_554 S
H25    C38     1.084   .     S
H26    C35     1.082   .     S
C27    C37     1.389   .     A
C27    C38     1.393   .     A
C28    C29     1.387   .     A
C28    H41     1.083   .     S
C28    C39     1.401   .     A
C29    C561    1.391   .     S
C29    H574    1.083   .     S
C30    H42     1.076   .     S
C30    C560    1.391   1_554 S
C30    C562    1.418   1_554 S
C31    C32     1.421   .     A
C31    C561    1.418   .     S
C31    C564    1.428   .     S
C32    C36     1.407   .     A
C32    C39     1.419   .     A
C33    C37     1.409   .     A
C33    C562    1.428   1_554 S
C33    C565    1.429   1_554 S
C34    C35     1.398   .     A
C34    C555    1.417   .     S
C34    C564    1.429   .     S
C35    C36     1.382   .     A
C36    H44     1.081   .     S
C37    H40     1.077   .     S
H43    C560    1.083   1_554 S
C45    H105    1.088   .     S
C45    C106    1.335   .     S
H46    C163    1.088   1_455 S
C47    C163    1.335   1_455 S
C47    H166    1.086   1_455 S
H48    C106    1.086   .     S
C49    H227    1.088   .     S
C49    C228    1.350   .     S
H50    C403    1.088   1_545 S
C51    C403    1.350   1_545 S
C51    S406    1.779   1_545 S
S52    O54     1.504   .     D
S52    O53     1.504   .     D
S52    C228    1.779   .     S
S52    O232    1.683   .     S
O55    H56     0.990   .     S
O55    S406    1.683   1_545 S
N57    O58     1.301   .     A
N57    C555    1.439   .     S
N57    O590    1.301   .     S
O59    N588    1.301   1_554 S
Zn60   O64     1.961   .     S
Zn60   O72     1.924   .     S
Zn60   O73     1.941   .     S
Zn60   O66     1.921   .     S
Zn61   O75     1.919   .     S
Zn61   O64     1.955   .     S
Zn61   O69     1.928   .     S
Zn61   O67     1.944   .     S
Zn62   O68     1.938   .     S
Zn62   O71     1.938   .     S
Zn62   O76     1.934   .     S
Zn62   O64     1.935   .     S
Zn63   O74     1.942   .     S
Zn63   O70     1.942   .     S
Zn63   O64     1.926   .     S
Zn63   O65     1.934   .     S
O65    C77     1.272   .     A
O66    C78     1.279   .     A
O67    C79     1.277   .     A
O68    C80     1.278   .     A
O69    C81     1.281   .     A
O70    C82     1.282   .     A
O71    C81     1.273   .     A
O72    C82     1.282   .     A
O73    C79     1.276   .     A
O74    C80     1.256   .     A
O75    C77     1.273   .     A
O76    C78     1.283   .     A
C77    C106    1.436   .     S
C78    C104    1.454   .     S
C79    C110    1.425   .     S
C80    C108    1.451   .     S
C81    C86     1.450   .     S
C82    C98     1.475   .     S
C83    C97     1.394   .     A
C83    C624    1.417   1_554 S
C83    N647    1.439   1_554 S
H84    C97     1.084   .     S
H85    C94     1.082   .     S
C86    C96     1.389   .     A
C86    C97     1.393   .     A
C87    C88     1.387   .     A
C87    H100    1.083   .     S
C87    C98     1.401   .     A
C88    C620    1.391   .     S
C88    H633    1.083   .     S
C89    H101    1.076   .     S
C89    C619    1.391   1_554 S
C89    C621    1.418   1_554 S
C90    C91     1.421   .     A
C90    C620    1.418   .     S
C90    C623    1.428   .     S
C91    C95     1.407   .     A
C91    C98     1.419   .     A
C92    C96     1.409   .     A
C92    C621    1.428   1_554 S
C92    C624    1.429   1_554 S
C93    C94     1.398   .     A
C93    C614    1.417   .     S
C93    C623    1.429   .     S
C94    C95     1.382   .     A
C95    H103    1.081   .     S
C96    H99     1.077   .     S
H102   C619    1.083   1_554 S
C104   H164    1.088   .     S
C104   C165    1.335   .     S
H107   C165    1.086   .     S
C108   H286    1.088   .     S
C108   C287    1.350   .     S
H109   C462    1.088   1_545 S
C110   C462    1.350   1_545 S
C110   S465    1.779   1_545 S
S111   O113    1.504   .     D
S111   O112    1.504   .     D
S111   C287    1.779   .     S
S111   O291    1.683   .     S
O114   H115    0.990   .     S
O114   S465    1.683   1_545 S
N116   O117    1.301   .     A
N116   C614    1.439   .     S
N116   O649    1.301   .     S
O118   N647    1.301   1_554 S
Zn119  O123    1.961   .     S
Zn119  O131    1.924   .     S
Zn119  O132    1.941   .     S
Zn119  O125    1.921   .     S
Zn120  O134    1.919   .     S
Zn120  O123    1.955   .     S
Zn120  O128    1.928   .     S
Zn120  O126    1.944   .     S
Zn121  O127    1.938   .     S
Zn121  O130    1.938   .     S
Zn121  O135    1.934   .     S
Zn121  O123    1.935   .     S
Zn122  O133    1.942   .     S
Zn122  O129    1.942   .     S
Zn122  O123    1.926   .     S
Zn122  O124    1.934   .     S
O124   C136    1.272   .     A
O125   C137    1.279   .     A
O126   C138    1.277   .     A
O127   C139    1.278   .     A
O128   C140    1.281   .     A
O129   C141    1.282   .     A
O130   C140    1.273   .     A
O131   C141    1.282   .     A
O132   C138    1.276   .     A
O133   C139    1.256   .     A
O134   C136    1.273   .     A
O135   C137    1.283   .     A
C136   C165    1.436   .     S
C137   C163    1.454   .     S
C138   C169    1.425   .     S
C139   C167    1.451   .     S
C140   C145    1.450   .     S
C141   C157    1.475   .     S
C142   C156    1.394   .     A
C142   C683    1.417   1_554 S
C142   N706    1.439   1_554 S
H143   C156    1.084   .     S
H144   C153    1.082   .     S
C145   C155    1.389   .     A
C145   C156    1.393   .     A
C146   C147    1.387   .     A
C146   H159    1.083   .     S
C146   C157    1.401   .     A
C147   C679    1.391   .     S
C147   H692    1.083   .     S
C148   H160    1.076   .     S
C148   C678    1.391   1_554 S
C148   C680    1.418   1_554 S
C149   C150    1.421   .     A
C149   C679    1.418   .     S
C149   C682    1.428   .     S
C150   C154    1.407   .     A
C150   C157    1.419   .     A
C151   C155    1.409   .     A
C151   C680    1.428   1_554 S
C151   C683    1.429   1_554 S
C152   C153    1.398   .     A
C152   C673    1.417   .     S
C152   C682    1.429   .     S
C153   C154    1.382   .     A
C154   H162    1.081   .     S
C155   H158    1.077   .     S
H161   C678    1.083   1_554 S
C163   H46     1.088   1_655 S
C163   C47     1.335   1_655 S
H166   C47     1.086   1_655 S
C167   H345    1.088   .     S
C167   C346    1.350   .     S
H168   C521    1.088   1_545 S
C169   C521    1.350   1_545 S
C169   S524    1.779   1_545 S
S170   O172    1.504   .     D
S170   O171    1.504   .     D
S170   C346    1.779   .     S
S170   O350    1.683   .     S
O173   H174    0.990   .     S
O173   S524    1.683   1_545 S
N175   O176    1.301   .     A
N175   C673    1.439   .     S
N175   O708    1.301   .     S
O177   N706    1.301   1_554 S
Zn178  O182    1.961   .     S
Zn178  O190    1.924   .     S
Zn178  O191    1.941   .     S
Zn178  O184    1.921   .     S
Zn179  O193    1.919   .     S
Zn179  O182    1.955   .     S
Zn179  O187    1.928   .     S
Zn179  O185    1.944   .     S
Zn180  O186    1.938   .     S
Zn180  O189    1.938   .     S
Zn180  O194    1.934   .     S
Zn180  O182    1.935   .     S
Zn181  O192    1.942   .     S
Zn181  O188    1.942   .     S
Zn181  O182    1.926   .     S
Zn181  O183    1.934   .     S
O183   C195    1.272   .     A
O184   C196    1.279   .     A
O185   C197    1.277   .     A
O186   C198    1.278   .     A
O187   C199    1.281   .     A
O188   C200    1.282   .     A
O189   C199    1.273   .     A
O190   C200    1.282   .     A
O191   C197    1.276   .     A
O192   C198    1.256   .     A
O193   C195    1.273   .     A
O194   C196    1.283   .     A
C195   C224    1.436   .     S
C196   C222    1.454   .     S
C197   C228    1.425   .     S
C198   C226    1.451   .     S
C199   C204    1.450   .     S
C200   C216    1.475   .     S
C201   C215    1.394   .     A
C201   C742    1.417   1_554 S
C201   N765    1.439   1_554 S
H202   C215    1.084   .     S
H203   C212    1.082   .     S
C204   C214    1.389   .     A
C204   C215    1.393   .     A
C205   C206    1.387   .     A
C205   H218    1.083   .     S
C205   C216    1.401   .     A
C206   C738    1.391   .     S
C206   H751    1.083   .     S
C207   H219    1.076   .     S
C207   C737    1.391   1_554 S
C207   C739    1.418   1_554 S
C208   C209    1.421   .     A
C208   C738    1.418   .     S
C208   C741    1.428   .     S
C209   C213    1.407   .     A
C209   C216    1.419   .     A
C210   C214    1.409   .     A
C210   C739    1.428   1_554 S
C210   C742    1.429   1_554 S
C211   C212    1.398   .     A
C211   C732    1.417   .     S
C211   C741    1.429   .     S
C212   C213    1.382   .     A
C213   H221    1.081   .     S
C214   H217    1.077   .     S
H220   C737    1.083   1_554 S
C222   H282    1.088   .     S
C222   C283    1.335   .     S
H223   C340    1.088   1_455 S
C224   C340    1.335   1_455 S
C224   H343    1.086   1_455 S
H225   C283    1.086   .     S
C226   H404    1.088   .     S
C226   C405    1.350   .     S
S229   O231    1.504   .     D
S229   O230    1.504   .     D
S229   C405    1.779   .     S
S229   O409    1.683   .     S
O232   H233    0.990   .     S
N234   O235    1.301   .     A
N234   C732    1.439   .     S
N234   O767    1.301   .     S
O236   N765    1.301   1_554 S
Zn237  O241    1.961   .     S
Zn237  O249    1.924   .     S
Zn237  O250    1.941   .     S
Zn237  O243    1.921   .     S
Zn238  O252    1.919   .     S
Zn238  O241    1.955   .     S
Zn238  O246    1.928   .     S
Zn238  O244    1.944   .     S
Zn239  O245    1.938   .     S
Zn239  O248    1.938   .     S
Zn239  O253    1.934   .     S
Zn239  O241    1.935   .     S
Zn240  O251    1.942   .     S
Zn240  O247    1.942   .     S
Zn240  O241    1.926   .     S
Zn240  O242    1.934   .     S
O242   C254    1.272   .     A
O243   C255    1.279   .     A
O244   C256    1.277   .     A
O245   C257    1.278   .     A
O246   C258    1.281   .     A
O247   C259    1.282   .     A
O248   C258    1.273   .     A
O249   C259    1.282   .     A
O250   C256    1.276   .     A
O251   C257    1.256   .     A
O252   C254    1.273   .     A
O253   C255    1.283   .     A
C254   C283    1.436   .     S
C255   C281    1.454   .     S
C256   C287    1.425   .     S
C257   C285    1.451   .     S
C258   C263    1.450   .     S
C259   C275    1.475   .     S
C260   C274    1.394   .     A
C260   C801    1.417   1_554 S
C260   N824    1.439   1_554 S
H261   C274    1.084   .     S
H262   C271    1.082   .     S
C263   C273    1.389   .     A
C263   C274    1.393   .     A
C264   C265    1.387   .     A
C264   H277    1.083   .     S
C264   C275    1.401   .     A
C265   C797    1.391   .     S
C265   H810    1.083   .     S
C266   H278    1.076   .     S
C266   C796    1.391   1_554 S
C266   C798    1.418   1_554 S
C267   C268    1.421   .     A
C267   C797    1.418   .     S
C267   C800    1.428   .     S
C268   C272    1.407   .     A
C268   C275    1.419   .     A
C269   C273    1.409   .     A
C269   C798    1.428   1_554 S
C269   C801    1.429   1_554 S
C270   C271    1.398   .     A
C270   C791    1.417   .     S
C270   C800    1.429   .     S
C271   C272    1.382   .     A
C272   H280    1.081   .     S
C273   H276    1.077   .     S
H279   C796    1.083   1_554 S
C281   H341    1.088   .     S
C281   C342    1.335   .     S
H284   C342    1.086   .     S
C285   H463    1.088   .     S
C285   C464    1.350   .     S
S288   O290    1.504   .     D
S288   O289    1.504   .     D
S288   C464    1.779   .     S
S288   O468    1.683   .     S
O291   H292    0.990   .     S
N293   O294    1.301   .     A
N293   C791    1.439   .     S
N293   O826    1.301   .     S
O295   N824    1.301   1_554 S
Zn296  O300    1.961   .     S
Zn296  O308    1.924   .     S
Zn296  O309    1.941   .     S
Zn296  O302    1.921   .     S
Zn297  O311    1.919   .     S
Zn297  O300    1.955   .     S
Zn297  O305    1.928   .     S
Zn297  O303    1.944   .     S
Zn298  O304    1.938   .     S
Zn298  O307    1.938   .     S
Zn298  O312    1.934   .     S
Zn298  O300    1.935   .     S
Zn299  O310    1.942   .     S
Zn299  O306    1.942   .     S
Zn299  O300    1.926   .     S
Zn299  O301    1.934   .     S
O301   C313    1.272   .     A
O302   C314    1.279   .     A
O303   C315    1.277   .     A
O304   C316    1.278   .     A
O305   C317    1.281   .     A
O306   C318    1.282   .     A
O307   C317    1.273   .     A
O308   C318    1.282   .     A
O309   C315    1.276   .     A
O310   C316    1.256   .     A
O311   C313    1.273   .     A
O312   C314    1.283   .     A
C313   C342    1.436   .     S
C314   C340    1.454   .     S
C315   C346    1.425   .     S
C316   C344    1.451   .     S
C317   C322    1.450   .     S
C318   C334    1.475   .     S
C319   C333    1.394   .     A
C319   C860    1.417   1_554 S
C319   N883    1.439   1_554 S
H320   C333    1.084   .     S
H321   C330    1.082   .     S
C322   C332    1.389   .     A
C322   C333    1.393   .     A
C323   C324    1.387   .     A
C323   H336    1.083   .     S
C323   C334    1.401   .     A
C324   C856    1.391   .     S
C324   H869    1.083   .     S
C325   H337    1.076   .     S
C325   C855    1.391   1_554 S
C325   C857    1.418   1_554 S
C326   C327    1.421   .     A
C326   C856    1.418   .     S
C326   C859    1.428   .     S
C327   C331    1.407   .     A
C327   C334    1.419   .     A
C328   C332    1.409   .     A
C328   C857    1.428   1_554 S
C328   C860    1.429   1_554 S
C329   C330    1.398   .     A
C329   C850    1.417   .     S
C329   C859    1.429   .     S
C330   C331    1.382   .     A
C331   H339    1.081   .     S
C332   H335    1.077   .     S
H338   C855    1.083   1_554 S
C340   H223    1.088   1_655 S
C340   C224    1.335   1_655 S
H343   C224    1.086   1_655 S
C344   H522    1.088   .     S
C344   C523    1.350   .     S
S347   O349    1.504   .     D
S347   O348    1.504   .     D
S347   C523    1.779   .     S
S347   O527    1.683   .     S
O350   H351    0.990   .     S
N352   O353    1.301   .     A
N352   C850    1.439   .     S
N352   O885    1.301   .     S
O354   N883    1.301   1_554 S
Zn355  O359    1.961   .     S
Zn355  O367    1.924   .     S
Zn355  O368    1.941   .     S
Zn355  O361    1.921   .     S
Zn356  O370    1.919   .     S
Zn356  O359    1.955   .     S
Zn356  O364    1.928   .     S
Zn356  O362    1.944   .     S
Zn357  O363    1.938   .     S
Zn357  O366    1.938   .     S
Zn357  O371    1.934   .     S
Zn357  O359    1.935   .     S
Zn358  O369    1.942   .     S
Zn358  O365    1.942   .     S
Zn358  O359    1.926   .     S
Zn358  O360    1.934   .     S
O360   C372    1.272   .     A
O361   C373    1.279   .     A
O362   C374    1.277   .     A
O363   C375    1.278   .     A
O364   C376    1.281   .     A
O365   C377    1.282   .     A
O366   C376    1.273   .     A
O367   C377    1.282   .     A
O368   C374    1.276   .     A
O369   C375    1.256   .     A
O370   C372    1.273   .     A
O371   C373    1.283   .     A
C372   C401    1.436   .     S
C373   C399    1.454   .     S
C374   C405    1.425   .     S
C375   C403    1.451   .     S
C376   C381    1.450   .     S
C377   C393    1.475   .     S
C378   C392    1.394   .     A
C378   C919    1.417   1_554 S
C378   N942    1.439   1_554 S
H379   C392    1.084   .     S
H380   C389    1.082   .     S
C381   C391    1.389   .     A
C381   C392    1.393   .     A
C382   C383    1.387   .     A
C382   H395    1.083   .     S
C382   C393    1.401   .     A
C383   C915    1.391   .     S
C383   H928    1.083   .     S
C384   H396    1.076   .     S
C384   C914    1.391   1_554 S
C384   C916    1.418   1_554 S
C385   C386    1.421   .     A
C385   C915    1.418   .     S
C385   C918    1.428   .     S
C386   C390    1.407   .     A
C386   C393    1.419   .     A
C387   C391    1.409   .     A
C387   C916    1.428   1_554 S
C387   C919    1.429   1_554 S
C388   C389    1.398   .     A
C388   C909    1.417   .     S
C388   C918    1.429   .     S
C389   C390    1.382   .     A
C390   H398    1.081   .     S
C391   H394    1.077   .     S
H397   C914    1.083   1_554 S
C399   H459    1.088   .     S
C399   C460    1.335   .     S
H400   C517    1.088   1_455 S
C401   C517    1.335   1_455 S
C401   H520    1.086   1_455 S
H402   C460    1.086   .     S
C403   H50     1.088   1_565 S
C403   C51     1.350   1_565 S
S406   O408    1.504   .     D
S406   O407    1.504   .     D
S406   C51     1.779   1_565 S
S406   O55     1.683   1_565 S
O409   H410    0.990   .     S
N411   O412    1.301   .     A
N411   C909    1.439   .     S
N411   O944    1.301   .     S
O413   N942    1.301   1_554 S
Zn414  O418    1.961   .     S
Zn414  O426    1.924   .     S
Zn414  O427    1.941   .     S
Zn414  O420    1.921   .     S
Zn415  O429    1.919   .     S
Zn415  O418    1.955   .     S
Zn415  O423    1.928   .     S
Zn415  O421    1.944   .     S
Zn416  O422    1.938   .     S
Zn416  O425    1.938   .     S
Zn416  O430    1.934   .     S
Zn416  O418    1.935   .     S
Zn417  O428    1.942   .     S
Zn417  O424    1.942   .     S
Zn417  O418    1.926   .     S
Zn417  O419    1.934   .     S
O419   C431    1.272   .     A
O420   C432    1.279   .     A
O421   C433    1.277   .     A
O422   C434    1.278   .     A
O423   C435    1.281   .     A
O424   C436    1.282   .     A
O425   C435    1.273   .     A
O426   C436    1.282   .     A
O427   C433    1.276   .     A
O428   C434    1.256   .     A
O429   C431    1.273   .     A
O430   C432    1.283   .     A
C431   C460    1.436   .     S
C432   C458    1.454   .     S
C433   C464    1.425   .     S
C434   C462    1.451   .     S
C435   C440    1.450   .     S
C436   C452    1.475   .     S
C437   C451    1.394   .     A
C437   C978    1.417   1_554 S
C437   N1001   1.439   1_554 S
H438   C451    1.084   .     S
H439   C448    1.082   .     S
C440   C450    1.389   .     A
C440   C451    1.393   .     A
C441   C442    1.387   .     A
C441   H454    1.083   .     S
C441   C452    1.401   .     A
C442   C974    1.391   .     S
C442   H987    1.083   .     S
C443   H455    1.076   .     S
C443   C973    1.391   1_554 S
C443   C975    1.418   1_554 S
C444   C445    1.421   .     A
C444   C974    1.418   .     S
C444   C977    1.428   .     S
C445   C449    1.407   .     A
C445   C452    1.419   .     A
C446   C450    1.409   .     A
C446   C975    1.428   1_554 S
C446   C978    1.429   1_554 S
C447   C448    1.398   .     A
C447   C968    1.417   .     S
C447   C977    1.429   .     S
C448   C449    1.382   .     A
C449   H457    1.081   .     S
C450   H453    1.077   .     S
H456   C973    1.083   1_554 S
C458   H518    1.088   .     S
C458   C519    1.335   .     S
H461   C519    1.086   .     S
C462   H109    1.088   1_565 S
C462   C110    1.350   1_565 S
S465   O467    1.504   .     D
S465   O466    1.504   .     D
S465   C110    1.779   1_565 S
S465   O114    1.683   1_565 S
O468   H469    0.990   .     S
N470   O471    1.301   .     A
N470   C968    1.439   .     S
N470   O1003   1.301   .     S
O472   N1001   1.301   1_554 S
Zn473  O477    1.961   .     S
Zn473  O485    1.924   .     S
Zn473  O486    1.941   .     S
Zn473  O479    1.921   .     S
Zn474  O488    1.919   .     S
Zn474  O477    1.955   .     S
Zn474  O482    1.928   .     S
Zn474  O480    1.944   .     S
Zn475  O481    1.938   .     S
Zn475  O484    1.938   .     S
Zn475  O489    1.934   .     S
Zn475  O477    1.935   .     S
Zn476  O487    1.942   .     S
Zn476  O483    1.942   .     S
Zn476  O477    1.926   .     S
Zn476  O478    1.934   .     S
O478   C490    1.272   .     A
O479   C491    1.279   .     A
O480   C492    1.277   .     A
O481   C493    1.278   .     A
O482   C494    1.281   .     A
O483   C495    1.282   .     A
O484   C494    1.273   .     A
O485   C495    1.282   .     A
O486   C492    1.276   .     A
O487   C493    1.256   .     A
O488   C490    1.273   .     A
O489   C491    1.283   .     A
C490   C519    1.436   .     S
C491   C517    1.454   .     S
C492   C523    1.425   .     S
C493   C521    1.451   .     S
C494   C499    1.450   .     S
C495   C511    1.475   .     S
C496   C510    1.394   .     A
C496   C1037   1.417   1_554 S
C496   N1060   1.439   1_554 S
H497   C510    1.084   .     S
H498   C507    1.082   .     S
C499   C509    1.389   .     A
C499   C510    1.393   .     A
C500   C501    1.387   .     A
C500   H513    1.083   .     S
C500   C511    1.401   .     A
C501   C1033   1.391   .     S
C501   H1046   1.083   .     S
C502   H514    1.076   .     S
C502   C1032   1.391   1_554 S
C502   C1034   1.418   1_554 S
C503   C504    1.421   .     A
C503   C1033   1.418   .     S
C503   C1036   1.428   .     S
C504   C508    1.407   .     A
C504   C511    1.419   .     A
C505   C509    1.409   .     A
C505   C1034   1.428   1_554 S
C505   C1037   1.429   1_554 S
C506   C507    1.398   .     A
C506   C1027   1.417   .     S
C506   C1036   1.429   .     S
C507   C508    1.382   .     A
C508   H516    1.081   .     S
C509   H512    1.077   .     S
H515   C1032   1.083   1_554 S
C517   H400    1.088   1_655 S
C517   C401    1.335   1_655 S
H520   C401    1.086   1_655 S
C521   H168    1.088   1_565 S
C521   C169    1.350   1_565 S
S524   O526    1.504   .     D
S524   O525    1.504   .     D
S524   C169    1.779   1_565 S
S524   O173    1.683   1_565 S
O527   H528    0.990   .     S
N529   O530    1.301   .     A
N529   C1027   1.439   .     S
N529   O1062   1.301   .     S
O531   N1060   1.301   1_554 S
Zn532  O536    1.961   .     S
Zn532  O544    1.924   .     S
Zn532  O545    1.941   .     S
Zn532  O538    1.921   .     S
Zn533  O547    1.919   .     S
Zn533  O536    1.955   .     S
Zn533  O541    1.928   .     S
Zn533  O539    1.944   .     S
Zn534  O540    1.938   .     S
Zn534  O543    1.938   .     S
Zn534  O548    1.934   .     S
Zn534  O536    1.935   .     S
Zn535  O546    1.942   .     S
Zn535  O542    1.942   .     S
Zn535  O536    1.926   .     S
Zn535  O537    1.934   .     S
O537   C549    1.272   .     A
O538   C550    1.279   .     A
O539   C551    1.277   .     A
O540   C552    1.278   .     A
O541   C553    1.281   .     A
O542   C554    1.282   .     A
O543   C553    1.273   .     A
O544   C554    1.282   .     A
O545   C551    1.276   .     A
O546   C552    1.256   .     A
O547   C549    1.273   .     A
O548   C550    1.283   .     A
C549   C578    1.436   .     S
C550   C576    1.454   .     S
C551   C582    1.425   .     S
C552   C580    1.451   .     S
C553   C558    1.450   .     S
C554   C570    1.475   .     S
C555   C569    1.394   .     A
H556   C569    1.084   .     S
H557   C566    1.082   .     S
C558   C568    1.389   .     A
C558   C569    1.393   .     A
C559   C560    1.387   .     A
C559   H572    1.083   .     S
C559   C570    1.401   .     A
C560   C30     1.391   1_556 S
C560   H43     1.083   1_556 S
C561   H573    1.076   .     S
C562   C563    1.421   .     A
C562   C30     1.418   1_556 S
C562   C33     1.428   1_556 S
C563   C567    1.407   .     A
C563   C570    1.419   .     A
C564   C568    1.409   .     A
C565   C566    1.398   .     A
C565   C24     1.417   1_556 S
C565   C33     1.429   1_556 S
C566   C567    1.382   .     A
C567   H575    1.081   .     S
C568   H571    1.077   .     S
C576   H636    1.088   .     S
C576   C637    1.335   .     S
H577   C694    1.088   1_455 S
C578   C694    1.335   1_455 S
C578   H697    1.086   1_455 S
H579   C637    1.086   .     S
C580   H758    1.088   .     S
C580   C759    1.350   .     S
H581   C934    1.088   1_545 S
C582   C934    1.350   1_545 S
C582   S937    1.779   1_545 S
S583   O585    1.504   .     D
S583   O584    1.504   .     D
S583   C759    1.779   .     S
S583   O763    1.683   .     S
O586   H587    0.990   .     S
O586   S937    1.683   1_545 S
N588   O589    1.301   .     A
N588   C24     1.439   1_556 S
N588   O59     1.301   1_556 S
Zn591  O595    1.961   .     S
Zn591  O603    1.924   .     S
Zn591  O604    1.941   .     S
Zn591  O597    1.921   .     S
Zn592  O606    1.919   .     S
Zn592  O595    1.955   .     S
Zn592  O600    1.928   .     S
Zn592  O598    1.944   .     S
Zn593  O599    1.938   .     S
Zn593  O602    1.938   .     S
Zn593  O607    1.934   .     S
Zn593  O595    1.935   .     S
Zn594  O605    1.942   .     S
Zn594  O601    1.942   .     S
Zn594  O595    1.926   .     S
Zn594  O596    1.934   .     S
O596   C608    1.272   .     A
O597   C609    1.279   .     A
O598   C610    1.277   .     A
O599   C611    1.278   .     A
O600   C612    1.281   .     A
O601   C613    1.282   .     A
O602   C612    1.273   .     A
O603   C613    1.282   .     A
O604   C610    1.276   .     A
O605   C611    1.256   .     A
O606   C608    1.273   .     A
O607   C609    1.283   .     A
C608   C637    1.436   .     S
C609   C635    1.454   .     S
C610   C641    1.425   .     S
C611   C639    1.451   .     S
C612   C617    1.450   .     S
C613   C629    1.475   .     S
C614   C628    1.394   .     A
H615   C628    1.084   .     S
H616   C625    1.082   .     S
C617   C627    1.389   .     A
C617   C628    1.393   .     A
C618   C619    1.387   .     A
C618   H631    1.083   .     S
C618   C629    1.401   .     A
C619   C89     1.391   1_556 S
C619   H102    1.083   1_556 S
C620   H632    1.076   .     S
C621   C622    1.421   .     A
C621   C89     1.418   1_556 S
C621   C92     1.428   1_556 S
C622   C626    1.407   .     A
C622   C629    1.419   .     A
C623   C627    1.409   .     A
C624   C625    1.398   .     A
C624   C83     1.417   1_556 S
C624   C92     1.429   1_556 S
C625   C626    1.382   .     A
C626   H634    1.081   .     S
C627   H630    1.077   .     S
C635   H695    1.088   .     S
C635   C696    1.335   .     S
H638   C696    1.086   .     S
C639   H817    1.088   .     S
C639   C818    1.350   .     S
H640   C993    1.088   1_545 S
C641   C993    1.350   1_545 S
C641   S996    1.779   1_545 S
S642   O644    1.504   .     D
S642   O643    1.504   .     D
S642   C818    1.779   .     S
S642   O822    1.683   .     S
O645   H646    0.990   .     S
O645   S996    1.683   1_545 S
N647   O648    1.301   .     A
N647   C83     1.439   1_556 S
N647   O118    1.301   1_556 S
Zn650  O654    1.961   .     S
Zn650  O662    1.924   .     S
Zn650  O663    1.941   .     S
Zn650  O656    1.921   .     S
Zn651  O665    1.919   .     S
Zn651  O654    1.955   .     S
Zn651  O659    1.928   .     S
Zn651  O657    1.944   .     S
Zn652  O658    1.938   .     S
Zn652  O661    1.938   .     S
Zn652  O666    1.934   .     S
Zn652  O654    1.935   .     S
Zn653  O664    1.942   .     S
Zn653  O660    1.942   .     S
Zn653  O654    1.926   .     S
Zn653  O655    1.934   .     S
O655   C667    1.272   .     A
O656   C668    1.279   .     A
O657   C669    1.277   .     A
O658   C670    1.278   .     A
O659   C671    1.281   .     A
O660   C672    1.282   .     A
O661   C671    1.273   .     A
O662   C672    1.282   .     A
O663   C669    1.276   .     A
O664   C670    1.256   .     A
O665   C667    1.273   .     A
O666   C668    1.283   .     A
C667   C696    1.436   .     S
C668   C694    1.454   .     S
C669   C700    1.425   .     S
C670   C698    1.451   .     S
C671   C676    1.450   .     S
C672   C688    1.475   .     S
C673   C687    1.394   .     A
H674   C687    1.084   .     S
H675   C684    1.082   .     S
C676   C686    1.389   .     A
C676   C687    1.393   .     A
C677   C678    1.387   .     A
C677   H690    1.083   .     S
C677   C688    1.401   .     A
C678   C148    1.391   1_556 S
C678   H161    1.083   1_556 S
C679   H691    1.076   .     S
C680   C681    1.421   .     A
C680   C148    1.418   1_556 S
C680   C151    1.428   1_556 S
C681   C685    1.407   .     A
C681   C688    1.419   .     A
C682   C686    1.409   .     A
C683   C684    1.398   .     A
C683   C142    1.417   1_556 S
C683   C151    1.429   1_556 S
C684   C685    1.382   .     A
C685   H693    1.081   .     S
C686   H689    1.077   .     S
C694   H577    1.088   1_655 S
C694   C578    1.335   1_655 S
H697   C578    1.086   1_655 S
C698   H876    1.088   .     S
C698   C877    1.350   .     S
H699   C1052   1.088   1_545 S
C700   C1052   1.350   1_545 S
C700   S1055   1.779   1_545 S
S701   O703    1.504   .     D
S701   O702    1.504   .     D
S701   C877    1.779   .     S
S701   O881    1.683   .     S
O704   H705    0.990   .     S
O704   S1055   1.683   1_545 S
N706   O707    1.301   .     A
N706   C142    1.439   1_556 S
N706   O177    1.301   1_556 S
Zn709  O713    1.961   .     S
Zn709  O721    1.924   .     S
Zn709  O722    1.941   .     S
Zn709  O715    1.921   .     S
Zn710  O724    1.919   .     S
Zn710  O713    1.955   .     S
Zn710  O718    1.928   .     S
Zn710  O716    1.944   .     S
Zn711  O717    1.938   .     S
Zn711  O720    1.938   .     S
Zn711  O725    1.934   .     S
Zn711  O713    1.935   .     S
Zn712  O723    1.942   .     S
Zn712  O719    1.942   .     S
Zn712  O713    1.926   .     S
Zn712  O714    1.934   .     S
O714   C726    1.272   .     A
O715   C727    1.279   .     A
O716   C728    1.277   .     A
O717   C729    1.278   .     A
O718   C730    1.281   .     A
O719   C731    1.282   .     A
O720   C730    1.273   .     A
O721   C731    1.282   .     A
O722   C728    1.276   .     A
O723   C729    1.256   .     A
O724   C726    1.273   .     A
O725   C727    1.283   .     A
C726   C755    1.436   .     S
C727   C753    1.454   .     S
C728   C759    1.425   .     S
C729   C757    1.451   .     S
C730   C735    1.450   .     S
C731   C747    1.475   .     S
C732   C746    1.394   .     A
H733   C746    1.084   .     S
H734   C743    1.082   .     S
C735   C745    1.389   .     A
C735   C746    1.393   .     A
C736   C737    1.387   .     A
C736   H749    1.083   .     S
C736   C747    1.401   .     A
C737   C207    1.391   1_556 S
C737   H220    1.083   1_556 S
C738   H750    1.076   .     S
C739   C740    1.421   .     A
C739   C207    1.418   1_556 S
C739   C210    1.428   1_556 S
C740   C744    1.407   .     A
C740   C747    1.419   .     A
C741   C745    1.409   .     A
C742   C743    1.398   .     A
C742   C201    1.417   1_556 S
C742   C210    1.429   1_556 S
C743   C744    1.382   .     A
C744   H752    1.081   .     S
C745   H748    1.077   .     S
C753   H813    1.088   .     S
C753   C814    1.335   .     S
H754   C871    1.088   1_455 S
C755   C871    1.335   1_455 S
C755   H874    1.086   1_455 S
H756   C814    1.086   .     S
C757   H935    1.088   .     S
C757   C936    1.350   .     S
S760   O762    1.504   .     D
S760   O761    1.504   .     D
S760   C936    1.779   .     S
S760   O940    1.683   .     S
O763   H764    0.990   .     S
N765   O766    1.301   .     A
N765   C201    1.439   1_556 S
N765   O236    1.301   1_556 S
Zn768  O772    1.961   .     S
Zn768  O780    1.924   .     S
Zn768  O781    1.941   .     S
Zn768  O774    1.921   .     S
Zn769  O783    1.919   .     S
Zn769  O772    1.955   .     S
Zn769  O777    1.928   .     S
Zn769  O775    1.944   .     S
Zn770  O776    1.938   .     S
Zn770  O779    1.938   .     S
Zn770  O784    1.934   .     S
Zn770  O772    1.935   .     S
Zn771  O782    1.942   .     S
Zn771  O778    1.942   .     S
Zn771  O772    1.926   .     S
Zn771  O773    1.934   .     S
O773   C785    1.272   .     A
O774   C786    1.279   .     A
O775   C787    1.277   .     A
O776   C788    1.278   .     A
O777   C789    1.281   .     A
O778   C790    1.282   .     A
O779   C789    1.273   .     A
O780   C790    1.282   .     A
O781   C787    1.276   .     A
O782   C788    1.256   .     A
O783   C785    1.273   .     A
O784   C786    1.283   .     A
C785   C814    1.436   .     S
C786   C812    1.454   .     S
C787   C818    1.425   .     S
C788   C816    1.451   .     S
C789   C794    1.450   .     S
C790   C806    1.475   .     S
C791   C805    1.394   .     A
H792   C805    1.084   .     S
H793   C802    1.082   .     S
C794   C804    1.389   .     A
C794   C805    1.393   .     A
C795   C796    1.387   .     A
C795   H808    1.083   .     S
C795   C806    1.401   .     A
C796   C266    1.391   1_556 S
C796   H279    1.083   1_556 S
C797   H809    1.076   .     S
C798   C799    1.421   .     A
C798   C266    1.418   1_556 S
C798   C269    1.428   1_556 S
C799   C803    1.407   .     A
C799   C806    1.419   .     A
C800   C804    1.409   .     A
C801   C802    1.398   .     A
C801   C260    1.417   1_556 S
C801   C269    1.429   1_556 S
C802   C803    1.382   .     A
C803   H811    1.081   .     S
C804   H807    1.077   .     S
C812   H872    1.088   .     S
C812   C873    1.335   .     S
H815   C873    1.086   .     S
C816   H994    1.088   .     S
C816   C995    1.350   .     S
S819   O821    1.504   .     D
S819   O820    1.504   .     D
S819   C995    1.779   .     S
S819   O999    1.683   .     S
O822   H823    0.990   .     S
N824   O825    1.301   .     A
N824   C260    1.439   1_556 S
N824   O295    1.301   1_556 S
Zn827  O831    1.961   .     S
Zn827  O839    1.924   .     S
Zn827  O840    1.941   .     S
Zn827  O833    1.921   .     S
Zn828  O842    1.919   .     S
Zn828  O831    1.955   .     S
Zn828  O836    1.928   .     S
Zn828  O834    1.944   .     S
Zn829  O835    1.938   .     S
Zn829  O838    1.938   .     S
Zn829  O843    1.934   .     S
Zn829  O831    1.935   .     S
Zn830  O841    1.942   .     S
Zn830  O837    1.942   .     S
Zn830  O831    1.926   .     S
Zn830  O832    1.934   .     S
O832   C844    1.272   .     A
O833   C845    1.279   .     A
O834   C846    1.277   .     A
O835   C847    1.278   .     A
O836   C848    1.281   .     A
O837   C849    1.282   .     A
O838   C848    1.273   .     A
O839   C849    1.282   .     A
O840   C846    1.276   .     A
O841   C847    1.256   .     A
O842   C844    1.273   .     A
O843   C845    1.283   .     A
C844   C873    1.436   .     S
C845   C871    1.454   .     S
C846   C877    1.425   .     S
C847   C875    1.451   .     S
C848   C853    1.450   .     S
C849   C865    1.475   .     S
C850   C864    1.394   .     A
H851   C864    1.084   .     S
H852   C861    1.082   .     S
C853   C863    1.389   .     A
C853   C864    1.393   .     A
C854   C855    1.387   .     A
C854   H867    1.083   .     S
C854   C865    1.401   .     A
C855   C325    1.391   1_556 S
C855   H338    1.083   1_556 S
C856   H868    1.076   .     S
C857   C858    1.421   .     A
C857   C325    1.418   1_556 S
C857   C328    1.428   1_556 S
C858   C862    1.407   .     A
C858   C865    1.419   .     A
C859   C863    1.409   .     A
C860   C861    1.398   .     A
C860   C319    1.417   1_556 S
C860   C328    1.429   1_556 S
C861   C862    1.382   .     A
C862   H870    1.081   .     S
C863   H866    1.077   .     S
C871   H754    1.088   1_655 S
C871   C755    1.335   1_655 S
H874   C755    1.086   1_655 S
C875   H1053   1.088   .     S
C875   C1054   1.350   .     S
S878   O880    1.504   .     D
S878   O879    1.504   .     D
S878   C1054   1.779   .     S
S878   O1058   1.683   .     S
O881   H882    0.990   .     S
N883   O884    1.301   .     A
N883   C319    1.439   1_556 S
N883   O354    1.301   1_556 S
Zn886  O890    1.961   .     S
Zn886  O898    1.924   .     S
Zn886  O899    1.941   .     S
Zn886  O892    1.921   .     S
Zn887  O901    1.919   .     S
Zn887  O890    1.955   .     S
Zn887  O895    1.928   .     S
Zn887  O893    1.944   .     S
Zn888  O894    1.938   .     S
Zn888  O897    1.938   .     S
Zn888  O902    1.934   .     S
Zn888  O890    1.935   .     S
Zn889  O900    1.942   .     S
Zn889  O896    1.942   .     S
Zn889  O890    1.926   .     S
Zn889  O891    1.934   .     S
O891   C903    1.272   .     A
O892   C904    1.279   .     A
O893   C905    1.277   .     A
O894   C906    1.278   .     A
O895   C907    1.281   .     A
O896   C908    1.282   .     A
O897   C907    1.273   .     A
O898   C908    1.282   .     A
O899   C905    1.276   .     A
O900   C906    1.256   .     A
O901   C903    1.273   .     A
O902   C904    1.283   .     A
C903   C932    1.436   .     S
C904   C930    1.454   .     S
C905   C936    1.425   .     S
C906   C934    1.451   .     S
C907   C912    1.450   .     S
C908   C924    1.475   .     S
C909   C923    1.394   .     A
H910   C923    1.084   .     S
H911   C920    1.082   .     S
C912   C922    1.389   .     A
C912   C923    1.393   .     A
C913   C914    1.387   .     A
C913   H926    1.083   .     S
C913   C924    1.401   .     A
C914   C384    1.391   1_556 S
C914   H397    1.083   1_556 S
C915   H927    1.076   .     S
C916   C917    1.421   .     A
C916   C384    1.418   1_556 S
C916   C387    1.428   1_556 S
C917   C921    1.407   .     A
C917   C924    1.419   .     A
C918   C922    1.409   .     A
C919   C920    1.398   .     A
C919   C378    1.417   1_556 S
C919   C387    1.429   1_556 S
C920   C921    1.382   .     A
C921   H929    1.081   .     S
C922   H925    1.077   .     S
C930   H990    1.088   .     S
C930   C991    1.335   .     S
H931   C1048   1.088   1_455 S
C932   C1048   1.335   1_455 S
C932   H1051   1.086   1_455 S
H933   C991    1.086   .     S
C934   H581    1.088   1_565 S
C934   C582    1.350   1_565 S
S937   O939    1.504   .     D
S937   O938    1.504   .     D
S937   C582    1.779   1_565 S
S937   O586    1.683   1_565 S
O940   H941    0.990   .     S
N942   O943    1.301   .     A
N942   C378    1.439   1_556 S
N942   O413    1.301   1_556 S
Zn945  O949    1.961   .     S
Zn945  O957    1.924   .     S
Zn945  O958    1.941   .     S
Zn945  O951    1.921   .     S
Zn946  O960    1.919   .     S
Zn946  O949    1.955   .     S
Zn946  O954    1.928   .     S
Zn946  O952    1.944   .     S
Zn947  O953    1.938   .     S
Zn947  O956    1.938   .     S
Zn947  O961    1.934   .     S
Zn947  O949    1.935   .     S
Zn948  O959    1.942   .     S
Zn948  O955    1.942   .     S
Zn948  O949    1.926   .     S
Zn948  O950    1.934   .     S
O950   C962    1.272   .     A
O951   C963    1.279   .     A
O952   C964    1.277   .     A
O953   C965    1.278   .     A
O954   C966    1.281   .     A
O955   C967    1.282   .     A
O956   C966    1.273   .     A
O957   C967    1.282   .     A
O958   C964    1.276   .     A
O959   C965    1.256   .     A
O960   C962    1.273   .     A
O961   C963    1.283   .     A
C962   C991    1.436   .     S
C963   C989    1.454   .     S
C964   C995    1.425   .     S
C965   C993    1.451   .     S
C966   C971    1.450   .     S
C967   C983    1.475   .     S
C968   C982    1.394   .     A
H969   C982    1.084   .     S
H970   C979    1.082   .     S
C971   C981    1.389   .     A
C971   C982    1.393   .     A
C972   C973    1.387   .     A
C972   H985    1.083   .     S
C972   C983    1.401   .     A
C973   C443    1.391   1_556 S
C973   H456    1.083   1_556 S
C974   H986    1.076   .     S
C975   C976    1.421   .     A
C975   C443    1.418   1_556 S
C975   C446    1.428   1_556 S
C976   C980    1.407   .     A
C976   C983    1.419   .     A
C977   C981    1.409   .     A
C978   C979    1.398   .     A
C978   C437    1.417   1_556 S
C978   C446    1.429   1_556 S
C979   C980    1.382   .     A
C980   H988    1.081   .     S
C981   H984    1.077   .     S
C989   H1049   1.088   .     S
C989   C1050   1.335   .     S
H992   C1050   1.086   .     S
C993   H640    1.088   1_565 S
C993   C641    1.350   1_565 S
S996   O998    1.504   .     D
S996   O997    1.504   .     D
S996   C641    1.779   1_565 S
S996   O645    1.683   1_565 S
O999   H1000   0.990   .     S
N1001  O1002   1.301   .     A
N1001  C437    1.439   1_556 S
N1001  O472    1.301   1_556 S
Zn1004 O1008   1.961   .     S
Zn1004 O1016   1.924   .     S
Zn1004 O1017   1.941   .     S
Zn1004 O1010   1.921   .     S
Zn1005 O1019   1.919   .     S
Zn1005 O1008   1.955   .     S
Zn1005 O1013   1.928   .     S
Zn1005 O1011   1.944   .     S
Zn1006 O1012   1.938   .     S
Zn1006 O1015   1.938   .     S
Zn1006 O1020   1.934   .     S
Zn1006 O1008   1.935   .     S
Zn1007 O1018   1.942   .     S
Zn1007 O1014   1.942   .     S
Zn1007 O1008   1.926   .     S
Zn1007 O1009   1.934   .     S
O1009  C1021   1.272   .     A
O1010  C1022   1.279   .     A
O1011  C1023   1.277   .     A
O1012  C1024   1.278   .     A
O1013  C1025   1.281   .     A
O1014  C1026   1.282   .     A
O1015  C1025   1.273   .     A
O1016  C1026   1.282   .     A
O1017  C1023   1.276   .     A
O1018  C1024   1.256   .     A
O1019  C1021   1.273   .     A
O1020  C1022   1.283   .     A
C1021  C1050   1.436   .     S
C1022  C1048   1.454   .     S
C1023  C1054   1.425   .     S
C1024  C1052   1.451   .     S
C1025  C1030   1.450   .     S
C1026  C1042   1.475   .     S
C1027  C1041   1.394   .     A
H1028  C1041   1.084   .     S
H1029  C1038   1.082   .     S
C1030  C1040   1.389   .     A
C1030  C1041   1.393   .     A
C1031  C1032   1.387   .     A
C1031  H1044   1.083   .     S
C1031  C1042   1.401   .     A
C1032  C502    1.391   1_556 S
C1032  H515    1.083   1_556 S
C1033  H1045   1.076   .     S
C1034  C1035   1.421   .     A
C1034  C502    1.418   1_556 S
C1034  C505    1.428   1_556 S
C1035  C1039   1.407   .     A
C1035  C1042   1.419   .     A
C1036  C1040   1.409   .     A
C1037  C1038   1.398   .     A
C1037  C496    1.417   1_556 S
C1037  C505    1.429   1_556 S
C1038  C1039   1.382   .     A
C1039  H1047   1.081   .     S
C1040  H1043   1.077   .     S
C1048  H931    1.088   1_655 S
C1048  C932    1.335   1_655 S
H1051  C932    1.086   1_655 S
C1052  H699    1.088   1_565 S
C1052  C700    1.350   1_565 S
S1055  O1057   1.504   .     D
S1055  O1056   1.504   .     D
S1055  C700    1.779   1_565 S
S1055  O704    1.683   1_565 S
O1058  H1059   0.990   .     S
N1060  O1061   1.301   .     A
N1060  C496    1.439   1_556 S
N1060  O531    1.301   1_556 S
