data_str_m2_o1_o17_pcu_sym.36
_audit_creation_date              2020-01-03
_audit_creation_method            'Materials Studio'
_symmetry_space_group_name_H-M    'P1'
_symmetry_Int_Tables_number       1
_symmetry_cell_setting            triclinic
loop_
_symmetry_equiv_pos_as_xyz
  x,y,z
_cell_length_a                    32.5993
_cell_length_b                    28.5186
_cell_length_c                    30.1798
_cell_angle_alpha                 88.9584
_cell_angle_beta                  89.0496
_cell_angle_gamma                 90.0610
loop_
_atom_site_label
_atom_site_type_symbol
_atom_site_fract_x
_atom_site_fract_y
_atom_site_fract_z
_atom_site_U_iso_or_equiv
_atom_site_adp_type
_atom_site_occupancy
C1     C     0.08741   0.16658   0.24990   0.00000  Uiso   1.00
C2     C     0.04282   0.16642   0.25013   0.00000  Uiso   1.00
C3     C     0.14381   0.02536   0.22032   0.00000  Uiso   1.00
C4     C     0.18954   0.30797   0.27967   0.00000  Uiso   1.00
C5     C     0.18955   0.02425   0.27962   0.00000  Uiso   1.00
C6     C     0.14396   0.30908   0.22020   0.00000  Uiso   1.00
C7     C     0.16734   0.16705   0.16439   0.00000  Uiso   1.00
C8     C     0.16581   0.16622   0.33567   0.00000  Uiso   1.00
C9     C     0.18755   0.19939   0.40561   0.00000  Uiso   1.00
C10    C     0.14029   0.13815   0.09474   0.00000  Uiso   1.00
C11    C     0.16487   0.16546   0.38409   0.00000  Uiso   1.00
C12    C     0.24595   0.16691   0.25072   0.00000  Uiso   1.00
C13    C     0.16706   0.16804   0.11612   0.00000  Uiso   1.00
C14    C     0.14101   0.13252   0.40848   0.00000  Uiso   1.00
C15    C     0.19299   0.19861   0.09170   0.00000  Uiso   1.00
C16    C     0.13908   0.13518   0.45517   0.00000  Uiso   1.00
C17    C     0.18994   0.20110   0.04512   0.00000  Uiso   1.00
C18    C     0.16347   0.16869   0.47678   0.00000  Uiso   1.00
C19    C     0.16362   0.16966   0.02348   0.00000  Uiso   1.00
C20    C     0.18824   0.20071   0.45179   0.00000  Uiso   1.00
C21    C     0.13846   0.13817   0.04852   0.00000  Uiso   1.00
C22    C     0.11355   0.10501   0.48068   0.00000  Uiso   1.00
C23    C     0.11246   0.10679   0.02686   0.00000  Uiso   1.00
C24    C     0.21369   0.23311   0.01973   0.00000  Uiso   1.00
C25    C     0.13696   0.05231   0.38416   0.00000  Uiso   1.00
C26    C     0.26436   0.19793   0.11014   0.00000  Uiso   1.00
C27    C     0.04693   0.09715   0.06394   0.00000  Uiso   1.00
C28    C     0.21879   0.31043   0.43949   0.00000  Uiso   1.00
C29    C     0.21290   0.23354   0.47367   0.00000  Uiso   1.00
C30    C     0.02097   0.13242   0.27557   0.00000  Uiso   1.00
C31    C     0.31262   0.20385   0.22916   0.00000  Uiso   1.00
C32    C     0.31155   0.13300   0.27625   0.00000  Uiso   1.00
C33    C     0.02185   0.20147   0.22618   0.00000  Uiso   1.00
C34    C     0.29058   0.16788   0.25198   0.00000  Uiso   1.00
Cl35   Cl    0.04639   0.08955   0.30828   0.00000  Uiso   1.00
Cl36   Cl    0.28827   0.25356   0.20511   0.00000  Uiso   1.00
Cl37   Cl    0.28489   0.09232   0.31134   0.00000  Uiso   1.00
Cl38   Cl    0.04812   0.24112   0.18967   0.00000  Uiso   1.00
Cu39   Cu    0.16667   0.21355   0.25000   0.00000  Uiso   1.00
Cu40   Cu    0.16667   0.11978   0.25000   0.00000  Uiso   1.00
H41    H     0.20520   0.22424   0.38561   0.00000  Uiso   1.00
H42    H     0.13543   0.03487   0.41733   0.00000  Uiso   1.00
H43    H     0.16959   0.05509   0.37330   0.00000  Uiso   1.00
H44    H     0.12049   0.03025   0.36028   0.00000  Uiso   1.00
H45    H     0.22700   0.25752   0.10756   0.00000  Uiso   1.00
H46    H     0.27186   0.18951   0.07513   0.00000  Uiso   1.00
H47    H     0.26345   0.16499   0.13036   0.00000  Uiso   1.00
H48    H     0.28934   0.22056   0.12202   0.00000  Uiso   1.00
H49    H     0.08167   0.04392   0.03685   0.00000  Uiso   1.00
H50    H     0.02895   0.07201   0.08502   0.00000  Uiso   1.00
H51    H     0.02897   0.10606   0.03396   0.00000  Uiso   1.00
H52    H     0.12119   0.11447   0.11460   0.00000  Uiso   1.00
H53    H     0.05198   0.12942   0.08321   0.00000  Uiso   1.00
H54    H     0.25564   0.25285   0.42456   0.00000  Uiso   1.00
H55    H     0.24155   0.00155   0.42393   0.00000  Uiso   1.00
H56    H     0.20622   0.32677   0.46998   0.00000  Uiso   1.00
H57    H     0.19360   0.30479   0.41582   0.00000  Uiso   1.00
H58    H     0.09370   0.07994   0.46526   0.00000  Uiso   1.00
H59    H     0.23371   0.25801   0.03517   0.00000  Uiso   1.00
H60    H     0.12545   0.04450   0.19658   0.00000  Uiso   1.00
H61    H     0.20791   0.28885   0.30341   0.00000  Uiso   1.00
H62    H     0.20784   0.04248   0.30335   0.00000  Uiso   1.00
H63    H     0.12599   0.29084   0.19617   0.00000  Uiso   1.00
H64    H     0.08734   0.09733   0.39357   0.00000  Uiso   1.00
N65    N     0.16667   0.28402   0.25000   0.00000  Uiso   1.00
N66    N     0.16667   0.04931   0.25000   0.00000  Uiso   1.00
N67    N     0.11817   0.09825   0.38551   0.00000  Uiso   1.00
N68    N     0.22528   0.22192   0.11374   0.00000  Uiso   1.00
N69    N     0.08566   0.07607   0.05132   0.00000  Uiso   1.00
N70    N     0.23852   0.26641   0.45032   0.00000  Uiso   1.00
O71    O     0.10655   0.20625   0.25000   0.00000  Uiso   1.00
O72    O     0.22679   0.12709   0.25001   0.00000  Uiso   1.00
O73    O     0.22679   0.20625   0.25001   0.00000  Uiso   1.00
O74    O     0.10655   0.12709   0.25000   0.00000  Uiso   1.00
O75    O     0.16666   0.20627   0.18513   0.00000  Uiso   1.00
O76    O     0.16668   0.12707   0.31487   0.00000  Uiso   1.00
O77    O     0.16668   0.20627   0.31487   0.00000  Uiso   1.00
O78    O     0.16666   0.12707   0.18513   0.00000  Uiso   1.00
C79    C     0.42075   0.16658   0.24990   0.00000  Uiso   1.00
C80    C     0.37616   0.16642   0.25013   0.00000  Uiso   1.00
C81    C     0.47714   0.02536   0.22032   0.00000  Uiso   1.00
C82    C     0.52287   0.30797   0.27967   0.00000  Uiso   1.00
C83    C     0.52289   0.02425   0.27962   0.00000  Uiso   1.00
C84    C     0.47729   0.30908   0.22020   0.00000  Uiso   1.00
C85    C     0.50067   0.16705   0.16439   0.00000  Uiso   1.00
C86    C     0.49914   0.16622   0.33567   0.00000  Uiso   1.00
C87    C     0.52088   0.19939   0.40561   0.00000  Uiso   1.00
C88    C     0.47362   0.13815   0.09474   0.00000  Uiso   1.00
C89    C     0.49821   0.16546   0.38409   0.00000  Uiso   1.00
C90    C     0.57928   0.16691   0.25072   0.00000  Uiso   1.00
C91    C     0.50039   0.16804   0.11612   0.00000  Uiso   1.00
C92    C     0.47434   0.13252   0.40848   0.00000  Uiso   1.00
C93    C     0.52633   0.19861   0.09170   0.00000  Uiso   1.00
C94    C     0.47241   0.13518   0.45517   0.00000  Uiso   1.00
C95    C     0.52327   0.20110   0.04512   0.00000  Uiso   1.00
C96    C     0.49680   0.16869   0.47678   0.00000  Uiso   1.00
C97    C     0.49696   0.16966   0.02348   0.00000  Uiso   1.00
C98    C     0.52157   0.20071   0.45179   0.00000  Uiso   1.00
C99    C     0.47180   0.13817   0.04852   0.00000  Uiso   1.00
C100   C     0.44689   0.10501   0.48068   0.00000  Uiso   1.00
C101   C     0.44580   0.10679   0.02686   0.00000  Uiso   1.00
C102   C     0.54703   0.23311   0.01973   0.00000  Uiso   1.00
C103   C     0.47029   0.05231   0.38416   0.00000  Uiso   1.00
C104   C     0.59769   0.19793   0.11014   0.00000  Uiso   1.00
C105   C     0.38027   0.09715   0.06394   0.00000  Uiso   1.00
C106   C     0.55212   0.31043   0.43949   0.00000  Uiso   1.00
C107   C     0.54623   0.23354   0.47367   0.00000  Uiso   1.00
C108   C     0.35430   0.13242   0.27557   0.00000  Uiso   1.00
C109   C     0.64596   0.20385   0.22916   0.00000  Uiso   1.00
C110   C     0.64488   0.13300   0.27625   0.00000  Uiso   1.00
C111   C     0.35519   0.20147   0.22618   0.00000  Uiso   1.00
C112   C     0.62392   0.16788   0.25198   0.00000  Uiso   1.00
Cl113  Cl    0.37972   0.08955   0.30828   0.00000  Uiso   1.00
Cl114  Cl    0.62160   0.25356   0.20511   0.00000  Uiso   1.00
Cl115  Cl    0.61822   0.09232   0.31134   0.00000  Uiso   1.00
Cl116  Cl    0.38146   0.24112   0.18967   0.00000  Uiso   1.00
Cu117  Cu    0.50000   0.21355   0.25000   0.00000  Uiso   1.00
Cu118  Cu    0.50000   0.11978   0.25000   0.00000  Uiso   1.00
H119   H     0.53853   0.22424   0.38561   0.00000  Uiso   1.00
H120   H     0.46877   0.03487   0.41733   0.00000  Uiso   1.00
H121   H     0.50293   0.05509   0.37330   0.00000  Uiso   1.00
H122   H     0.45382   0.03025   0.36028   0.00000  Uiso   1.00
H123   H     0.56033   0.25752   0.10756   0.00000  Uiso   1.00
H124   H     0.60519   0.18951   0.07513   0.00000  Uiso   1.00
H125   H     0.59678   0.16499   0.13036   0.00000  Uiso   1.00
H126   H     0.62267   0.22056   0.12202   0.00000  Uiso   1.00
H127   H     0.41501   0.04392   0.03685   0.00000  Uiso   1.00
H128   H     0.36228   0.07201   0.08502   0.00000  Uiso   1.00
H129   H     0.36230   0.10606   0.03396   0.00000  Uiso   1.00
H130   H     0.45452   0.11447   0.11460   0.00000  Uiso   1.00
H131   H     0.38531   0.12942   0.08321   0.00000  Uiso   1.00
H132   H     0.58897   0.25285   0.42456   0.00000  Uiso   1.00
H133   H     0.57488   0.00155   0.42393   0.00000  Uiso   1.00
H134   H     0.53956   0.32677   0.46998   0.00000  Uiso   1.00
H135   H     0.52693   0.30479   0.41582   0.00000  Uiso   1.00
H136   H     0.42703   0.07994   0.46526   0.00000  Uiso   1.00
H137   H     0.56705   0.25801   0.03517   0.00000  Uiso   1.00
H138   H     0.45878   0.04450   0.19658   0.00000  Uiso   1.00
H139   H     0.54124   0.28885   0.30341   0.00000  Uiso   1.00
H140   H     0.54117   0.04248   0.30335   0.00000  Uiso   1.00
H141   H     0.45932   0.29084   0.19617   0.00000  Uiso   1.00
H142   H     0.42067   0.09733   0.39357   0.00000  Uiso   1.00
N143   N     0.50000   0.28402   0.25000   0.00000  Uiso   1.00
N144   N     0.50000   0.04931   0.25000   0.00000  Uiso   1.00
N145   N     0.45151   0.09825   0.38551   0.00000  Uiso   1.00
N146   N     0.55861   0.22192   0.11374   0.00000  Uiso   1.00
N147   N     0.41899   0.07607   0.05132   0.00000  Uiso   1.00
N148   N     0.57186   0.26641   0.45032   0.00000  Uiso   1.00
O149   O     0.43988   0.20625   0.25000   0.00000  Uiso   1.00
O150   O     0.56012   0.12709   0.25001   0.00000  Uiso   1.00
O151   O     0.56012   0.20625   0.25001   0.00000  Uiso   1.00
O152   O     0.43988   0.12709   0.25000   0.00000  Uiso   1.00
O153   O     0.49999   0.20627   0.18513   0.00000  Uiso   1.00
O154   O     0.50001   0.12707   0.31487   0.00000  Uiso   1.00
O155   O     0.50001   0.20627   0.31487   0.00000  Uiso   1.00
O156   O     0.49999   0.12707   0.18513   0.00000  Uiso   1.00
C157   C     0.75408   0.16658   0.24990   0.00000  Uiso   1.00
C158   C     0.70949   0.16642   0.25013   0.00000  Uiso   1.00
C159   C     0.81048   0.02536   0.22032   0.00000  Uiso   1.00
C160   C     0.85621   0.30797   0.27967   0.00000  Uiso   1.00
C161   C     0.85622   0.02425   0.27962   0.00000  Uiso   1.00
C162   C     0.81063   0.30908   0.22020   0.00000  Uiso   1.00
C163   C     0.83401   0.16705   0.16439   0.00000  Uiso   1.00
C164   C     0.83248   0.16622   0.33567   0.00000  Uiso   1.00
C165   C     0.85421   0.19939   0.40561   0.00000  Uiso   1.00
C166   C     0.80695   0.13815   0.09474   0.00000  Uiso   1.00
C167   C     0.83154   0.16546   0.38409   0.00000  Uiso   1.00
C168   C     0.91262   0.16691   0.25072   0.00000  Uiso   1.00
C169   C     0.83373   0.16804   0.11612   0.00000  Uiso   1.00
C170   C     0.80767   0.13252   0.40848   0.00000  Uiso   1.00
C171   C     0.85966   0.19861   0.09170   0.00000  Uiso   1.00
C172   C     0.80575   0.13518   0.45517   0.00000  Uiso   1.00
C173   C     0.85660   0.20110   0.04512   0.00000  Uiso   1.00
C174   C     0.83014   0.16869   0.47678   0.00000  Uiso   1.00
C175   C     0.83029   0.16966   0.02348   0.00000  Uiso   1.00
C176   C     0.85491   0.20071   0.45179   0.00000  Uiso   1.00
C177   C     0.80513   0.13817   0.04852   0.00000  Uiso   1.00
C178   C     0.78022   0.10501   0.48068   0.00000  Uiso   1.00
C179   C     0.77913   0.10679   0.02686   0.00000  Uiso   1.00
C180   C     0.88036   0.23311   0.01973   0.00000  Uiso   1.00
C181   C     0.80363   0.05231   0.38416   0.00000  Uiso   1.00
C182   C     0.93103   0.19793   0.11014   0.00000  Uiso   1.00
C183   C     0.71360   0.09715   0.06394   0.00000  Uiso   1.00
C184   C     0.88546   0.31043   0.43949   0.00000  Uiso   1.00
C185   C     0.87957   0.23354   0.47367   0.00000  Uiso   1.00
C186   C     0.68763   0.13242   0.27557   0.00000  Uiso   1.00
C187   C     0.97929   0.20385   0.22916   0.00000  Uiso   1.00
C188   C     0.97822   0.13300   0.27625   0.00000  Uiso   1.00
C189   C     0.68852   0.20147   0.22618   0.00000  Uiso   1.00
C190   C     0.95725   0.16788   0.25198   0.00000  Uiso   1.00
Cl191  Cl    0.71305   0.08955   0.30828   0.00000  Uiso   1.00
Cl192  Cl    0.95494   0.25356   0.20511   0.00000  Uiso   1.00
Cl193  Cl    0.95156   0.09232   0.31134   0.00000  Uiso   1.00
Cl194  Cl    0.71479   0.24112   0.18967   0.00000  Uiso   1.00
Cu195  Cu    0.83333   0.21355   0.25000   0.00000  Uiso   1.00
Cu196  Cu    0.83333   0.11978   0.25000   0.00000  Uiso   1.00
H197   H     0.87187   0.22424   0.38561   0.00000  Uiso   1.00
H198   H     0.80210   0.03487   0.41733   0.00000  Uiso   1.00
H199   H     0.83626   0.05509   0.37330   0.00000  Uiso   1.00
H200   H     0.78715   0.03025   0.36028   0.00000  Uiso   1.00
H201   H     0.89367   0.25752   0.10756   0.00000  Uiso   1.00
H202   H     0.93852   0.18951   0.07513   0.00000  Uiso   1.00
H203   H     0.93012   0.16499   0.13036   0.00000  Uiso   1.00
H204   H     0.95601   0.22056   0.12202   0.00000  Uiso   1.00
H205   H     0.74834   0.04392   0.03685   0.00000  Uiso   1.00
H206   H     0.69561   0.07201   0.08502   0.00000  Uiso   1.00
H207   H     0.69564   0.10606   0.03396   0.00000  Uiso   1.00
H208   H     0.78786   0.11447   0.11460   0.00000  Uiso   1.00
H209   H     0.71865   0.12942   0.08321   0.00000  Uiso   1.00
H210   H     0.92230   0.25285   0.42456   0.00000  Uiso   1.00
H211   H     0.90822   0.00155   0.42393   0.00000  Uiso   1.00
H212   H     0.87289   0.32677   0.46998   0.00000  Uiso   1.00
H213   H     0.86026   0.30479   0.41582   0.00000  Uiso   1.00
H214   H     0.76037   0.07994   0.46526   0.00000  Uiso   1.00
H215   H     0.90038   0.25801   0.03517   0.00000  Uiso   1.00
H216   H     0.79211   0.04450   0.19658   0.00000  Uiso   1.00
H217   H     0.87458   0.28885   0.30341   0.00000  Uiso   1.00
H218   H     0.87450   0.04248   0.30335   0.00000  Uiso   1.00
H219   H     0.79265   0.29084   0.19617   0.00000  Uiso   1.00
H220   H     0.75401   0.09733   0.39357   0.00000  Uiso   1.00
N221   N     0.83333   0.28402   0.25000   0.00000  Uiso   1.00
N222   N     0.83333   0.04931   0.25000   0.00000  Uiso   1.00
N223   N     0.78484   0.09825   0.38551   0.00000  Uiso   1.00
N224   N     0.89195   0.22192   0.11374   0.00000  Uiso   1.00
N225   N     0.75232   0.07607   0.05132   0.00000  Uiso   1.00
N226   N     0.90519   0.26641   0.45032   0.00000  Uiso   1.00
O227   O     0.77321   0.20625   0.25000   0.00000  Uiso   1.00
O228   O     0.89345   0.12709   0.25001   0.00000  Uiso   1.00
O229   O     0.89345   0.20625   0.25001   0.00000  Uiso   1.00
O230   O     0.77321   0.12709   0.25000   0.00000  Uiso   1.00
O231   O     0.83332   0.20627   0.18513   0.00000  Uiso   1.00
O232   O     0.83334   0.12707   0.31487   0.00000  Uiso   1.00
O233   O     0.83334   0.20627   0.31487   0.00000  Uiso   1.00
O234   O     0.83332   0.12707   0.18513   0.00000  Uiso   1.00
C235   C     0.08741   0.49991   0.24990   0.00000  Uiso   1.00
C236   C     0.04282   0.49975   0.25013   0.00000  Uiso   1.00
C237   C     0.14381   0.35870   0.22032   0.00000  Uiso   1.00
C238   C     0.18954   0.64131   0.27967   0.00000  Uiso   1.00
C239   C     0.18955   0.35758   0.27962   0.00000  Uiso   1.00
C240   C     0.14396   0.64241   0.22020   0.00000  Uiso   1.00
C241   C     0.16734   0.50038   0.16439   0.00000  Uiso   1.00
C242   C     0.16581   0.49955   0.33567   0.00000  Uiso   1.00
C243   C     0.18755   0.53272   0.40561   0.00000  Uiso   1.00
C244   C     0.14029   0.47148   0.09474   0.00000  Uiso   1.00
C245   C     0.16487   0.49879   0.38409   0.00000  Uiso   1.00
C246   C     0.24595   0.50024   0.25072   0.00000  Uiso   1.00
C247   C     0.16706   0.50138   0.11612   0.00000  Uiso   1.00
C248   C     0.14101   0.46586   0.40848   0.00000  Uiso   1.00
C249   C     0.19299   0.53195   0.09170   0.00000  Uiso   1.00
C250   C     0.13908   0.46851   0.45517   0.00000  Uiso   1.00
C251   C     0.18994   0.53443   0.04512   0.00000  Uiso   1.00
C252   C     0.16347   0.50203   0.47678   0.00000  Uiso   1.00
C253   C     0.16362   0.50299   0.02348   0.00000  Uiso   1.00
C254   C     0.18824   0.53405   0.45179   0.00000  Uiso   1.00
C255   C     0.13846   0.47150   0.04852   0.00000  Uiso   1.00
C256   C     0.11355   0.43834   0.48068   0.00000  Uiso   1.00
C257   C     0.11246   0.44013   0.02686   0.00000  Uiso   1.00
C258   C     0.21369   0.56644   0.01973   0.00000  Uiso   1.00
C259   C     0.13696   0.38564   0.38416   0.00000  Uiso   1.00
C260   C     0.26436   0.53127   0.11014   0.00000  Uiso   1.00
C261   C     0.04693   0.43048   0.06394   0.00000  Uiso   1.00
C262   C     0.21879   0.64377   0.43949   0.00000  Uiso   1.00
C263   C     0.21290   0.56687   0.47367   0.00000  Uiso   1.00
C264   C     0.02097   0.46575   0.27557   0.00000  Uiso   1.00
C265   C     0.31262   0.53719   0.22916   0.00000  Uiso   1.00
C266   C     0.31155   0.46633   0.27625   0.00000  Uiso   1.00
C267   C     0.02185   0.53480   0.22618   0.00000  Uiso   1.00
C268   C     0.29058   0.50121   0.25198   0.00000  Uiso   1.00
Cl269  Cl    0.04639   0.42289   0.30828   0.00000  Uiso   1.00
Cl270  Cl    0.28827   0.58690   0.20511   0.00000  Uiso   1.00
Cl271  Cl    0.28489   0.42566   0.31134   0.00000  Uiso   1.00
Cl272  Cl    0.04812   0.57445   0.18967   0.00000  Uiso   1.00
Cu273  Cu    0.16667   0.54689   0.25000   0.00000  Uiso   1.00
Cu274  Cu    0.16667   0.45311   0.25000   0.00000  Uiso   1.00
H275   H     0.20520   0.55758   0.38561   0.00000  Uiso   1.00
H276   H     0.13543   0.36820   0.41733   0.00000  Uiso   1.00
H277   H     0.16959   0.38842   0.37330   0.00000  Uiso   1.00
H278   H     0.12049   0.36358   0.36028   0.00000  Uiso   1.00
H279   H     0.22700   0.59086   0.10756   0.00000  Uiso   1.00
H280   H     0.27186   0.52284   0.07513   0.00000  Uiso   1.00
H281   H     0.26345   0.49833   0.13036   0.00000  Uiso   1.00
H282   H     0.28934   0.55390   0.12202   0.00000  Uiso   1.00
H283   H     0.08167   0.37725   0.03685   0.00000  Uiso   1.00
H284   H     0.02895   0.40534   0.08502   0.00000  Uiso   1.00
H285   H     0.02897   0.43940   0.03396   0.00000  Uiso   1.00
H286   H     0.12119   0.44781   0.11460   0.00000  Uiso   1.00
H287   H     0.05198   0.46275   0.08321   0.00000  Uiso   1.00
H288   H     0.25564   0.58618   0.42456   0.00000  Uiso   1.00
H289   H     0.24155   0.33489   0.42393   0.00000  Uiso   1.00
H290   H     0.20622   0.66010   0.46998   0.00000  Uiso   1.00
H291   H     0.19360   0.63812   0.41582   0.00000  Uiso   1.00
H292   H     0.09370   0.41328   0.46526   0.00000  Uiso   1.00
H293   H     0.23371   0.59134   0.03517   0.00000  Uiso   1.00
H294   H     0.12545   0.37783   0.19658   0.00000  Uiso   1.00
H295   H     0.20791   0.62219   0.30341   0.00000  Uiso   1.00
H296   H     0.20784   0.37582   0.30335   0.00000  Uiso   1.00
H297   H     0.12599   0.62417   0.19617   0.00000  Uiso   1.00
H298   H     0.08734   0.43066   0.39357   0.00000  Uiso   1.00
N299   N     0.16667   0.61736   0.25000   0.00000  Uiso   1.00
N300   N     0.16667   0.38264   0.25000   0.00000  Uiso   1.00
N301   N     0.11817   0.43158   0.38551   0.00000  Uiso   1.00
N302   N     0.22528   0.55525   0.11374   0.00000  Uiso   1.00
N303   N     0.08566   0.40941   0.05132   0.00000  Uiso   1.00
N304   N     0.23852   0.59974   0.45032   0.00000  Uiso   1.00
O305   O     0.10655   0.53958   0.25000   0.00000  Uiso   1.00
O306   O     0.22679   0.46042   0.25001   0.00000  Uiso   1.00
O307   O     0.22679   0.53958   0.25001   0.00000  Uiso   1.00
O308   O     0.10655   0.46042   0.25000   0.00000  Uiso   1.00
O309   O     0.16666   0.53960   0.18513   0.00000  Uiso   1.00
O310   O     0.16668   0.46040   0.31487   0.00000  Uiso   1.00
O311   O     0.16668   0.53960   0.31487   0.00000  Uiso   1.00
O312   O     0.16666   0.46040   0.18513   0.00000  Uiso   1.00
C313   C     0.42075   0.49991   0.24990   0.00000  Uiso   1.00
C314   C     0.37616   0.49975   0.25013   0.00000  Uiso   1.00
C315   C     0.47714   0.35870   0.22032   0.00000  Uiso   1.00
C316   C     0.52287   0.64131   0.27967   0.00000  Uiso   1.00
C317   C     0.52289   0.35758   0.27962   0.00000  Uiso   1.00
C318   C     0.47729   0.64241   0.22020   0.00000  Uiso   1.00
C319   C     0.50067   0.50038   0.16439   0.00000  Uiso   1.00
C320   C     0.49914   0.49955   0.33567   0.00000  Uiso   1.00
C321   C     0.52088   0.53272   0.40561   0.00000  Uiso   1.00
C322   C     0.47362   0.47148   0.09474   0.00000  Uiso   1.00
C323   C     0.49821   0.49879   0.38409   0.00000  Uiso   1.00
C324   C     0.57928   0.50024   0.25072   0.00000  Uiso   1.00
C325   C     0.50039   0.50138   0.11612   0.00000  Uiso   1.00
C326   C     0.47434   0.46586   0.40848   0.00000  Uiso   1.00
C327   C     0.52633   0.53195   0.09170   0.00000  Uiso   1.00
C328   C     0.47241   0.46851   0.45517   0.00000  Uiso   1.00
C329   C     0.52327   0.53443   0.04512   0.00000  Uiso   1.00
C330   C     0.49680   0.50203   0.47678   0.00000  Uiso   1.00
C331   C     0.49696   0.50299   0.02348   0.00000  Uiso   1.00
C332   C     0.52157   0.53405   0.45179   0.00000  Uiso   1.00
C333   C     0.47180   0.47150   0.04852   0.00000  Uiso   1.00
C334   C     0.44689   0.43834   0.48068   0.00000  Uiso   1.00
C335   C     0.44580   0.44013   0.02686   0.00000  Uiso   1.00
C336   C     0.54703   0.56644   0.01973   0.00000  Uiso   1.00
C337   C     0.47029   0.38564   0.38416   0.00000  Uiso   1.00
C338   C     0.59769   0.53127   0.11014   0.00000  Uiso   1.00
C339   C     0.38027   0.43048   0.06394   0.00000  Uiso   1.00
C340   C     0.55212   0.64377   0.43949   0.00000  Uiso   1.00
C341   C     0.54623   0.56687   0.47367   0.00000  Uiso   1.00
C342   C     0.35430   0.46575   0.27557   0.00000  Uiso   1.00
C343   C     0.64596   0.53719   0.22916   0.00000  Uiso   1.00
C344   C     0.64488   0.46633   0.27625   0.00000  Uiso   1.00
C345   C     0.35519   0.53480   0.22618   0.00000  Uiso   1.00
C346   C     0.62392   0.50121   0.25198   0.00000  Uiso   1.00
Cl347  Cl    0.37972   0.42289   0.30828   0.00000  Uiso   1.00
Cl348  Cl    0.62160   0.58690   0.20511   0.00000  Uiso   1.00
Cl349  Cl    0.61822   0.42566   0.31134   0.00000  Uiso   1.00
Cl350  Cl    0.38146   0.57445   0.18967   0.00000  Uiso   1.00
Cu351  Cu    0.50000   0.54689   0.25000   0.00000  Uiso   1.00
Cu352  Cu    0.50000   0.45311   0.25000   0.00000  Uiso   1.00
H353   H     0.53853   0.55758   0.38561   0.00000  Uiso   1.00
H354   H     0.46877   0.36820   0.41733   0.00000  Uiso   1.00
H355   H     0.50293   0.38842   0.37330   0.00000  Uiso   1.00
H356   H     0.45382   0.36358   0.36028   0.00000  Uiso   1.00
H357   H     0.56033   0.59086   0.10756   0.00000  Uiso   1.00
H358   H     0.60519   0.52284   0.07513   0.00000  Uiso   1.00
H359   H     0.59678   0.49833   0.13036   0.00000  Uiso   1.00
H360   H     0.62267   0.55390   0.12202   0.00000  Uiso   1.00
H361   H     0.41501   0.37725   0.03685   0.00000  Uiso   1.00
H362   H     0.36228   0.40534   0.08502   0.00000  Uiso   1.00
H363   H     0.36230   0.43940   0.03396   0.00000  Uiso   1.00
H364   H     0.45452   0.44781   0.11460   0.00000  Uiso   1.00
H365   H     0.38531   0.46275   0.08321   0.00000  Uiso   1.00
H366   H     0.58897   0.58618   0.42456   0.00000  Uiso   1.00
H367   H     0.57488   0.33489   0.42393   0.00000  Uiso   1.00
H368   H     0.53956   0.66010   0.46998   0.00000  Uiso   1.00
H369   H     0.52693   0.63812   0.41582   0.00000  Uiso   1.00
H370   H     0.42703   0.41328   0.46526   0.00000  Uiso   1.00
H371   H     0.56705   0.59134   0.03517   0.00000  Uiso   1.00
H372   H     0.45878   0.37783   0.19658   0.00000  Uiso   1.00
H373   H     0.54124   0.62219   0.30341   0.00000  Uiso   1.00
H374   H     0.54117   0.37582   0.30335   0.00000  Uiso   1.00
H375   H     0.45932   0.62417   0.19617   0.00000  Uiso   1.00
H376   H     0.42067   0.43066   0.39357   0.00000  Uiso   1.00
N377   N     0.50000   0.61736   0.25000   0.00000  Uiso   1.00
N378   N     0.50000   0.38264   0.25000   0.00000  Uiso   1.00
N379   N     0.45151   0.43158   0.38551   0.00000  Uiso   1.00
N380   N     0.55861   0.55525   0.11374   0.00000  Uiso   1.00
N381   N     0.41899   0.40941   0.05132   0.00000  Uiso   1.00
N382   N     0.57186   0.59974   0.45032   0.00000  Uiso   1.00
O383   O     0.43988   0.53958   0.25000   0.00000  Uiso   1.00
O384   O     0.56012   0.46042   0.25001   0.00000  Uiso   1.00
O385   O     0.56012   0.53958   0.25001   0.00000  Uiso   1.00
O386   O     0.43988   0.46042   0.25000   0.00000  Uiso   1.00
O387   O     0.49999   0.53960   0.18513   0.00000  Uiso   1.00
O388   O     0.50001   0.46040   0.31487   0.00000  Uiso   1.00
O389   O     0.50001   0.53960   0.31487   0.00000  Uiso   1.00
O390   O     0.49999   0.46040   0.18513   0.00000  Uiso   1.00
C391   C     0.75408   0.49991   0.24990   0.00000  Uiso   1.00
C392   C     0.70949   0.49975   0.25013   0.00000  Uiso   1.00
C393   C     0.81048   0.35870   0.22032   0.00000  Uiso   1.00
C394   C     0.85621   0.64131   0.27967   0.00000  Uiso   1.00
C395   C     0.85622   0.35758   0.27962   0.00000  Uiso   1.00
C396   C     0.81063   0.64241   0.22020   0.00000  Uiso   1.00
C397   C     0.83401   0.50038   0.16439   0.00000  Uiso   1.00
C398   C     0.83248   0.49955   0.33567   0.00000  Uiso   1.00
C399   C     0.85421   0.53272   0.40561   0.00000  Uiso   1.00
C400   C     0.80695   0.47148   0.09474   0.00000  Uiso   1.00
C401   C     0.83154   0.49879   0.38409   0.00000  Uiso   1.00
C402   C     0.91262   0.50024   0.25072   0.00000  Uiso   1.00
C403   C     0.83373   0.50138   0.11612   0.00000  Uiso   1.00
C404   C     0.80767   0.46586   0.40848   0.00000  Uiso   1.00
C405   C     0.85966   0.53195   0.09170   0.00000  Uiso   1.00
C406   C     0.80575   0.46851   0.45517   0.00000  Uiso   1.00
C407   C     0.85660   0.53443   0.04512   0.00000  Uiso   1.00
C408   C     0.83014   0.50203   0.47678   0.00000  Uiso   1.00
C409   C     0.83029   0.50299   0.02348   0.00000  Uiso   1.00
C410   C     0.85491   0.53405   0.45179   0.00000  Uiso   1.00
C411   C     0.80513   0.47150   0.04852   0.00000  Uiso   1.00
C412   C     0.78022   0.43834   0.48068   0.00000  Uiso   1.00
C413   C     0.77913   0.44013   0.02686   0.00000  Uiso   1.00
C414   C     0.88036   0.56644   0.01973   0.00000  Uiso   1.00
C415   C     0.80363   0.38564   0.38416   0.00000  Uiso   1.00
C416   C     0.93103   0.53127   0.11014   0.00000  Uiso   1.00
C417   C     0.71360   0.43048   0.06394   0.00000  Uiso   1.00
C418   C     0.88546   0.64377   0.43949   0.00000  Uiso   1.00
C419   C     0.87957   0.56687   0.47367   0.00000  Uiso   1.00
C420   C     0.68763   0.46575   0.27557   0.00000  Uiso   1.00
C421   C     0.97929   0.53719   0.22916   0.00000  Uiso   1.00
C422   C     0.97822   0.46633   0.27625   0.00000  Uiso   1.00
C423   C     0.68852   0.53480   0.22618   0.00000  Uiso   1.00
C424   C     0.95725   0.50121   0.25198   0.00000  Uiso   1.00
Cl425  Cl    0.71305   0.42289   0.30828   0.00000  Uiso   1.00
Cl426  Cl    0.95494   0.58690   0.20511   0.00000  Uiso   1.00
Cl427  Cl    0.95156   0.42566   0.31134   0.00000  Uiso   1.00
Cl428  Cl    0.71479   0.57445   0.18967   0.00000  Uiso   1.00
Cu429  Cu    0.83333   0.54689   0.25000   0.00000  Uiso   1.00
Cu430  Cu    0.83333   0.45311   0.25000   0.00000  Uiso   1.00
H431   H     0.87187   0.55758   0.38561   0.00000  Uiso   1.00
H432   H     0.80210   0.36820   0.41733   0.00000  Uiso   1.00
H433   H     0.83626   0.38842   0.37330   0.00000  Uiso   1.00
H434   H     0.78715   0.36358   0.36028   0.00000  Uiso   1.00
H435   H     0.89367   0.59086   0.10756   0.00000  Uiso   1.00
H436   H     0.93852   0.52284   0.07513   0.00000  Uiso   1.00
H437   H     0.93012   0.49833   0.13036   0.00000  Uiso   1.00
H438   H     0.95601   0.55390   0.12202   0.00000  Uiso   1.00
H439   H     0.74834   0.37725   0.03685   0.00000  Uiso   1.00
H440   H     0.69561   0.40534   0.08502   0.00000  Uiso   1.00
H441   H     0.69564   0.43940   0.03396   0.00000  Uiso   1.00
H442   H     0.78786   0.44781   0.11460   0.00000  Uiso   1.00
H443   H     0.71865   0.46275   0.08321   0.00000  Uiso   1.00
H444   H     0.92230   0.58618   0.42456   0.00000  Uiso   1.00
H445   H     0.90822   0.33489   0.42393   0.00000  Uiso   1.00
H446   H     0.87289   0.66010   0.46998   0.00000  Uiso   1.00
H447   H     0.86026   0.63812   0.41582   0.00000  Uiso   1.00
H448   H     0.76037   0.41328   0.46526   0.00000  Uiso   1.00
H449   H     0.90038   0.59134   0.03517   0.00000  Uiso   1.00
H450   H     0.79211   0.37783   0.19658   0.00000  Uiso   1.00
H451   H     0.87458   0.62219   0.30341   0.00000  Uiso   1.00
H452   H     0.87450   0.37582   0.30335   0.00000  Uiso   1.00
H453   H     0.79265   0.62417   0.19617   0.00000  Uiso   1.00
H454   H     0.75401   0.43066   0.39357   0.00000  Uiso   1.00
N455   N     0.83333   0.61736   0.25000   0.00000  Uiso   1.00
N456   N     0.83333   0.38264   0.25000   0.00000  Uiso   1.00
N457   N     0.78484   0.43158   0.38551   0.00000  Uiso   1.00
N458   N     0.89195   0.55525   0.11374   0.00000  Uiso   1.00
N459   N     0.75232   0.40941   0.05132   0.00000  Uiso   1.00
N460   N     0.90519   0.59974   0.45032   0.00000  Uiso   1.00
O461   O     0.77321   0.53958   0.25000   0.00000  Uiso   1.00
O462   O     0.89345   0.46042   0.25001   0.00000  Uiso   1.00
O463   O     0.89345   0.53958   0.25001   0.00000  Uiso   1.00
O464   O     0.77321   0.46042   0.25000   0.00000  Uiso   1.00
O465   O     0.83332   0.53960   0.18513   0.00000  Uiso   1.00
O466   O     0.83334   0.46040   0.31487   0.00000  Uiso   1.00
O467   O     0.83334   0.53960   0.31487   0.00000  Uiso   1.00
O468   O     0.83332   0.46040   0.18513   0.00000  Uiso   1.00
C469   C     0.08741   0.83324   0.24990   0.00000  Uiso   1.00
C470   C     0.04282   0.83308   0.25013   0.00000  Uiso   1.00
C471   C     0.14381   0.69203   0.22032   0.00000  Uiso   1.00
C472   C     0.18954   0.97464   0.27967   0.00000  Uiso   1.00
C473   C     0.18955   0.69092   0.27962   0.00000  Uiso   1.00
C474   C     0.14396   0.97574   0.22020   0.00000  Uiso   1.00
C475   C     0.16734   0.83372   0.16439   0.00000  Uiso   1.00
C476   C     0.16581   0.83288   0.33567   0.00000  Uiso   1.00
C477   C     0.18755   0.86605   0.40561   0.00000  Uiso   1.00
C478   C     0.14029   0.80482   0.09474   0.00000  Uiso   1.00
C479   C     0.16487   0.83213   0.38409   0.00000  Uiso   1.00
C480   C     0.24595   0.83357   0.25072   0.00000  Uiso   1.00
C481   C     0.16706   0.83471   0.11612   0.00000  Uiso   1.00
C482   C     0.14101   0.79919   0.40848   0.00000  Uiso   1.00
C483   C     0.19299   0.86528   0.09170   0.00000  Uiso   1.00
C484   C     0.13908   0.80184   0.45517   0.00000  Uiso   1.00
C485   C     0.18994   0.86776   0.04512   0.00000  Uiso   1.00
C486   C     0.16347   0.83536   0.47678   0.00000  Uiso   1.00
C487   C     0.16362   0.83632   0.02348   0.00000  Uiso   1.00
C488   C     0.18824   0.86738   0.45179   0.00000  Uiso   1.00
C489   C     0.13846   0.80483   0.04852   0.00000  Uiso   1.00
C490   C     0.11355   0.77168   0.48068   0.00000  Uiso   1.00
C491   C     0.11246   0.77346   0.02686   0.00000  Uiso   1.00
C492   C     0.21369   0.89978   0.01973   0.00000  Uiso   1.00
C493   C     0.13696   0.71897   0.38416   0.00000  Uiso   1.00
C494   C     0.26436   0.86460   0.11014   0.00000  Uiso   1.00
C495   C     0.04693   0.76382   0.06394   0.00000  Uiso   1.00
C496   C     0.21879   0.97710   0.43949   0.00000  Uiso   1.00
C497   C     0.21290   0.90021   0.47367   0.00000  Uiso   1.00
C498   C     0.02097   0.79909   0.27557   0.00000  Uiso   1.00
C499   C     0.31262   0.87052   0.22916   0.00000  Uiso   1.00
C500   C     0.31155   0.79966   0.27625   0.00000  Uiso   1.00
C501   C     0.02185   0.86813   0.22618   0.00000  Uiso   1.00
C502   C     0.29058   0.83454   0.25198   0.00000  Uiso   1.00
Cl503  Cl    0.04639   0.75622   0.30828   0.00000  Uiso   1.00
Cl504  Cl    0.28827   0.92023   0.20511   0.00000  Uiso   1.00
Cl505  Cl    0.28489   0.75899   0.31134   0.00000  Uiso   1.00
Cl506  Cl    0.04812   0.90778   0.18967   0.00000  Uiso   1.00
Cu507  Cu    0.16667   0.88022   0.25000   0.00000  Uiso   1.00
Cu508  Cu    0.16667   0.78645   0.25000   0.00000  Uiso   1.00
H509   H     0.20520   0.89091   0.38561   0.00000  Uiso   1.00
H510   H     0.13543   0.70153   0.41733   0.00000  Uiso   1.00
H511   H     0.16959   0.72175   0.37330   0.00000  Uiso   1.00
H512   H     0.12049   0.69691   0.36028   0.00000  Uiso   1.00
H513   H     0.22700   0.92419   0.10756   0.00000  Uiso   1.00
H514   H     0.27186   0.85617   0.07513   0.00000  Uiso   1.00
H515   H     0.26345   0.83166   0.13036   0.00000  Uiso   1.00
H516   H     0.28934   0.88723   0.12202   0.00000  Uiso   1.00
H517   H     0.08167   0.71058   0.03685   0.00000  Uiso   1.00
H518   H     0.02895   0.73867   0.08502   0.00000  Uiso   1.00
H519   H     0.02897   0.77273   0.03396   0.00000  Uiso   1.00
H520   H     0.12119   0.78114   0.11460   0.00000  Uiso   1.00
H521   H     0.05198   0.79609   0.08321   0.00000  Uiso   1.00
H522   H     0.25564   0.91952   0.42456   0.00000  Uiso   1.00
H523   H     0.24155   0.66822   0.42393   0.00000  Uiso   1.00
H524   H     0.20622   0.99344   0.46998   0.00000  Uiso   1.00
H525   H     0.19360   0.97146   0.41582   0.00000  Uiso   1.00
H526   H     0.09370   0.74661   0.46526   0.00000  Uiso   1.00
H527   H     0.23371   0.92468   0.03517   0.00000  Uiso   1.00
H528   H     0.12545   0.71116   0.19658   0.00000  Uiso   1.00
H529   H     0.20791   0.95552   0.30341   0.00000  Uiso   1.00
H530   H     0.20784   0.70915   0.30335   0.00000  Uiso   1.00
H531   H     0.12599   0.95750   0.19617   0.00000  Uiso   1.00
H532   H     0.08734   0.76399   0.39357   0.00000  Uiso   1.00
N533   N     0.16667   0.95069   0.25000   0.00000  Uiso   1.00
N534   N     0.16667   0.71598   0.25000   0.00000  Uiso   1.00
N535   N     0.11817   0.76492   0.38551   0.00000  Uiso   1.00
N536   N     0.22528   0.88859   0.11374   0.00000  Uiso   1.00
N537   N     0.08566   0.74274   0.05132   0.00000  Uiso   1.00
N538   N     0.23852   0.93307   0.45032   0.00000  Uiso   1.00
O539   O     0.10655   0.87291   0.25000   0.00000  Uiso   1.00
O540   O     0.22679   0.79375   0.25001   0.00000  Uiso   1.00
O541   O     0.22679   0.87291   0.25001   0.00000  Uiso   1.00
O542   O     0.10655   0.79375   0.25000   0.00000  Uiso   1.00
O543   O     0.16666   0.87293   0.18513   0.00000  Uiso   1.00
O544   O     0.16668   0.79373   0.31487   0.00000  Uiso   1.00
O545   O     0.16668   0.87293   0.31487   0.00000  Uiso   1.00
O546   O     0.16666   0.79373   0.18513   0.00000  Uiso   1.00
C547   C     0.42075   0.83324   0.24990   0.00000  Uiso   1.00
C548   C     0.37616   0.83308   0.25013   0.00000  Uiso   1.00
C549   C     0.47714   0.69203   0.22032   0.00000  Uiso   1.00
C550   C     0.52287   0.97464   0.27967   0.00000  Uiso   1.00
C551   C     0.52289   0.69092   0.27962   0.00000  Uiso   1.00
C552   C     0.47729   0.97574   0.22020   0.00000  Uiso   1.00
C553   C     0.50067   0.83372   0.16439   0.00000  Uiso   1.00
C554   C     0.49914   0.83288   0.33567   0.00000  Uiso   1.00
C555   C     0.52088   0.86605   0.40561   0.00000  Uiso   1.00
C556   C     0.47362   0.80482   0.09474   0.00000  Uiso   1.00
C557   C     0.49821   0.83213   0.38409   0.00000  Uiso   1.00
C558   C     0.57928   0.83357   0.25072   0.00000  Uiso   1.00
C559   C     0.50039   0.83471   0.11612   0.00000  Uiso   1.00
C560   C     0.47434   0.79919   0.40848   0.00000  Uiso   1.00
C561   C     0.52633   0.86528   0.09170   0.00000  Uiso   1.00
C562   C     0.47241   0.80184   0.45517   0.00000  Uiso   1.00
C563   C     0.52327   0.86776   0.04512   0.00000  Uiso   1.00
C564   C     0.49680   0.83536   0.47678   0.00000  Uiso   1.00
C565   C     0.49696   0.83632   0.02348   0.00000  Uiso   1.00
C566   C     0.52157   0.86738   0.45179   0.00000  Uiso   1.00
C567   C     0.47180   0.80483   0.04852   0.00000  Uiso   1.00
C568   C     0.44689   0.77168   0.48068   0.00000  Uiso   1.00
C569   C     0.44580   0.77346   0.02686   0.00000  Uiso   1.00
C570   C     0.54703   0.89978   0.01973   0.00000  Uiso   1.00
C571   C     0.47029   0.71897   0.38416   0.00000  Uiso   1.00
C572   C     0.59769   0.86460   0.11014   0.00000  Uiso   1.00
C573   C     0.38027   0.76382   0.06394   0.00000  Uiso   1.00
C574   C     0.55212   0.97710   0.43949   0.00000  Uiso   1.00
C575   C     0.54623   0.90021   0.47367   0.00000  Uiso   1.00
C576   C     0.35430   0.79909   0.27557   0.00000  Uiso   1.00
C577   C     0.64596   0.87052   0.22916   0.00000  Uiso   1.00
C578   C     0.64488   0.79966   0.27625   0.00000  Uiso   1.00
C579   C     0.35519   0.86813   0.22618   0.00000  Uiso   1.00
C580   C     0.62392   0.83454   0.25198   0.00000  Uiso   1.00
Cl581  Cl    0.37972   0.75622   0.30828   0.00000  Uiso   1.00
Cl582  Cl    0.62160   0.92023   0.20511   0.00000  Uiso   1.00
Cl583  Cl    0.61822   0.75899   0.31134   0.00000  Uiso   1.00
Cl584  Cl    0.38146   0.90778   0.18967   0.00000  Uiso   1.00
Cu585  Cu    0.50000   0.88022   0.25000   0.00000  Uiso   1.00
Cu586  Cu    0.50000   0.78645   0.25000   0.00000  Uiso   1.00
H587   H     0.53853   0.89091   0.38561   0.00000  Uiso   1.00
H588   H     0.46877   0.70153   0.41733   0.00000  Uiso   1.00
H589   H     0.50293   0.72175   0.37330   0.00000  Uiso   1.00
H590   H     0.45382   0.69691   0.36028   0.00000  Uiso   1.00
H591   H     0.56033   0.92419   0.10756   0.00000  Uiso   1.00
H592   H     0.60519   0.85617   0.07513   0.00000  Uiso   1.00
H593   H     0.59678   0.83166   0.13036   0.00000  Uiso   1.00
H594   H     0.62267   0.88723   0.12202   0.00000  Uiso   1.00
H595   H     0.41501   0.71058   0.03685   0.00000  Uiso   1.00
H596   H     0.36228   0.73867   0.08502   0.00000  Uiso   1.00
H597   H     0.36230   0.77273   0.03396   0.00000  Uiso   1.00
H598   H     0.45452   0.78114   0.11460   0.00000  Uiso   1.00
H599   H     0.38531   0.79609   0.08321   0.00000  Uiso   1.00
H600   H     0.58897   0.91952   0.42456   0.00000  Uiso   1.00
H601   H     0.57488   0.66822   0.42393   0.00000  Uiso   1.00
H602   H     0.53956   0.99344   0.46998   0.00000  Uiso   1.00
H603   H     0.52693   0.97146   0.41582   0.00000  Uiso   1.00
H604   H     0.42703   0.74661   0.46526   0.00000  Uiso   1.00
H605   H     0.56705   0.92468   0.03517   0.00000  Uiso   1.00
H606   H     0.45878   0.71116   0.19658   0.00000  Uiso   1.00
H607   H     0.54124   0.95552   0.30341   0.00000  Uiso   1.00
H608   H     0.54117   0.70915   0.30335   0.00000  Uiso   1.00
H609   H     0.45932   0.95750   0.19617   0.00000  Uiso   1.00
H610   H     0.42067   0.76399   0.39357   0.00000  Uiso   1.00
N611   N     0.50000   0.95069   0.25000   0.00000  Uiso   1.00
N612   N     0.50000   0.71598   0.25000   0.00000  Uiso   1.00
N613   N     0.45151   0.76492   0.38551   0.00000  Uiso   1.00
N614   N     0.55861   0.88859   0.11374   0.00000  Uiso   1.00
N615   N     0.41899   0.74274   0.05132   0.00000  Uiso   1.00
N616   N     0.57186   0.93307   0.45032   0.00000  Uiso   1.00
O617   O     0.43988   0.87291   0.25000   0.00000  Uiso   1.00
O618   O     0.56012   0.79375   0.25001   0.00000  Uiso   1.00
O619   O     0.56012   0.87291   0.25001   0.00000  Uiso   1.00
O620   O     0.43988   0.79375   0.25000   0.00000  Uiso   1.00
O621   O     0.49999   0.87293   0.18513   0.00000  Uiso   1.00
O622   O     0.50001   0.79373   0.31487   0.00000  Uiso   1.00
O623   O     0.50001   0.87293   0.31487   0.00000  Uiso   1.00
O624   O     0.49999   0.79373   0.18513   0.00000  Uiso   1.00
C625   C     0.75408   0.83324   0.24990   0.00000  Uiso   1.00
C626   C     0.70949   0.83308   0.25013   0.00000  Uiso   1.00
C627   C     0.81048   0.69203   0.22032   0.00000  Uiso   1.00
C628   C     0.85621   0.97464   0.27967   0.00000  Uiso   1.00
C629   C     0.85622   0.69092   0.27962   0.00000  Uiso   1.00
C630   C     0.81063   0.97574   0.22020   0.00000  Uiso   1.00
C631   C     0.83401   0.83372   0.16439   0.00000  Uiso   1.00
C632   C     0.83248   0.83288   0.33567   0.00000  Uiso   1.00
C633   C     0.85421   0.86605   0.40561   0.00000  Uiso   1.00
C634   C     0.80695   0.80482   0.09474   0.00000  Uiso   1.00
C635   C     0.83154   0.83213   0.38409   0.00000  Uiso   1.00
C636   C     0.91262   0.83357   0.25072   0.00000  Uiso   1.00
C637   C     0.83373   0.83471   0.11612   0.00000  Uiso   1.00
C638   C     0.80767   0.79919   0.40848   0.00000  Uiso   1.00
C639   C     0.85966   0.86528   0.09170   0.00000  Uiso   1.00
C640   C     0.80575   0.80184   0.45517   0.00000  Uiso   1.00
C641   C     0.85660   0.86776   0.04512   0.00000  Uiso   1.00
C642   C     0.83014   0.83536   0.47678   0.00000  Uiso   1.00
C643   C     0.83029   0.83632   0.02348   0.00000  Uiso   1.00
C644   C     0.85491   0.86738   0.45179   0.00000  Uiso   1.00
C645   C     0.80513   0.80483   0.04852   0.00000  Uiso   1.00
C646   C     0.78022   0.77168   0.48068   0.00000  Uiso   1.00
C647   C     0.77913   0.77346   0.02686   0.00000  Uiso   1.00
C648   C     0.88036   0.89978   0.01973   0.00000  Uiso   1.00
C649   C     0.80363   0.71897   0.38416   0.00000  Uiso   1.00
C650   C     0.93103   0.86460   0.11014   0.00000  Uiso   1.00
C651   C     0.71360   0.76382   0.06394   0.00000  Uiso   1.00
C652   C     0.88546   0.97710   0.43949   0.00000  Uiso   1.00
C653   C     0.87957   0.90021   0.47367   0.00000  Uiso   1.00
C654   C     0.68763   0.79909   0.27557   0.00000  Uiso   1.00
C655   C     0.97929   0.87052   0.22916   0.00000  Uiso   1.00
C656   C     0.97822   0.79966   0.27625   0.00000  Uiso   1.00
C657   C     0.68852   0.86813   0.22618   0.00000  Uiso   1.00
C658   C     0.95725   0.83454   0.25198   0.00000  Uiso   1.00
Cl659  Cl    0.71305   0.75622   0.30828   0.00000  Uiso   1.00
Cl660  Cl    0.95494   0.92023   0.20511   0.00000  Uiso   1.00
Cl661  Cl    0.95156   0.75899   0.31134   0.00000  Uiso   1.00
Cl662  Cl    0.71479   0.90778   0.18967   0.00000  Uiso   1.00
Cu663  Cu    0.83333   0.88022   0.25000   0.00000  Uiso   1.00
Cu664  Cu    0.83333   0.78645   0.25000   0.00000  Uiso   1.00
H665   H     0.87187   0.89091   0.38561   0.00000  Uiso   1.00
H666   H     0.80210   0.70153   0.41733   0.00000  Uiso   1.00
H667   H     0.83626   0.72175   0.37330   0.00000  Uiso   1.00
H668   H     0.78715   0.69691   0.36028   0.00000  Uiso   1.00
H669   H     0.89367   0.92419   0.10756   0.00000  Uiso   1.00
H670   H     0.93852   0.85617   0.07513   0.00000  Uiso   1.00
H671   H     0.93012   0.83166   0.13036   0.00000  Uiso   1.00
H672   H     0.95601   0.88723   0.12202   0.00000  Uiso   1.00
H673   H     0.74834   0.71058   0.03685   0.00000  Uiso   1.00
H674   H     0.69561   0.73867   0.08502   0.00000  Uiso   1.00
H675   H     0.69564   0.77273   0.03396   0.00000  Uiso   1.00
H676   H     0.78786   0.78114   0.11460   0.00000  Uiso   1.00
H677   H     0.71865   0.79609   0.08321   0.00000  Uiso   1.00
H678   H     0.92230   0.91952   0.42456   0.00000  Uiso   1.00
H679   H     0.90822   0.66822   0.42393   0.00000  Uiso   1.00
H680   H     0.87289   0.99344   0.46998   0.00000  Uiso   1.00
H681   H     0.86026   0.97146   0.41582   0.00000  Uiso   1.00
H682   H     0.76037   0.74661   0.46526   0.00000  Uiso   1.00
H683   H     0.90038   0.92468   0.03517   0.00000  Uiso   1.00
H684   H     0.79211   0.71116   0.19658   0.00000  Uiso   1.00
H685   H     0.87458   0.95552   0.30341   0.00000  Uiso   1.00
H686   H     0.87450   0.70915   0.30335   0.00000  Uiso   1.00
H687   H     0.79265   0.95750   0.19617   0.00000  Uiso   1.00
H688   H     0.75401   0.76399   0.39357   0.00000  Uiso   1.00
N689   N     0.83333   0.95069   0.25000   0.00000  Uiso   1.00
N690   N     0.83333   0.71598   0.25000   0.00000  Uiso   1.00
N691   N     0.78484   0.76492   0.38551   0.00000  Uiso   1.00
N692   N     0.89195   0.88859   0.11374   0.00000  Uiso   1.00
N693   N     0.75232   0.74274   0.05132   0.00000  Uiso   1.00
N694   N     0.90519   0.93307   0.45032   0.00000  Uiso   1.00
O695   O     0.77321   0.87291   0.25000   0.00000  Uiso   1.00
O696   O     0.89345   0.79375   0.25001   0.00000  Uiso   1.00
O697   O     0.89345   0.87291   0.25001   0.00000  Uiso   1.00
O698   O     0.77321   0.79375   0.25000   0.00000  Uiso   1.00
O699   O     0.83332   0.87293   0.18513   0.00000  Uiso   1.00
O700   O     0.83334   0.79373   0.31487   0.00000  Uiso   1.00
O701   O     0.83334   0.87293   0.31487   0.00000  Uiso   1.00
O702   O     0.83332   0.79373   0.18513   0.00000  Uiso   1.00
C703   C     0.08741   0.16658   0.74990   0.00000  Uiso   1.00
C704   C     0.04282   0.16642   0.75013   0.00000  Uiso   1.00
C705   C     0.14381   0.02536   0.72032   0.00000  Uiso   1.00
C706   C     0.18954   0.30797   0.77967   0.00000  Uiso   1.00
C707   C     0.18955   0.02425   0.77962   0.00000  Uiso   1.00
C708   C     0.14396   0.30908   0.72020   0.00000  Uiso   1.00
C709   C     0.16734   0.16705   0.66439   0.00000  Uiso   1.00
C710   C     0.16581   0.16622   0.83567   0.00000  Uiso   1.00
C711   C     0.18755   0.19939   0.90561   0.00000  Uiso   1.00
C712   C     0.14029   0.13815   0.59474   0.00000  Uiso   1.00
C713   C     0.16487   0.16546   0.88409   0.00000  Uiso   1.00
C714   C     0.24595   0.16691   0.75072   0.00000  Uiso   1.00
C715   C     0.16706   0.16804   0.61612   0.00000  Uiso   1.00
C716   C     0.14101   0.13252   0.90848   0.00000  Uiso   1.00
C717   C     0.19299   0.19861   0.59170   0.00000  Uiso   1.00
C718   C     0.13908   0.13518   0.95517   0.00000  Uiso   1.00
C719   C     0.18994   0.20110   0.54512   0.00000  Uiso   1.00
C720   C     0.16347   0.16869   0.97678   0.00000  Uiso   1.00
C721   C     0.16362   0.16966   0.52348   0.00000  Uiso   1.00
C722   C     0.18824   0.20071   0.95179   0.00000  Uiso   1.00
C723   C     0.13846   0.13817   0.54852   0.00000  Uiso   1.00
C724   C     0.11355   0.10501   0.98068   0.00000  Uiso   1.00
C725   C     0.11246   0.10679   0.52686   0.00000  Uiso   1.00
C726   C     0.21369   0.23311   0.51973   0.00000  Uiso   1.00
C727   C     0.13696   0.05231   0.88416   0.00000  Uiso   1.00
C728   C     0.26436   0.19793   0.61014   0.00000  Uiso   1.00
C729   C     0.04693   0.09715   0.56394   0.00000  Uiso   1.00
C730   C     0.21879   0.31043   0.93949   0.00000  Uiso   1.00
C731   C     0.21290   0.23354   0.97367   0.00000  Uiso   1.00
C732   C     0.02097   0.13242   0.77557   0.00000  Uiso   1.00
C733   C     0.31262   0.20385   0.72916   0.00000  Uiso   1.00
C734   C     0.31155   0.13300   0.77625   0.00000  Uiso   1.00
C735   C     0.02185   0.20147   0.72618   0.00000  Uiso   1.00
C736   C     0.29058   0.16788   0.75198   0.00000  Uiso   1.00
Cl737  Cl    0.04639   0.08955   0.80828   0.00000  Uiso   1.00
Cl738  Cl    0.28827   0.25356   0.70511   0.00000  Uiso   1.00
Cl739  Cl    0.28489   0.09232   0.81134   0.00000  Uiso   1.00
Cl740  Cl    0.04812   0.24112   0.68967   0.00000  Uiso   1.00
Cu741  Cu    0.16667   0.21355   0.75000   0.00000  Uiso   1.00
Cu742  Cu    0.16667   0.11978   0.75000   0.00000  Uiso   1.00
H743   H     0.20520   0.22424   0.88561   0.00000  Uiso   1.00
H744   H     0.13543   0.03487   0.91733   0.00000  Uiso   1.00
H745   H     0.16959   0.05509   0.87330   0.00000  Uiso   1.00
H746   H     0.12049   0.03025   0.86028   0.00000  Uiso   1.00
H747   H     0.22700   0.25752   0.60756   0.00000  Uiso   1.00
H748   H     0.27186   0.18951   0.57513   0.00000  Uiso   1.00
H749   H     0.26345   0.16499   0.63036   0.00000  Uiso   1.00
H750   H     0.28934   0.22056   0.62202   0.00000  Uiso   1.00
H751   H     0.08167   0.04392   0.53685   0.00000  Uiso   1.00
H752   H     0.02895   0.07201   0.58502   0.00000  Uiso   1.00
H753   H     0.02897   0.10606   0.53396   0.00000  Uiso   1.00
H754   H     0.12119   0.11447   0.61460   0.00000  Uiso   1.00
H755   H     0.05198   0.12942   0.58321   0.00000  Uiso   1.00
H756   H     0.25564   0.25285   0.92456   0.00000  Uiso   1.00
H757   H     0.24155   0.00155   0.92393   0.00000  Uiso   1.00
H758   H     0.20622   0.32677   0.96998   0.00000  Uiso   1.00
H759   H     0.19360   0.30479   0.91582   0.00000  Uiso   1.00
H760   H     0.09370   0.07994   0.96526   0.00000  Uiso   1.00
H761   H     0.23371   0.25801   0.53517   0.00000  Uiso   1.00
H762   H     0.12545   0.04450   0.69658   0.00000  Uiso   1.00
H763   H     0.20791   0.28885   0.80341   0.00000  Uiso   1.00
H764   H     0.20784   0.04248   0.80335   0.00000  Uiso   1.00
H765   H     0.12599   0.29084   0.69617   0.00000  Uiso   1.00
H766   H     0.08734   0.09733   0.89357   0.00000  Uiso   1.00
N767   N     0.16667   0.28402   0.75000   0.00000  Uiso   1.00
N768   N     0.16667   0.04931   0.75000   0.00000  Uiso   1.00
N769   N     0.11817   0.09825   0.88551   0.00000  Uiso   1.00
N770   N     0.22528   0.22192   0.61374   0.00000  Uiso   1.00
N771   N     0.08566   0.07607   0.55132   0.00000  Uiso   1.00
N772   N     0.23852   0.26641   0.95032   0.00000  Uiso   1.00
O773   O     0.10655   0.20625   0.75000   0.00000  Uiso   1.00
O774   O     0.22679   0.12709   0.75001   0.00000  Uiso   1.00
O775   O     0.22679   0.20625   0.75001   0.00000  Uiso   1.00
O776   O     0.10655   0.12709   0.75000   0.00000  Uiso   1.00
O777   O     0.16666   0.20627   0.68513   0.00000  Uiso   1.00
O778   O     0.16668   0.12707   0.81487   0.00000  Uiso   1.00
O779   O     0.16668   0.20627   0.81487   0.00000  Uiso   1.00
O780   O     0.16666   0.12707   0.68513   0.00000  Uiso   1.00
C781   C     0.42075   0.16658   0.74990   0.00000  Uiso   1.00
C782   C     0.37616   0.16642   0.75013   0.00000  Uiso   1.00
C783   C     0.47714   0.02536   0.72032   0.00000  Uiso   1.00
C784   C     0.52287   0.30797   0.77967   0.00000  Uiso   1.00
C785   C     0.52289   0.02425   0.77962   0.00000  Uiso   1.00
C786   C     0.47729   0.30908   0.72020   0.00000  Uiso   1.00
C787   C     0.50067   0.16705   0.66439   0.00000  Uiso   1.00
C788   C     0.49914   0.16622   0.83567   0.00000  Uiso   1.00
C789   C     0.52088   0.19939   0.90561   0.00000  Uiso   1.00
C790   C     0.47362   0.13815   0.59474   0.00000  Uiso   1.00
C791   C     0.49821   0.16546   0.88409   0.00000  Uiso   1.00
C792   C     0.57928   0.16691   0.75072   0.00000  Uiso   1.00
C793   C     0.50039   0.16804   0.61612   0.00000  Uiso   1.00
C794   C     0.47434   0.13252   0.90848   0.00000  Uiso   1.00
C795   C     0.52633   0.19861   0.59170   0.00000  Uiso   1.00
C796   C     0.47241   0.13518   0.95517   0.00000  Uiso   1.00
C797   C     0.52327   0.20110   0.54512   0.00000  Uiso   1.00
C798   C     0.49680   0.16869   0.97678   0.00000  Uiso   1.00
C799   C     0.49696   0.16966   0.52348   0.00000  Uiso   1.00
C800   C     0.52157   0.20071   0.95179   0.00000  Uiso   1.00
C801   C     0.47180   0.13817   0.54852   0.00000  Uiso   1.00
C802   C     0.44689   0.10501   0.98068   0.00000  Uiso   1.00
C803   C     0.44580   0.10679   0.52686   0.00000  Uiso   1.00
C804   C     0.54703   0.23311   0.51973   0.00000  Uiso   1.00
C805   C     0.47029   0.05231   0.88416   0.00000  Uiso   1.00
C806   C     0.59769   0.19793   0.61014   0.00000  Uiso   1.00
C807   C     0.38027   0.09715   0.56394   0.00000  Uiso   1.00
C808   C     0.55212   0.31043   0.93949   0.00000  Uiso   1.00
C809   C     0.54623   0.23354   0.97367   0.00000  Uiso   1.00
C810   C     0.35430   0.13242   0.77557   0.00000  Uiso   1.00
C811   C     0.64596   0.20385   0.72916   0.00000  Uiso   1.00
C812   C     0.64488   0.13300   0.77625   0.00000  Uiso   1.00
C813   C     0.35519   0.20147   0.72618   0.00000  Uiso   1.00
C814   C     0.62392   0.16788   0.75198   0.00000  Uiso   1.00
Cl815  Cl    0.37972   0.08955   0.80828   0.00000  Uiso   1.00
Cl816  Cl    0.62160   0.25356   0.70511   0.00000  Uiso   1.00
Cl817  Cl    0.61822   0.09232   0.81134   0.00000  Uiso   1.00
Cl818  Cl    0.38146   0.24112   0.68967   0.00000  Uiso   1.00
Cu819  Cu    0.50000   0.21355   0.75000   0.00000  Uiso   1.00
Cu820  Cu    0.50000   0.11978   0.75000   0.00000  Uiso   1.00
H821   H     0.53853   0.22424   0.88561   0.00000  Uiso   1.00
H822   H     0.46877   0.03487   0.91733   0.00000  Uiso   1.00
H823   H     0.50293   0.05509   0.87330   0.00000  Uiso   1.00
H824   H     0.45382   0.03025   0.86028   0.00000  Uiso   1.00
H825   H     0.56033   0.25752   0.60756   0.00000  Uiso   1.00
H826   H     0.60519   0.18951   0.57513   0.00000  Uiso   1.00
H827   H     0.59678   0.16499   0.63036   0.00000  Uiso   1.00
H828   H     0.62267   0.22056   0.62202   0.00000  Uiso   1.00
H829   H     0.41501   0.04392   0.53685   0.00000  Uiso   1.00
H830   H     0.36228   0.07201   0.58502   0.00000  Uiso   1.00
H831   H     0.36230   0.10606   0.53396   0.00000  Uiso   1.00
H832   H     0.45452   0.11447   0.61460   0.00000  Uiso   1.00
H833   H     0.38531   0.12942   0.58321   0.00000  Uiso   1.00
H834   H     0.58897   0.25285   0.92456   0.00000  Uiso   1.00
H835   H     0.57488   0.00155   0.92393   0.00000  Uiso   1.00
H836   H     0.53956   0.32677   0.96998   0.00000  Uiso   1.00
H837   H     0.52693   0.30479   0.91582   0.00000  Uiso   1.00
H838   H     0.42703   0.07994   0.96526   0.00000  Uiso   1.00
H839   H     0.56705   0.25801   0.53517   0.00000  Uiso   1.00
H840   H     0.45878   0.04450   0.69658   0.00000  Uiso   1.00
H841   H     0.54124   0.28885   0.80341   0.00000  Uiso   1.00
H842   H     0.54117   0.04248   0.80335   0.00000  Uiso   1.00
H843   H     0.45932   0.29084   0.69617   0.00000  Uiso   1.00
H844   H     0.42067   0.09733   0.89357   0.00000  Uiso   1.00
N845   N     0.50000   0.28402   0.75000   0.00000  Uiso   1.00
N846   N     0.50000   0.04931   0.75000   0.00000  Uiso   1.00
N847   N     0.45151   0.09825   0.88551   0.00000  Uiso   1.00
N848   N     0.55861   0.22192   0.61374   0.00000  Uiso   1.00
N849   N     0.41899   0.07607   0.55132   0.00000  Uiso   1.00
N850   N     0.57186   0.26641   0.95032   0.00000  Uiso   1.00
O851   O     0.43988   0.20625   0.75000   0.00000  Uiso   1.00
O852   O     0.56012   0.12709   0.75001   0.00000  Uiso   1.00
O853   O     0.56012   0.20625   0.75001   0.00000  Uiso   1.00
O854   O     0.43988   0.12709   0.75000   0.00000  Uiso   1.00
O855   O     0.49999   0.20627   0.68513   0.00000  Uiso   1.00
O856   O     0.50001   0.12707   0.81487   0.00000  Uiso   1.00
O857   O     0.50001   0.20627   0.81487   0.00000  Uiso   1.00
O858   O     0.49999   0.12707   0.68513   0.00000  Uiso   1.00
C859   C     0.75408   0.16658   0.74990   0.00000  Uiso   1.00
C860   C     0.70949   0.16642   0.75013   0.00000  Uiso   1.00
C861   C     0.81048   0.02536   0.72032   0.00000  Uiso   1.00
C862   C     0.85621   0.30797   0.77967   0.00000  Uiso   1.00
C863   C     0.85622   0.02425   0.77962   0.00000  Uiso   1.00
C864   C     0.81063   0.30908   0.72020   0.00000  Uiso   1.00
C865   C     0.83401   0.16705   0.66439   0.00000  Uiso   1.00
C866   C     0.83248   0.16622   0.83567   0.00000  Uiso   1.00
C867   C     0.85421   0.19939   0.90561   0.00000  Uiso   1.00
C868   C     0.80695   0.13815   0.59474   0.00000  Uiso   1.00
C869   C     0.83154   0.16546   0.88409   0.00000  Uiso   1.00
C870   C     0.91262   0.16691   0.75072   0.00000  Uiso   1.00
C871   C     0.83373   0.16804   0.61612   0.00000  Uiso   1.00
C872   C     0.80767   0.13252   0.90848   0.00000  Uiso   1.00
C873   C     0.85966   0.19861   0.59170   0.00000  Uiso   1.00
C874   C     0.80575   0.13518   0.95517   0.00000  Uiso   1.00
C875   C     0.85660   0.20110   0.54512   0.00000  Uiso   1.00
C876   C     0.83014   0.16869   0.97678   0.00000  Uiso   1.00
C877   C     0.83029   0.16966   0.52348   0.00000  Uiso   1.00
C878   C     0.85491   0.20071   0.95179   0.00000  Uiso   1.00
C879   C     0.80513   0.13817   0.54852   0.00000  Uiso   1.00
C880   C     0.78022   0.10501   0.98068   0.00000  Uiso   1.00
C881   C     0.77913   0.10679   0.52686   0.00000  Uiso   1.00
C882   C     0.88036   0.23311   0.51973   0.00000  Uiso   1.00
C883   C     0.80363   0.05231   0.88416   0.00000  Uiso   1.00
C884   C     0.93103   0.19793   0.61014   0.00000  Uiso   1.00
C885   C     0.71360   0.09715   0.56394   0.00000  Uiso   1.00
C886   C     0.88546   0.31043   0.93949   0.00000  Uiso   1.00
C887   C     0.87957   0.23354   0.97367   0.00000  Uiso   1.00
C888   C     0.68763   0.13242   0.77557   0.00000  Uiso   1.00
C889   C     0.97929   0.20385   0.72916   0.00000  Uiso   1.00
C890   C     0.97822   0.13300   0.77625   0.00000  Uiso   1.00
C891   C     0.68852   0.20147   0.72618   0.00000  Uiso   1.00
C892   C     0.95725   0.16788   0.75198   0.00000  Uiso   1.00
Cl893  Cl    0.71305   0.08955   0.80828   0.00000  Uiso   1.00
Cl894  Cl    0.95494   0.25356   0.70511   0.00000  Uiso   1.00
Cl895  Cl    0.95156   0.09232   0.81134   0.00000  Uiso   1.00
Cl896  Cl    0.71479   0.24112   0.68967   0.00000  Uiso   1.00
Cu897  Cu    0.83333   0.21355   0.75000   0.00000  Uiso   1.00
Cu898  Cu    0.83333   0.11978   0.75000   0.00000  Uiso   1.00
H899   H     0.87187   0.22424   0.88561   0.00000  Uiso   1.00
H900   H     0.80210   0.03487   0.91733   0.00000  Uiso   1.00
H901   H     0.83626   0.05509   0.87330   0.00000  Uiso   1.00
H902   H     0.78715   0.03025   0.86028   0.00000  Uiso   1.00
H903   H     0.89367   0.25752   0.60756   0.00000  Uiso   1.00
H904   H     0.93852   0.18951   0.57513   0.00000  Uiso   1.00
H905   H     0.93012   0.16499   0.63036   0.00000  Uiso   1.00
H906   H     0.95601   0.22056   0.62202   0.00000  Uiso   1.00
H907   H     0.74834   0.04392   0.53685   0.00000  Uiso   1.00
H908   H     0.69561   0.07201   0.58502   0.00000  Uiso   1.00
H909   H     0.69564   0.10606   0.53396   0.00000  Uiso   1.00
H910   H     0.78786   0.11447   0.61460   0.00000  Uiso   1.00
H911   H     0.71865   0.12942   0.58321   0.00000  Uiso   1.00
H912   H     0.92230   0.25285   0.92456   0.00000  Uiso   1.00
H913   H     0.90822   0.00155   0.92393   0.00000  Uiso   1.00
H914   H     0.87289   0.32677   0.96998   0.00000  Uiso   1.00
H915   H     0.86026   0.30479   0.91582   0.00000  Uiso   1.00
H916   H     0.76037   0.07994   0.96526   0.00000  Uiso   1.00
H917   H     0.90038   0.25801   0.53517   0.00000  Uiso   1.00
H918   H     0.79211   0.04450   0.69658   0.00000  Uiso   1.00
H919   H     0.87458   0.28885   0.80341   0.00000  Uiso   1.00
H920   H     0.87450   0.04248   0.80335   0.00000  Uiso   1.00
H921   H     0.79265   0.29084   0.69617   0.00000  Uiso   1.00
H922   H     0.75401   0.09733   0.89357   0.00000  Uiso   1.00
N923   N     0.83333   0.28402   0.75000   0.00000  Uiso   1.00
N924   N     0.83333   0.04931   0.75000   0.00000  Uiso   1.00
N925   N     0.78484   0.09825   0.88551   0.00000  Uiso   1.00
N926   N     0.89195   0.22192   0.61374   0.00000  Uiso   1.00
N927   N     0.75232   0.07607   0.55132   0.00000  Uiso   1.00
N928   N     0.90519   0.26641   0.95032   0.00000  Uiso   1.00
O929   O     0.77321   0.20625   0.75000   0.00000  Uiso   1.00
O930   O     0.89345   0.12709   0.75001   0.00000  Uiso   1.00
O931   O     0.89345   0.20625   0.75001   0.00000  Uiso   1.00
O932   O     0.77321   0.12709   0.75000   0.00000  Uiso   1.00
O933   O     0.83332   0.20627   0.68513   0.00000  Uiso   1.00
O934   O     0.83334   0.12707   0.81487   0.00000  Uiso   1.00
O935   O     0.83334   0.20627   0.81487   0.00000  Uiso   1.00
O936   O     0.83332   0.12707   0.68513   0.00000  Uiso   1.00
C937   C     0.08741   0.49991   0.74990   0.00000  Uiso   1.00
C938   C     0.04282   0.49975   0.75013   0.00000  Uiso   1.00
C939   C     0.14381   0.35870   0.72032   0.00000  Uiso   1.00
C940   C     0.18954   0.64131   0.77967   0.00000  Uiso   1.00
C941   C     0.18955   0.35758   0.77962   0.00000  Uiso   1.00
C942   C     0.14396   0.64241   0.72020   0.00000  Uiso   1.00
C943   C     0.16734   0.50038   0.66439   0.00000  Uiso   1.00
C944   C     0.16581   0.49955   0.83567   0.00000  Uiso   1.00
C945   C     0.18755   0.53272   0.90561   0.00000  Uiso   1.00
C946   C     0.14029   0.47148   0.59474   0.00000  Uiso   1.00
C947   C     0.16487   0.49879   0.88409   0.00000  Uiso   1.00
C948   C     0.24595   0.50024   0.75072   0.00000  Uiso   1.00
C949   C     0.16706   0.50138   0.61612   0.00000  Uiso   1.00
C950   C     0.14101   0.46586   0.90848   0.00000  Uiso   1.00
C951   C     0.19299   0.53195   0.59170   0.00000  Uiso   1.00
C952   C     0.13908   0.46851   0.95517   0.00000  Uiso   1.00
C953   C     0.18994   0.53443   0.54512   0.00000  Uiso   1.00
C954   C     0.16347   0.50203   0.97678   0.00000  Uiso   1.00
C955   C     0.16362   0.50299   0.52348   0.00000  Uiso   1.00
C956   C     0.18824   0.53405   0.95179   0.00000  Uiso   1.00
C957   C     0.13846   0.47150   0.54852   0.00000  Uiso   1.00
C958   C     0.11355   0.43834   0.98068   0.00000  Uiso   1.00
C959   C     0.11246   0.44013   0.52686   0.00000  Uiso   1.00
C960   C     0.21369   0.56644   0.51973   0.00000  Uiso   1.00
C961   C     0.13696   0.38564   0.88416   0.00000  Uiso   1.00
C962   C     0.26436   0.53127   0.61014   0.00000  Uiso   1.00
C963   C     0.04693   0.43048   0.56394   0.00000  Uiso   1.00
C964   C     0.21879   0.64377   0.93949   0.00000  Uiso   1.00
C965   C     0.21290   0.56687   0.97367   0.00000  Uiso   1.00
C966   C     0.02097   0.46575   0.77557   0.00000  Uiso   1.00
C967   C     0.31262   0.53719   0.72916   0.00000  Uiso   1.00
C968   C     0.31155   0.46633   0.77625   0.00000  Uiso   1.00
C969   C     0.02185   0.53480   0.72618   0.00000  Uiso   1.00
C970   C     0.29058   0.50121   0.75198   0.00000  Uiso   1.00
Cl971  Cl    0.04639   0.42289   0.80828   0.00000  Uiso   1.00
Cl972  Cl    0.28827   0.58690   0.70511   0.00000  Uiso   1.00
Cl973  Cl    0.28489   0.42566   0.81134   0.00000  Uiso   1.00
Cl974  Cl    0.04812   0.57445   0.68967   0.00000  Uiso   1.00
Cu975  Cu    0.16667   0.54689   0.75000   0.00000  Uiso   1.00
Cu976  Cu    0.16667   0.45311   0.75000   0.00000  Uiso   1.00
H977   H     0.20520   0.55758   0.88561   0.00000  Uiso   1.00
H978   H     0.13543   0.36820   0.91733   0.00000  Uiso   1.00
H979   H     0.16959   0.38842   0.87330   0.00000  Uiso   1.00
H980   H     0.12049   0.36358   0.86028   0.00000  Uiso   1.00
H981   H     0.22700   0.59086   0.60756   0.00000  Uiso   1.00
H982   H     0.27186   0.52284   0.57513   0.00000  Uiso   1.00
H983   H     0.26345   0.49833   0.63036   0.00000  Uiso   1.00
H984   H     0.28934   0.55390   0.62202   0.00000  Uiso   1.00
H985   H     0.08167   0.37725   0.53685   0.00000  Uiso   1.00
H986   H     0.02895   0.40534   0.58502   0.00000  Uiso   1.00
H987   H     0.02897   0.43940   0.53396   0.00000  Uiso   1.00
H988   H     0.12119   0.44781   0.61460   0.00000  Uiso   1.00
H989   H     0.05198   0.46275   0.58321   0.00000  Uiso   1.00
H990   H     0.25564   0.58618   0.92456   0.00000  Uiso   1.00
H991   H     0.24155   0.33489   0.92393   0.00000  Uiso   1.00
H992   H     0.20622   0.66010   0.96998   0.00000  Uiso   1.00
H993   H     0.19360   0.63812   0.91582   0.00000  Uiso   1.00
H994   H     0.09370   0.41328   0.96526   0.00000  Uiso   1.00
H995   H     0.23371   0.59134   0.53517   0.00000  Uiso   1.00
H996   H     0.12545   0.37783   0.69658   0.00000  Uiso   1.00
H997   H     0.20791   0.62219   0.80341   0.00000  Uiso   1.00
H998   H     0.20784   0.37582   0.80335   0.00000  Uiso   1.00
H999   H     0.12599   0.62417   0.69617   0.00000  Uiso   1.00
H1000  H     0.08734   0.43066   0.89357   0.00000  Uiso   1.00
N1001  N     0.16667   0.61736   0.75000   0.00000  Uiso   1.00
N1002  N     0.16667   0.38264   0.75000   0.00000  Uiso   1.00
N1003  N     0.11817   0.43158   0.88551   0.00000  Uiso   1.00
N1004  N     0.22528   0.55525   0.61374   0.00000  Uiso   1.00
N1005  N     0.08566   0.40941   0.55132   0.00000  Uiso   1.00
N1006  N     0.23852   0.59974   0.95032   0.00000  Uiso   1.00
O1007  O     0.10655   0.53958   0.75000   0.00000  Uiso   1.00
O1008  O     0.22679   0.46042   0.75001   0.00000  Uiso   1.00
O1009  O     0.22679   0.53958   0.75001   0.00000  Uiso   1.00
O1010  O     0.10655   0.46042   0.75000   0.00000  Uiso   1.00
O1011  O     0.16666   0.53960   0.68513   0.00000  Uiso   1.00
O1012  O     0.16668   0.46040   0.81487   0.00000  Uiso   1.00
O1013  O     0.16668   0.53960   0.81487   0.00000  Uiso   1.00
O1014  O     0.16666   0.46040   0.68513   0.00000  Uiso   1.00
C1015  C     0.42075   0.49991   0.74990   0.00000  Uiso   1.00
C1016  C     0.37616   0.49975   0.75013   0.00000  Uiso   1.00
C1017  C     0.47714   0.35870   0.72032   0.00000  Uiso   1.00
C1018  C     0.52287   0.64131   0.77967   0.00000  Uiso   1.00
C1019  C     0.52289   0.35758   0.77962   0.00000  Uiso   1.00
C1020  C     0.47729   0.64241   0.72020   0.00000  Uiso   1.00
C1021  C     0.50067   0.50038   0.66439   0.00000  Uiso   1.00
C1022  C     0.49914   0.49955   0.83567   0.00000  Uiso   1.00
C1023  C     0.52088   0.53272   0.90561   0.00000  Uiso   1.00
C1024  C     0.47362   0.47148   0.59474   0.00000  Uiso   1.00
C1025  C     0.49821   0.49879   0.88409   0.00000  Uiso   1.00
C1026  C     0.57928   0.50024   0.75072   0.00000  Uiso   1.00
C1027  C     0.50039   0.50138   0.61612   0.00000  Uiso   1.00
C1028  C     0.47434   0.46586   0.90848   0.00000  Uiso   1.00
C1029  C     0.52633   0.53195   0.59170   0.00000  Uiso   1.00
C1030  C     0.47241   0.46851   0.95517   0.00000  Uiso   1.00
C1031  C     0.52327   0.53443   0.54512   0.00000  Uiso   1.00
C1032  C     0.49680   0.50203   0.97678   0.00000  Uiso   1.00
C1033  C     0.49696   0.50299   0.52348   0.00000  Uiso   1.00
C1034  C     0.52157   0.53405   0.95179   0.00000  Uiso   1.00
C1035  C     0.47180   0.47150   0.54852   0.00000  Uiso   1.00
C1036  C     0.44689   0.43834   0.98068   0.00000  Uiso   1.00
C1037  C     0.44580   0.44013   0.52686   0.00000  Uiso   1.00
C1038  C     0.54703   0.56644   0.51973   0.00000  Uiso   1.00
C1039  C     0.47029   0.38564   0.88416   0.00000  Uiso   1.00
C1040  C     0.59769   0.53127   0.61014   0.00000  Uiso   1.00
C1041  C     0.38027   0.43048   0.56394   0.00000  Uiso   1.00
C1042  C     0.55212   0.64377   0.93949   0.00000  Uiso   1.00
C1043  C     0.54623   0.56687   0.97367   0.00000  Uiso   1.00
C1044  C     0.35430   0.46575   0.77557   0.00000  Uiso   1.00
C1045  C     0.64596   0.53719   0.72916   0.00000  Uiso   1.00
C1046  C     0.64488   0.46633   0.77625   0.00000  Uiso   1.00
C1047  C     0.35519   0.53480   0.72618   0.00000  Uiso   1.00
C1048  C     0.62392   0.50121   0.75198   0.00000  Uiso   1.00
Cl1049 Cl    0.37972   0.42289   0.80828   0.00000  Uiso   1.00
Cl1050 Cl    0.62160   0.58690   0.70511   0.00000  Uiso   1.00
Cl1051 Cl    0.61822   0.42566   0.81134   0.00000  Uiso   1.00
Cl1052 Cl    0.38146   0.57445   0.68967   0.00000  Uiso   1.00
Cu1053 Cu    0.50000   0.54689   0.75000   0.00000  Uiso   1.00
Cu1054 Cu    0.50000   0.45311   0.75000   0.00000  Uiso   1.00
H1055  H     0.53853   0.55758   0.88561   0.00000  Uiso   1.00
H1056  H     0.46877   0.36820   0.91733   0.00000  Uiso   1.00
H1057  H     0.50293   0.38842   0.87330   0.00000  Uiso   1.00
H1058  H     0.45382   0.36358   0.86028   0.00000  Uiso   1.00
H1059  H     0.56033   0.59086   0.60756   0.00000  Uiso   1.00
H1060  H     0.60519   0.52284   0.57513   0.00000  Uiso   1.00
H1061  H     0.59678   0.49833   0.63036   0.00000  Uiso   1.00
H1062  H     0.62267   0.55390   0.62202   0.00000  Uiso   1.00
H1063  H     0.41501   0.37725   0.53685   0.00000  Uiso   1.00
H1064  H     0.36228   0.40534   0.58502   0.00000  Uiso   1.00
H1065  H     0.36230   0.43940   0.53396   0.00000  Uiso   1.00
H1066  H     0.45452   0.44781   0.61460   0.00000  Uiso   1.00
H1067  H     0.38531   0.46275   0.58321   0.00000  Uiso   1.00
H1068  H     0.58897   0.58618   0.92456   0.00000  Uiso   1.00
H1069  H     0.57488   0.33489   0.92393   0.00000  Uiso   1.00
H1070  H     0.53956   0.66010   0.96998   0.00000  Uiso   1.00
H1071  H     0.52693   0.63812   0.91582   0.00000  Uiso   1.00
H1072  H     0.42703   0.41328   0.96526   0.00000  Uiso   1.00
H1073  H     0.56705   0.59134   0.53517   0.00000  Uiso   1.00
H1074  H     0.45878   0.37783   0.69658   0.00000  Uiso   1.00
H1075  H     0.54124   0.62219   0.80341   0.00000  Uiso   1.00
H1076  H     0.54117   0.37582   0.80335   0.00000  Uiso   1.00
H1077  H     0.45932   0.62417   0.69617   0.00000  Uiso   1.00
H1078  H     0.42067   0.43066   0.89357   0.00000  Uiso   1.00
N1079  N     0.50000   0.61736   0.75000   0.00000  Uiso   1.00
N1080  N     0.50000   0.38264   0.75000   0.00000  Uiso   1.00
N1081  N     0.45151   0.43158   0.88551   0.00000  Uiso   1.00
N1082  N     0.55861   0.55525   0.61374   0.00000  Uiso   1.00
N1083  N     0.41899   0.40941   0.55132   0.00000  Uiso   1.00
N1084  N     0.57186   0.59974   0.95032   0.00000  Uiso   1.00
O1085  O     0.43988   0.53958   0.75000   0.00000  Uiso   1.00
O1086  O     0.56012   0.46042   0.75001   0.00000  Uiso   1.00
O1087  O     0.56012   0.53958   0.75001   0.00000  Uiso   1.00
O1088  O     0.43988   0.46042   0.75000   0.00000  Uiso   1.00
O1089  O     0.49999   0.53960   0.68513   0.00000  Uiso   1.00
O1090  O     0.50001   0.46040   0.81487   0.00000  Uiso   1.00
O1091  O     0.50001   0.53960   0.81487   0.00000  Uiso   1.00
O1092  O     0.49999   0.46040   0.68513   0.00000  Uiso   1.00
C1093  C     0.75408   0.49991   0.74990   0.00000  Uiso   1.00
C1094  C     0.70949   0.49975   0.75013   0.00000  Uiso   1.00
C1095  C     0.81048   0.35870   0.72032   0.00000  Uiso   1.00
C1096  C     0.85621   0.64131   0.77967   0.00000  Uiso   1.00
C1097  C     0.85622   0.35758   0.77962   0.00000  Uiso   1.00
C1098  C     0.81063   0.64241   0.72020   0.00000  Uiso   1.00
C1099  C     0.83401   0.50038   0.66439   0.00000  Uiso   1.00
C1100  C     0.83248   0.49955   0.83567   0.00000  Uiso   1.00
C1101  C     0.85421   0.53272   0.90561   0.00000  Uiso   1.00
C1102  C     0.80695   0.47148   0.59474   0.00000  Uiso   1.00
C1103  C     0.83154   0.49879   0.88409   0.00000  Uiso   1.00
C1104  C     0.91262   0.50024   0.75072   0.00000  Uiso   1.00
C1105  C     0.83373   0.50138   0.61612   0.00000  Uiso   1.00
C1106  C     0.80767   0.46586   0.90848   0.00000  Uiso   1.00
C1107  C     0.85966   0.53195   0.59170   0.00000  Uiso   1.00
C1108  C     0.80575   0.46851   0.95517   0.00000  Uiso   1.00
C1109  C     0.85660   0.53443   0.54512   0.00000  Uiso   1.00
C1110  C     0.83014   0.50203   0.97678   0.00000  Uiso   1.00
C1111  C     0.83029   0.50299   0.52348   0.00000  Uiso   1.00
C1112  C     0.85491   0.53405   0.95179   0.00000  Uiso   1.00
C1113  C     0.80513   0.47150   0.54852   0.00000  Uiso   1.00
C1114  C     0.78022   0.43834   0.98068   0.00000  Uiso   1.00
C1115  C     0.77913   0.44013   0.52686   0.00000  Uiso   1.00
C1116  C     0.88036   0.56644   0.51973   0.00000  Uiso   1.00
C1117  C     0.80363   0.38564   0.88416   0.00000  Uiso   1.00
C1118  C     0.93103   0.53127   0.61014   0.00000  Uiso   1.00
C1119  C     0.71360   0.43048   0.56394   0.00000  Uiso   1.00
C1120  C     0.88546   0.64377   0.93949   0.00000  Uiso   1.00
C1121  C     0.87957   0.56687   0.97367   0.00000  Uiso   1.00
C1122  C     0.68763   0.46575   0.77557   0.00000  Uiso   1.00
C1123  C     0.97929   0.53719   0.72916   0.00000  Uiso   1.00
C1124  C     0.97822   0.46633   0.77625   0.00000  Uiso   1.00
C1125  C     0.68852   0.53480   0.72618   0.00000  Uiso   1.00
C1126  C     0.95725   0.50121   0.75198   0.00000  Uiso   1.00
Cl1127 Cl    0.71305   0.42289   0.80828   0.00000  Uiso   1.00
Cl1128 Cl    0.95494   0.58690   0.70511   0.00000  Uiso   1.00
Cl1129 Cl    0.95156   0.42566   0.81134   0.00000  Uiso   1.00
Cl1130 Cl    0.71479   0.57445   0.68967   0.00000  Uiso   1.00
Cu1131 Cu    0.83333   0.54689   0.75000   0.00000  Uiso   1.00
Cu1132 Cu    0.83333   0.45311   0.75000   0.00000  Uiso   1.00
H1133  H     0.87187   0.55758   0.88561   0.00000  Uiso   1.00
H1134  H     0.80210   0.36820   0.91733   0.00000  Uiso   1.00
H1135  H     0.83626   0.38842   0.87330   0.00000  Uiso   1.00
H1136  H     0.78715   0.36358   0.86028   0.00000  Uiso   1.00
H1137  H     0.89367   0.59086   0.60756   0.00000  Uiso   1.00
H1138  H     0.93852   0.52284   0.57513   0.00000  Uiso   1.00
H1139  H     0.93012   0.49833   0.63036   0.00000  Uiso   1.00
H1140  H     0.95601   0.55390   0.62202   0.00000  Uiso   1.00
H1141  H     0.74834   0.37725   0.53685   0.00000  Uiso   1.00
H1142  H     0.69561   0.40534   0.58502   0.00000  Uiso   1.00
H1143  H     0.69564   0.43940   0.53396   0.00000  Uiso   1.00
H1144  H     0.78786   0.44781   0.61460   0.00000  Uiso   1.00
H1145  H     0.71865   0.46275   0.58321   0.00000  Uiso   1.00
H1146  H     0.92230   0.58618   0.92456   0.00000  Uiso   1.00
H1147  H     0.90822   0.33489   0.92393   0.00000  Uiso   1.00
H1148  H     0.87289   0.66010   0.96998   0.00000  Uiso   1.00
H1149  H     0.86026   0.63812   0.91582   0.00000  Uiso   1.00
H1150  H     0.76037   0.41328   0.96526   0.00000  Uiso   1.00
H1151  H     0.90038   0.59134   0.53517   0.00000  Uiso   1.00
H1152  H     0.79211   0.37783   0.69658   0.00000  Uiso   1.00
H1153  H     0.87458   0.62219   0.80341   0.00000  Uiso   1.00
H1154  H     0.87450   0.37582   0.80335   0.00000  Uiso   1.00
H1155  H     0.79265   0.62417   0.69617   0.00000  Uiso   1.00
H1156  H     0.75401   0.43066   0.89357   0.00000  Uiso   1.00
N1157  N     0.83333   0.61736   0.75000   0.00000  Uiso   1.00
N1158  N     0.83333   0.38264   0.75000   0.00000  Uiso   1.00
N1159  N     0.78484   0.43158   0.88551   0.00000  Uiso   1.00
N1160  N     0.89195   0.55525   0.61374   0.00000  Uiso   1.00
N1161  N     0.75232   0.40941   0.55132   0.00000  Uiso   1.00
N1162  N     0.90519   0.59974   0.95032   0.00000  Uiso   1.00
O1163  O     0.77321   0.53958   0.75000   0.00000  Uiso   1.00
O1164  O     0.89345   0.46042   0.75001   0.00000  Uiso   1.00
O1165  O     0.89345   0.53958   0.75001   0.00000  Uiso   1.00
O1166  O     0.77321   0.46042   0.75000   0.00000  Uiso   1.00
O1167  O     0.83332   0.53960   0.68513   0.00000  Uiso   1.00
O1168  O     0.83334   0.46040   0.81487   0.00000  Uiso   1.00
O1169  O     0.83334   0.53960   0.81487   0.00000  Uiso   1.00
O1170  O     0.83332   0.46040   0.68513   0.00000  Uiso   1.00
C1171  C     0.08741   0.83324   0.74990   0.00000  Uiso   1.00
C1172  C     0.04282   0.83308   0.75013   0.00000  Uiso   1.00
C1173  C     0.14381   0.69203   0.72032   0.00000  Uiso   1.00
C1174  C     0.18954   0.97464   0.77967   0.00000  Uiso   1.00
C1175  C     0.18955   0.69092   0.77962   0.00000  Uiso   1.00
C1176  C     0.14396   0.97574   0.72020   0.00000  Uiso   1.00
C1177  C     0.16734   0.83372   0.66439   0.00000  Uiso   1.00
C1178  C     0.16581   0.83288   0.83567   0.00000  Uiso   1.00
C1179  C     0.18755   0.86605   0.90561   0.00000  Uiso   1.00
C1180  C     0.14029   0.80482   0.59474   0.00000  Uiso   1.00
C1181  C     0.16487   0.83213   0.88409   0.00000  Uiso   1.00
C1182  C     0.24595   0.83357   0.75072   0.00000  Uiso   1.00
C1183  C     0.16706   0.83471   0.61612   0.00000  Uiso   1.00
C1184  C     0.14101   0.79919   0.90848   0.00000  Uiso   1.00
C1185  C     0.19299   0.86528   0.59170   0.00000  Uiso   1.00
C1186  C     0.13908   0.80184   0.95517   0.00000  Uiso   1.00
C1187  C     0.18994   0.86776   0.54512   0.00000  Uiso   1.00
C1188  C     0.16347   0.83536   0.97678   0.00000  Uiso   1.00
C1189  C     0.16362   0.83632   0.52348   0.00000  Uiso   1.00
C1190  C     0.18824   0.86738   0.95179   0.00000  Uiso   1.00
C1191  C     0.13846   0.80483   0.54852   0.00000  Uiso   1.00
C1192  C     0.11355   0.77168   0.98068   0.00000  Uiso   1.00
C1193  C     0.11246   0.77346   0.52686   0.00000  Uiso   1.00
C1194  C     0.21369   0.89978   0.51973   0.00000  Uiso   1.00
C1195  C     0.13696   0.71897   0.88416   0.00000  Uiso   1.00
C1196  C     0.26436   0.86460   0.61014   0.00000  Uiso   1.00
C1197  C     0.04693   0.76382   0.56394   0.00000  Uiso   1.00
C1198  C     0.21879   0.97710   0.93949   0.00000  Uiso   1.00
C1199  C     0.21290   0.90021   0.97367   0.00000  Uiso   1.00
C1200  C     0.02097   0.79909   0.77557   0.00000  Uiso   1.00
C1201  C     0.31262   0.87052   0.72916   0.00000  Uiso   1.00
C1202  C     0.31155   0.79966   0.77625   0.00000  Uiso   1.00
C1203  C     0.02185   0.86813   0.72618   0.00000  Uiso   1.00
C1204  C     0.29058   0.83454   0.75198   0.00000  Uiso   1.00
Cl1205 Cl    0.04639   0.75622   0.80828   0.00000  Uiso   1.00
Cl1206 Cl    0.28827   0.92023   0.70511   0.00000  Uiso   1.00
Cl1207 Cl    0.28489   0.75899   0.81134   0.00000  Uiso   1.00
Cl1208 Cl    0.04812   0.90778   0.68967   0.00000  Uiso   1.00
Cu1209 Cu    0.16667   0.88022   0.75000   0.00000  Uiso   1.00
Cu1210 Cu    0.16667   0.78645   0.75000   0.00000  Uiso   1.00
H1211  H     0.20520   0.89091   0.88561   0.00000  Uiso   1.00
H1212  H     0.13543   0.70153   0.91733   0.00000  Uiso   1.00
H1213  H     0.16959   0.72175   0.87330   0.00000  Uiso   1.00
H1214  H     0.12049   0.69691   0.86028   0.00000  Uiso   1.00
H1215  H     0.22700   0.92419   0.60756   0.00000  Uiso   1.00
H1216  H     0.27186   0.85617   0.57513   0.00000  Uiso   1.00
H1217  H     0.26345   0.83166   0.63036   0.00000  Uiso   1.00
H1218  H     0.28934   0.88723   0.62202   0.00000  Uiso   1.00
H1219  H     0.08167   0.71058   0.53685   0.00000  Uiso   1.00
H1220  H     0.02895   0.73867   0.58502   0.00000  Uiso   1.00
H1221  H     0.02897   0.77273   0.53396   0.00000  Uiso   1.00
H1222  H     0.12119   0.78114   0.61460   0.00000  Uiso   1.00
H1223  H     0.05198   0.79609   0.58321   0.00000  Uiso   1.00
H1224  H     0.25564   0.91952   0.92456   0.00000  Uiso   1.00
H1225  H     0.24155   0.66822   0.92393   0.00000  Uiso   1.00
H1226  H     0.20622   0.99344   0.96998   0.00000  Uiso   1.00
H1227  H     0.19360   0.97146   0.91582   0.00000  Uiso   1.00
H1228  H     0.09370   0.74661   0.96526   0.00000  Uiso   1.00
H1229  H     0.23371   0.92468   0.53517   0.00000  Uiso   1.00
H1230  H     0.12545   0.71116   0.69658   0.00000  Uiso   1.00
H1231  H     0.20791   0.95552   0.80341   0.00000  Uiso   1.00
H1232  H     0.20784   0.70915   0.80335   0.00000  Uiso   1.00
H1233  H     0.12599   0.95750   0.69617   0.00000  Uiso   1.00
H1234  H     0.08734   0.76399   0.89357   0.00000  Uiso   1.00
N1235  N     0.16667   0.95069   0.75000   0.00000  Uiso   1.00
N1236  N     0.16667   0.71598   0.75000   0.00000  Uiso   1.00
N1237  N     0.11817   0.76492   0.88551   0.00000  Uiso   1.00
N1238  N     0.22528   0.88859   0.61374   0.00000  Uiso   1.00
N1239  N     0.08566   0.74274   0.55132   0.00000  Uiso   1.00
N1240  N     0.23852   0.93307   0.95032   0.00000  Uiso   1.00
O1241  O     0.10655   0.87291   0.75000   0.00000  Uiso   1.00
O1242  O     0.22679   0.79375   0.75001   0.00000  Uiso   1.00
O1243  O     0.22679   0.87291   0.75001   0.00000  Uiso   1.00
O1244  O     0.10655   0.79375   0.75000   0.00000  Uiso   1.00
O1245  O     0.16666   0.87293   0.68513   0.00000  Uiso   1.00
O1246  O     0.16668   0.79373   0.81487   0.00000  Uiso   1.00
O1247  O     0.16668   0.87293   0.81487   0.00000  Uiso   1.00
O1248  O     0.16666   0.79373   0.68513   0.00000  Uiso   1.00
C1249  C     0.42075   0.83324   0.74990   0.00000  Uiso   1.00
C1250  C     0.37616   0.83308   0.75013   0.00000  Uiso   1.00
C1251  C     0.47714   0.69203   0.72032   0.00000  Uiso   1.00
C1252  C     0.52287   0.97464   0.77967   0.00000  Uiso   1.00
C1253  C     0.52289   0.69092   0.77962   0.00000  Uiso   1.00
C1254  C     0.47729   0.97574   0.72020   0.00000  Uiso   1.00
C1255  C     0.50067   0.83372   0.66439   0.00000  Uiso   1.00
C1256  C     0.49914   0.83288   0.83567   0.00000  Uiso   1.00
C1257  C     0.52088   0.86605   0.90561   0.00000  Uiso   1.00
C1258  C     0.47362   0.80482   0.59474   0.00000  Uiso   1.00
C1259  C     0.49821   0.83213   0.88409   0.00000  Uiso   1.00
C1260  C     0.57928   0.83357   0.75072   0.00000  Uiso   1.00
C1261  C     0.50039   0.83471   0.61612   0.00000  Uiso   1.00
C1262  C     0.47434   0.79919   0.90848   0.00000  Uiso   1.00
C1263  C     0.52633   0.86528   0.59170   0.00000  Uiso   1.00
C1264  C     0.47241   0.80184   0.95517   0.00000  Uiso   1.00
C1265  C     0.52327   0.86776   0.54512   0.00000  Uiso   1.00
C1266  C     0.49680   0.83536   0.97678   0.00000  Uiso   1.00
C1267  C     0.49696   0.83632   0.52348   0.00000  Uiso   1.00
C1268  C     0.52157   0.86738   0.95179   0.00000  Uiso   1.00
C1269  C     0.47180   0.80483   0.54852   0.00000  Uiso   1.00
C1270  C     0.44689   0.77168   0.98068   0.00000  Uiso   1.00
C1271  C     0.44580   0.77346   0.52686   0.00000  Uiso   1.00
C1272  C     0.54703   0.89978   0.51973   0.00000  Uiso   1.00
C1273  C     0.47029   0.71897   0.88416   0.00000  Uiso   1.00
C1274  C     0.59769   0.86460   0.61014   0.00000  Uiso   1.00
C1275  C     0.38027   0.76382   0.56394   0.00000  Uiso   1.00
C1276  C     0.55212   0.97710   0.93949   0.00000  Uiso   1.00
C1277  C     0.54623   0.90021   0.97367   0.00000  Uiso   1.00
C1278  C     0.35430   0.79909   0.77557   0.00000  Uiso   1.00
C1279  C     0.64596   0.87052   0.72916   0.00000  Uiso   1.00
C1280  C     0.64488   0.79966   0.77625   0.00000  Uiso   1.00
C1281  C     0.35519   0.86813   0.72618   0.00000  Uiso   1.00
C1282  C     0.62392   0.83454   0.75198   0.00000  Uiso   1.00
Cl1283 Cl    0.37972   0.75622   0.80828   0.00000  Uiso   1.00
Cl1284 Cl    0.62160   0.92023   0.70511   0.00000  Uiso   1.00
Cl1285 Cl    0.61822   0.75899   0.81134   0.00000  Uiso   1.00
Cl1286 Cl    0.38146   0.90778   0.68967   0.00000  Uiso   1.00
Cu1287 Cu    0.50000   0.88022   0.75000   0.00000  Uiso   1.00
Cu1288 Cu    0.50000   0.78645   0.75000   0.00000  Uiso   1.00
H1289  H     0.53853   0.89091   0.88561   0.00000  Uiso   1.00
H1290  H     0.46877   0.70153   0.91733   0.00000  Uiso   1.00
H1291  H     0.50293   0.72175   0.87330   0.00000  Uiso   1.00
H1292  H     0.45382   0.69691   0.86028   0.00000  Uiso   1.00
H1293  H     0.56033   0.92419   0.60756   0.00000  Uiso   1.00
H1294  H     0.60519   0.85617   0.57513   0.00000  Uiso   1.00
H1295  H     0.59678   0.83166   0.63036   0.00000  Uiso   1.00
H1296  H     0.62267   0.88723   0.62202   0.00000  Uiso   1.00
H1297  H     0.41501   0.71058   0.53685   0.00000  Uiso   1.00
H1298  H     0.36228   0.73867   0.58502   0.00000  Uiso   1.00
H1299  H     0.36230   0.77273   0.53396   0.00000  Uiso   1.00
H1300  H     0.45452   0.78114   0.61460   0.00000  Uiso   1.00
H1301  H     0.38531   0.79609   0.58321   0.00000  Uiso   1.00
H1302  H     0.58897   0.91952   0.92456   0.00000  Uiso   1.00
H1303  H     0.57488   0.66822   0.92393   0.00000  Uiso   1.00
H1304  H     0.53956   0.99344   0.96998   0.00000  Uiso   1.00
H1305  H     0.52693   0.97146   0.91582   0.00000  Uiso   1.00
H1306  H     0.42703   0.74661   0.96526   0.00000  Uiso   1.00
H1307  H     0.56705   0.92468   0.53517   0.00000  Uiso   1.00
H1308  H     0.45878   0.71116   0.69658   0.00000  Uiso   1.00
H1309  H     0.54124   0.95552   0.80341   0.00000  Uiso   1.00
H1310  H     0.54117   0.70915   0.80335   0.00000  Uiso   1.00
H1311  H     0.45932   0.95750   0.69617   0.00000  Uiso   1.00
H1312  H     0.42067   0.76399   0.89357   0.00000  Uiso   1.00
N1313  N     0.50000   0.95069   0.75000   0.00000  Uiso   1.00
N1314  N     0.50000   0.71598   0.75000   0.00000  Uiso   1.00
N1315  N     0.45151   0.76492   0.88551   0.00000  Uiso   1.00
N1316  N     0.55861   0.88859   0.61374   0.00000  Uiso   1.00
N1317  N     0.41899   0.74274   0.55132   0.00000  Uiso   1.00
N1318  N     0.57186   0.93307   0.95032   0.00000  Uiso   1.00
O1319  O     0.43988   0.87291   0.75000   0.00000  Uiso   1.00
O1320  O     0.56012   0.79375   0.75001   0.00000  Uiso   1.00
O1321  O     0.56012   0.87291   0.75001   0.00000  Uiso   1.00
O1322  O     0.43988   0.79375   0.75000   0.00000  Uiso   1.00
O1323  O     0.49999   0.87293   0.68513   0.00000  Uiso   1.00
O1324  O     0.50001   0.79373   0.81487   0.00000  Uiso   1.00
O1325  O     0.50001   0.87293   0.81487   0.00000  Uiso   1.00
O1326  O     0.49999   0.79373   0.68513   0.00000  Uiso   1.00
C1327  C     0.75408   0.83324   0.74990   0.00000  Uiso   1.00
C1328  C     0.70949   0.83308   0.75013   0.00000  Uiso   1.00
C1329  C     0.81048   0.69203   0.72032   0.00000  Uiso   1.00
C1330  C     0.85621   0.97464   0.77967   0.00000  Uiso   1.00
C1331  C     0.85622   0.69092   0.77962   0.00000  Uiso   1.00
C1332  C     0.81063   0.97574   0.72020   0.00000  Uiso   1.00
C1333  C     0.83401   0.83372   0.66439   0.00000  Uiso   1.00
C1334  C     0.83248   0.83288   0.83567   0.00000  Uiso   1.00
C1335  C     0.85421   0.86605   0.90561   0.00000  Uiso   1.00
C1336  C     0.80695   0.80482   0.59474   0.00000  Uiso   1.00
C1337  C     0.83154   0.83213   0.88409   0.00000  Uiso   1.00
C1338  C     0.91262   0.83357   0.75072   0.00000  Uiso   1.00
C1339  C     0.83373   0.83471   0.61612   0.00000  Uiso   1.00
C1340  C     0.80767   0.79919   0.90848   0.00000  Uiso   1.00
C1341  C     0.85966   0.86528   0.59170   0.00000  Uiso   1.00
C1342  C     0.80575   0.80184   0.95517   0.00000  Uiso   1.00
C1343  C     0.85660   0.86776   0.54512   0.00000  Uiso   1.00
C1344  C     0.83014   0.83536   0.97678   0.00000  Uiso   1.00
C1345  C     0.83029   0.83632   0.52348   0.00000  Uiso   1.00
C1346  C     0.85491   0.86738   0.95179   0.00000  Uiso   1.00
C1347  C     0.80513   0.80483   0.54852   0.00000  Uiso   1.00
C1348  C     0.78022   0.77168   0.98068   0.00000  Uiso   1.00
C1349  C     0.77913   0.77346   0.52686   0.00000  Uiso   1.00
C1350  C     0.88036   0.89978   0.51973   0.00000  Uiso   1.00
C1351  C     0.80363   0.71897   0.88416   0.00000  Uiso   1.00
C1352  C     0.93103   0.86460   0.61014   0.00000  Uiso   1.00
C1353  C     0.71360   0.76382   0.56394   0.00000  Uiso   1.00
C1354  C     0.88546   0.97710   0.93949   0.00000  Uiso   1.00
C1355  C     0.87957   0.90021   0.97367   0.00000  Uiso   1.00
C1356  C     0.68763   0.79909   0.77557   0.00000  Uiso   1.00
C1357  C     0.97929   0.87052   0.72916   0.00000  Uiso   1.00
C1358  C     0.97822   0.79966   0.77625   0.00000  Uiso   1.00
C1359  C     0.68852   0.86813   0.72618   0.00000  Uiso   1.00
C1360  C     0.95725   0.83454   0.75198   0.00000  Uiso   1.00
Cl1361 Cl    0.71305   0.75622   0.80828   0.00000  Uiso   1.00
Cl1362 Cl    0.95494   0.92023   0.70511   0.00000  Uiso   1.00
Cl1363 Cl    0.95156   0.75899   0.81134   0.00000  Uiso   1.00
Cl1364 Cl    0.71479   0.90778   0.68967   0.00000  Uiso   1.00
Cu1365 Cu    0.83333   0.88022   0.75000   0.00000  Uiso   1.00
Cu1366 Cu    0.83333   0.78645   0.75000   0.00000  Uiso   1.00
H1367  H     0.87187   0.89091   0.88561   0.00000  Uiso   1.00
H1368  H     0.80210   0.70153   0.91733   0.00000  Uiso   1.00
H1369  H     0.83626   0.72175   0.87330   0.00000  Uiso   1.00
H1370  H     0.78715   0.69691   0.86028   0.00000  Uiso   1.00
H1371  H     0.89367   0.92419   0.60756   0.00000  Uiso   1.00
H1372  H     0.93852   0.85617   0.57513   0.00000  Uiso   1.00
H1373  H     0.93012   0.83166   0.63036   0.00000  Uiso   1.00
H1374  H     0.95601   0.88723   0.62202   0.00000  Uiso   1.00
H1375  H     0.74834   0.71058   0.53685   0.00000  Uiso   1.00
H1376  H     0.69561   0.73867   0.58502   0.00000  Uiso   1.00
H1377  H     0.69564   0.77273   0.53396   0.00000  Uiso   1.00
H1378  H     0.78786   0.78114   0.61460   0.00000  Uiso   1.00
H1379  H     0.71865   0.79609   0.58321   0.00000  Uiso   1.00
H1380  H     0.92230   0.91952   0.92456   0.00000  Uiso   1.00
H1381  H     0.90822   0.66822   0.92393   0.00000  Uiso   1.00
H1382  H     0.87289   0.99344   0.96998   0.00000  Uiso   1.00
H1383  H     0.86026   0.97146   0.91582   0.00000  Uiso   1.00
H1384  H     0.76037   0.74661   0.96526   0.00000  Uiso   1.00
H1385  H     0.90038   0.92468   0.53517   0.00000  Uiso   1.00
H1386  H     0.79211   0.71116   0.69658   0.00000  Uiso   1.00
H1387  H     0.87458   0.95552   0.80341   0.00000  Uiso   1.00
H1388  H     0.87450   0.70915   0.80335   0.00000  Uiso   1.00
H1389  H     0.79265   0.95750   0.69617   0.00000  Uiso   1.00
H1390  H     0.75401   0.76399   0.89357   0.00000  Uiso   1.00
N1391  N     0.83333   0.95069   0.75000   0.00000  Uiso   1.00
N1392  N     0.83333   0.71598   0.75000   0.00000  Uiso   1.00
N1393  N     0.78484   0.76492   0.88551   0.00000  Uiso   1.00
N1394  N     0.89195   0.88859   0.61374   0.00000  Uiso   1.00
N1395  N     0.75232   0.74274   0.55132   0.00000  Uiso   1.00
N1396  N     0.90519   0.93307   0.95032   0.00000  Uiso   1.00
O1397  O     0.77321   0.87291   0.75000   0.00000  Uiso   1.00
O1398  O     0.89345   0.79375   0.75001   0.00000  Uiso   1.00
O1399  O     0.89345   0.87291   0.75001   0.00000  Uiso   1.00
O1400  O     0.77321   0.79375   0.75000   0.00000  Uiso   1.00
O1401  O     0.83332   0.87293   0.68513   0.00000  Uiso   1.00
O1402  O     0.83334   0.79373   0.81487   0.00000  Uiso   1.00
O1403  O     0.83334   0.87293   0.81487   0.00000  Uiso   1.00
O1404  O     0.83332   0.79373   0.68513   0.00000  Uiso   1.00
loop_
_geom_bond_atom_site_label_1
_geom_bond_atom_site_label_2
_geom_bond_distance
_geom_bond_site_symmetry_2
_ccdc_geom_bond_type
C1     O71     1.291   .     A
C1     O74     1.288   .     A
C1     C2      1.453   .     S
C2     C33     1.407   .     A
C2     C30     1.411   .     A
C3     H60     1.082   .     S
C3     N66     1.367   .     A
C3     C474    1.415   1_545 S
C4     N65     1.367   .     A
C4     H61     1.082   .     S
C4     C239    1.415   .     S
C5     N66     1.366   .     A
C5     H62     1.080   .     S
C5     C472    1.415   1_545 S
C6     N65     1.366   .     A
C6     H63     1.080   .     S
C6     C237    1.415   .     S
C7     O75     1.291   .     A
C7     O78     1.291   .     A
C7     C13     1.457   .     S
C8     C11     1.461   .     S
C8     O76     1.291   .     A
C8     O77     1.293   .     A
C9     C20     1.396   .     A
C9     C11     1.393   .     A
C9     H41     1.082   .     S
C10    H52     1.084   .     S
C10    C21     1.397   .     A
C10    C13     1.394   .     A
C11    C14     1.409   .     A
C12    O72     1.296   .     A
C12    O73     1.285   .     A
C12    C34     1.456   .     S
C13    C15     1.404   .     A
C14    N67     1.425   .     S
C14    C16     1.413   .     A
C15    C17     1.411   .     A
C15    N68     1.425   .     S
C16    C22     1.407   .     A
C16    C18     1.418   .     A
C17    C24     1.405   .     A
C17    C19     1.416   .     A
C18    C20     1.417   .     A
C18    C721    1.410   .     S
C19    C21     1.415   .     A
C19    C720    1.410   1_554 S
C20    C29     1.413   .     A
C21    C23     1.409   .     A
C22    H58     1.081   .     S
C22    C725    1.395   .     S
C23    N69     1.425   .     S
C23    C724    1.395   1_554 S
C24    H59     1.081   .     S
C24    C731    1.391   1_554 S
C25    N67     1.448   .     S
C25    H43     1.110   .     S
C25    H44     1.110   .     S
C25    H42     1.110   .     S
C26    H48     1.107   .     S
C26    H47     1.111   .     S
C26    N68     1.450   .     S
C26    H46     1.111   .     S
C27    N69     1.447   .     S
C27    H50     1.110   .     S
C27    H51     1.112   .     S
C27    H53     1.111   .     S
C28    H56     1.111   .     S
C28    H57     1.111   .     S
C28    N70     1.446   .     S
C28    H289    1.110   .     S
C29    N70     1.424   .     S
C29    C726    1.391   .     S
C30    Cl35    1.772   .     S
C30    C188    1.394   1_455 S
C31    C34     1.414   .     A
C31    Cl36    1.775   .     S
C31    C111    1.391   .     S
C32    C34     1.409   .     A
C32    Cl37    1.773   .     S
C32    C108    1.394   .     S
C33    Cl38    1.774   .     S
C33    C187    1.391   1_455 S
Cu39   O77     1.965   .     S
Cu39   O75     1.973   .     S
Cu39   N65     2.010   .     S
Cu39   Cu40    2.674   .     S
Cu39   O73     1.971   .     S
Cu39   O71     1.971   .     S
Cu40   N66     2.010   .     S
Cu40   O76     1.973   .     S
Cu40   O72     1.971   .     S
Cu40   O74     1.971   .     S
Cu40   O78     1.965   .     S
H45    N68     1.030   .     S
H49    N69     1.032   .     S
H54    N70     1.031   .     S
H55    C496    1.110   1_545 S
H64    N67     1.030   .     S
C79    O149    1.291   .     A
C79    O152    1.288   .     A
C79    C80     1.453   .     S
C80    C111    1.407   .     A
C80    C108    1.411   .     A
C81    H138    1.082   .     S
C81    N144    1.367   .     A
C81    C552    1.415   1_545 S
C82    N143    1.367   .     A
C82    H139    1.082   .     S
C82    C317    1.415   .     S
C83    N144    1.366   .     A
C83    H140    1.080   .     S
C83    C550    1.415   1_545 S
C84    N143    1.366   .     A
C84    H141    1.080   .     S
C84    C315    1.415   .     S
C85    O153    1.291   .     A
C85    O156    1.291   .     A
C85    C91     1.457   .     S
C86    C89     1.461   .     S
C86    O154    1.291   .     A
C86    O155    1.293   .     A
C87    C98     1.396   .     A
C87    C89     1.393   .     A
C87    H119    1.082   .     S
C88    H130    1.084   .     S
C88    C99     1.397   .     A
C88    C91     1.394   .     A
C89    C92     1.409   .     A
C90    O150    1.296   .     A
C90    O151    1.285   .     A
C90    C112    1.456   .     S
C91    C93     1.404   .     A
C92    N145    1.425   .     S
C92    C94     1.413   .     A
C93    C95     1.411   .     A
C93    N146    1.425   .     S
C94    C100    1.407   .     A
C94    C96     1.418   .     A
C95    C102    1.405   .     A
C95    C97     1.416   .     A
C96    C98     1.417   .     A
C96    C799    1.410   .     S
C97    C99     1.415   .     A
C97    C798    1.410   1_554 S
C98    C107    1.413   .     A
C99    C101    1.409   .     A
C100   H136    1.081   .     S
C100   C803    1.395   .     S
C101   N147    1.425   .     S
C101   C802    1.395   1_554 S
C102   H137    1.081   .     S
C102   C809    1.391   1_554 S
C103   N145    1.448   .     S
C103   H121    1.110   .     S
C103   H122    1.110   .     S
C103   H120    1.110   .     S
C104   H126    1.107   .     S
C104   H125    1.111   .     S
C104   N146    1.450   .     S
C104   H124    1.111   .     S
C105   N147    1.447   .     S
C105   H128    1.110   .     S
C105   H129    1.112   .     S
C105   H131    1.111   .     S
C106   H134    1.111   .     S
C106   H135    1.111   .     S
C106   N148    1.446   .     S
C106   H367    1.110   .     S
C107   N148    1.424   .     S
C107   C804    1.391   .     S
C108   Cl113   1.772   .     S
C109   C112    1.414   .     A
C109   Cl114   1.775   .     S
C109   C189    1.391   .     S
C110   C112    1.409   .     A
C110   Cl115   1.773   .     S
C110   C186    1.394   .     S
C111   Cl116   1.774   .     S
Cu117  O155    1.965   .     S
Cu117  O153    1.973   .     S
Cu117  N143    2.010   .     S
Cu117  Cu118   2.674   .     S
Cu117  O151    1.971   .     S
Cu117  O149    1.971   .     S
Cu118  N144    2.010   .     S
Cu118  O154    1.973   .     S
Cu118  O150    1.971   .     S
Cu118  O152    1.971   .     S
Cu118  O156    1.965   .     S
H123   N146    1.030   .     S
H127   N147    1.032   .     S
H132   N148    1.031   .     S
H133   C574    1.110   1_545 S
H142   N145    1.030   .     S
C157   O227    1.291   .     A
C157   O230    1.288   .     A
C157   C158    1.453   .     S
C158   C189    1.407   .     A
C158   C186    1.411   .     A
C159   H216    1.082   .     S
C159   N222    1.367   .     A
C159   C630    1.415   1_545 S
C160   N221    1.367   .     A
C160   H217    1.082   .     S
C160   C395    1.415   .     S
C161   N222    1.366   .     A
C161   H218    1.080   .     S
C161   C628    1.415   1_545 S
C162   N221    1.366   .     A
C162   H219    1.080   .     S
C162   C393    1.415   .     S
C163   O231    1.291   .     A
C163   O234    1.291   .     A
C163   C169    1.457   .     S
C164   C167    1.461   .     S
C164   O232    1.291   .     A
C164   O233    1.293   .     A
C165   C176    1.396   .     A
C165   C167    1.393   .     A
C165   H197    1.082   .     S
C166   H208    1.084   .     S
C166   C177    1.397   .     A
C166   C169    1.394   .     A
C167   C170    1.409   .     A
C168   O228    1.296   .     A
C168   O229    1.285   .     A
C168   C190    1.456   .     S
C169   C171    1.404   .     A
C170   N223    1.425   .     S
C170   C172    1.413   .     A
C171   C173    1.411   .     A
C171   N224    1.425   .     S
C172   C178    1.407   .     A
C172   C174    1.418   .     A
C173   C180    1.405   .     A
C173   C175    1.416   .     A
C174   C176    1.417   .     A
C174   C877    1.410   .     S
C175   C177    1.415   .     A
C175   C876    1.410   1_554 S
C176   C185    1.413   .     A
C177   C179    1.409   .     A
C178   H214    1.081   .     S
C178   C881    1.395   .     S
C179   N225    1.425   .     S
C179   C880    1.395   1_554 S
C180   H215    1.081   .     S
C180   C887    1.391   1_554 S
C181   N223    1.448   .     S
C181   H199    1.110   .     S
C181   H200    1.110   .     S
C181   H198    1.110   .     S
C182   H204    1.107   .     S
C182   H203    1.111   .     S
C182   N224    1.450   .     S
C182   H202    1.111   .     S
C183   N225    1.447   .     S
C183   H206    1.110   .     S
C183   H207    1.112   .     S
C183   H209    1.111   .     S
C184   H212    1.111   .     S
C184   H213    1.111   .     S
C184   N226    1.446   .     S
C184   H445    1.110   .     S
C185   N226    1.424   .     S
C185   C882    1.391   .     S
C186   Cl191   1.772   .     S
C187   C190    1.414   .     A
C187   Cl192   1.775   .     S
C187   C33     1.391   1_655 S
C188   C190    1.409   .     A
C188   Cl193   1.773   .     S
C188   C30     1.394   1_655 S
C189   Cl194   1.774   .     S
Cu195  O233    1.965   .     S
Cu195  O231    1.973   .     S
Cu195  N221    2.010   .     S
Cu195  Cu196   2.674   .     S
Cu195  O229    1.971   .     S
Cu195  O227    1.971   .     S
Cu196  N222    2.010   .     S
Cu196  O232    1.973   .     S
Cu196  O228    1.971   .     S
Cu196  O230    1.971   .     S
Cu196  O234    1.965   .     S
H201   N224    1.030   .     S
H205   N225    1.032   .     S
H210   N226    1.031   .     S
H211   C652    1.110   1_545 S
H220   N223    1.030   .     S
C235   O305    1.291   .     A
C235   O308    1.288   .     A
C235   C236    1.453   .     S
C236   C267    1.407   .     A
C236   C264    1.411   .     A
C237   H294    1.082   .     S
C237   N300    1.367   .     A
C238   N299    1.367   .     A
C238   H295    1.082   .     S
C238   C473    1.415   .     S
C239   N300    1.366   .     A
C239   H296    1.080   .     S
C240   N299    1.366   .     A
C240   H297    1.080   .     S
C240   C471    1.415   .     S
C241   O309    1.291   .     A
C241   O312    1.291   .     A
C241   C247    1.457   .     S
C242   C245    1.461   .     S
C242   O310    1.291   .     A
C242   O311    1.293   .     A
C243   C254    1.396   .     A
C243   C245    1.393   .     A
C243   H275    1.082   .     S
C244   H286    1.084   .     S
C244   C255    1.397   .     A
C244   C247    1.394   .     A
C245   C248    1.409   .     A
C246   O306    1.296   .     A
C246   O307    1.285   .     A
C246   C268    1.456   .     S
C247   C249    1.404   .     A
C248   N301    1.425   .     S
C248   C250    1.413   .     A
C249   C251    1.411   .     A
C249   N302    1.425   .     S
C250   C256    1.407   .     A
C250   C252    1.418   .     A
C251   C258    1.405   .     A
C251   C253    1.416   .     A
C252   C254    1.417   .     A
C252   C955    1.410   .     S
C253   C255    1.415   .     A
C253   C954    1.410   1_554 S
C254   C263    1.413   .     A
C255   C257    1.409   .     A
C256   H292    1.081   .     S
C256   C959    1.395   .     S
C257   N303    1.425   .     S
C257   C958    1.395   1_554 S
C258   H293    1.081   .     S
C258   C965    1.391   1_554 S
C259   N301    1.448   .     S
C259   H277    1.110   .     S
C259   H278    1.110   .     S
C259   H276    1.110   .     S
C260   H282    1.107   .     S
C260   H281    1.111   .     S
C260   N302    1.450   .     S
C260   H280    1.111   .     S
C261   N303    1.447   .     S
C261   H284    1.110   .     S
C261   H285    1.112   .     S
C261   H287    1.111   .     S
C262   H290    1.111   .     S
C262   H291    1.111   .     S
C262   N304    1.446   .     S
C262   H523    1.110   .     S
C263   N304    1.424   .     S
C263   C960    1.391   .     S
C264   Cl269   1.772   .     S
C264   C422    1.394   1_455 S
C265   C268    1.414   .     A
C265   Cl270   1.775   .     S
C265   C345    1.391   .     S
C266   C268    1.409   .     A
C266   Cl271   1.773   .     S
C266   C342    1.394   .     S
C267   Cl272   1.774   .     S
C267   C421    1.391   1_455 S
Cu273  O311    1.965   .     S
Cu273  O309    1.973   .     S
Cu273  N299    2.010   .     S
Cu273  Cu274   2.674   .     S
Cu273  O307    1.971   .     S
Cu273  O305    1.971   .     S
Cu274  N300    2.010   .     S
Cu274  O310    1.973   .     S
Cu274  O306    1.971   .     S
Cu274  O308    1.971   .     S
Cu274  O312    1.965   .     S
H279   N302    1.030   .     S
H283   N303    1.032   .     S
H288   N304    1.031   .     S
H298   N301    1.030   .     S
C313   O383    1.291   .     A
C313   O386    1.288   .     A
C313   C314    1.453   .     S
C314   C345    1.407   .     A
C314   C342    1.411   .     A
C315   H372    1.082   .     S
C315   N378    1.367   .     A
C316   N377    1.367   .     A
C316   H373    1.082   .     S
C316   C551    1.415   .     S
C317   N378    1.366   .     A
C317   H374    1.080   .     S
C318   N377    1.366   .     A
C318   H375    1.080   .     S
C318   C549    1.415   .     S
C319   O387    1.291   .     A
C319   O390    1.291   .     A
C319   C325    1.457   .     S
C320   C323    1.461   .     S
C320   O388    1.291   .     A
C320   O389    1.293   .     A
C321   C332    1.396   .     A
C321   C323    1.393   .     A
C321   H353    1.082   .     S
C322   H364    1.084   .     S
C322   C333    1.397   .     A
C322   C325    1.394   .     A
C323   C326    1.409   .     A
C324   O384    1.296   .     A
C324   O385    1.285   .     A
C324   C346    1.456   .     S
C325   C327    1.404   .     A
C326   N379    1.425   .     S
C326   C328    1.413   .     A
C327   C329    1.411   .     A
C327   N380    1.425   .     S
C328   C334    1.407   .     A
C328   C330    1.418   .     A
C329   C336    1.405   .     A
C329   C331    1.416   .     A
C330   C332    1.417   .     A
C330   C1033   1.410   .     S
C331   C333    1.415   .     A
C331   C1032   1.410   1_554 S
C332   C341    1.413   .     A
C333   C335    1.409   .     A
C334   H370    1.081   .     S
C334   C1037   1.395   .     S
C335   N381    1.425   .     S
C335   C1036   1.395   1_554 S
C336   H371    1.081   .     S
C336   C1043   1.391   1_554 S
C337   N379    1.448   .     S
C337   H355    1.110   .     S
C337   H356    1.110   .     S
C337   H354    1.110   .     S
C338   H360    1.107   .     S
C338   H359    1.111   .     S
C338   N380    1.450   .     S
C338   H358    1.111   .     S
C339   N381    1.447   .     S
C339   H362    1.110   .     S
C339   H363    1.112   .     S
C339   H365    1.111   .     S
C340   H368    1.111   .     S
C340   H369    1.111   .     S
C340   N382    1.446   .     S
C340   H601    1.110   .     S
C341   N382    1.424   .     S
C341   C1038   1.391   .     S
C342   Cl347   1.772   .     S
C343   C346    1.414   .     A
C343   Cl348   1.775   .     S
C343   C423    1.391   .     S
C344   C346    1.409   .     A
C344   Cl349   1.773   .     S
C344   C420    1.394   .     S
C345   Cl350   1.774   .     S
Cu351  O389    1.965   .     S
Cu351  O387    1.973   .     S
Cu351  N377    2.010   .     S
Cu351  Cu352   2.674   .     S
Cu351  O385    1.971   .     S
Cu351  O383    1.971   .     S
Cu352  N378    2.010   .     S
Cu352  O388    1.973   .     S
Cu352  O384    1.971   .     S
Cu352  O386    1.971   .     S
Cu352  O390    1.965   .     S
H357   N380    1.030   .     S
H361   N381    1.032   .     S
H366   N382    1.031   .     S
H376   N379    1.030   .     S
C391   O461    1.291   .     A
C391   O464    1.288   .     A
C391   C392    1.453   .     S
C392   C423    1.407   .     A
C392   C420    1.411   .     A
C393   H450    1.082   .     S
C393   N456    1.367   .     A
C394   N455    1.367   .     A
C394   H451    1.082   .     S
C394   C629    1.415   .     S
C395   N456    1.366   .     A
C395   H452    1.080   .     S
C396   N455    1.366   .     A
C396   H453    1.080   .     S
C396   C627    1.415   .     S
C397   O465    1.291   .     A
C397   O468    1.291   .     A
C397   C403    1.457   .     S
C398   C401    1.461   .     S
C398   O466    1.291   .     A
C398   O467    1.293   .     A
C399   C410    1.396   .     A
C399   C401    1.393   .     A
C399   H431    1.082   .     S
C400   H442    1.084   .     S
C400   C411    1.397   .     A
C400   C403    1.394   .     A
C401   C404    1.409   .     A
C402   O462    1.296   .     A
C402   O463    1.285   .     A
C402   C424    1.456   .     S
C403   C405    1.404   .     A
C404   N457    1.425   .     S
C404   C406    1.413   .     A
C405   C407    1.411   .     A
C405   N458    1.425   .     S
C406   C412    1.407   .     A
C406   C408    1.418   .     A
C407   C414    1.405   .     A
C407   C409    1.416   .     A
C408   C410    1.417   .     A
C408   C1111   1.410   .     S
C409   C411    1.415   .     A
C409   C1110   1.410   1_554 S
C410   C419    1.413   .     A
C411   C413    1.409   .     A
C412   H448    1.081   .     S
C412   C1115   1.395   .     S
C413   N459    1.425   .     S
C413   C1114   1.395   1_554 S
C414   H449    1.081   .     S
C414   C1121   1.391   1_554 S
C415   N457    1.448   .     S
C415   H433    1.110   .     S
C415   H434    1.110   .     S
C415   H432    1.110   .     S
C416   H438    1.107   .     S
C416   H437    1.111   .     S
C416   N458    1.450   .     S
C416   H436    1.111   .     S
C417   N459    1.447   .     S
C417   H440    1.110   .     S
C417   H441    1.112   .     S
C417   H443    1.111   .     S
C418   H446    1.111   .     S
C418   H447    1.111   .     S
C418   N460    1.446   .     S
C418   H679    1.110   .     S
C419   N460    1.424   .     S
C419   C1116   1.391   .     S
C420   Cl425   1.772   .     S
C421   C424    1.414   .     A
C421   Cl426   1.775   .     S
C421   C267    1.391   1_655 S
C422   C424    1.409   .     A
C422   Cl427   1.773   .     S
C422   C264    1.394   1_655 S
C423   Cl428   1.774   .     S
Cu429  O467    1.965   .     S
Cu429  O465    1.973   .     S
Cu429  N455    2.010   .     S
Cu429  Cu430   2.674   .     S
Cu429  O463    1.971   .     S
Cu429  O461    1.971   .     S
Cu430  N456    2.010   .     S
Cu430  O466    1.973   .     S
Cu430  O462    1.971   .     S
Cu430  O464    1.971   .     S
Cu430  O468    1.965   .     S
H435   N458    1.030   .     S
H439   N459    1.032   .     S
H444   N460    1.031   .     S
H454   N457    1.030   .     S
C469   O539    1.291   .     A
C469   O542    1.288   .     A
C469   C470    1.453   .     S
C470   C501    1.407   .     A
C470   C498    1.411   .     A
C471   H528    1.082   .     S
C471   N534    1.367   .     A
C472   N533    1.367   .     A
C472   H529    1.082   .     S
C472   C5      1.415   1_565 S
C473   N534    1.366   .     A
C473   H530    1.080   .     S
C474   N533    1.366   .     A
C474   H531    1.080   .     S
C474   C3      1.415   1_565 S
C475   O543    1.291   .     A
C475   O546    1.291   .     A
C475   C481    1.457   .     S
C476   C479    1.461   .     S
C476   O544    1.291   .     A
C476   O545    1.293   .     A
C477   C488    1.396   .     A
C477   C479    1.393   .     A
C477   H509    1.082   .     S
C478   H520    1.084   .     S
C478   C489    1.397   .     A
C478   C481    1.394   .     A
C479   C482    1.409   .     A
C480   O540    1.296   .     A
C480   O541    1.285   .     A
C480   C502    1.456   .     S
C481   C483    1.404   .     A
C482   N535    1.425   .     S
C482   C484    1.413   .     A
C483   C485    1.411   .     A
C483   N536    1.425   .     S
C484   C490    1.407   .     A
C484   C486    1.418   .     A
C485   C492    1.405   .     A
C485   C487    1.416   .     A
C486   C488    1.417   .     A
C486   C1189   1.410   .     S
C487   C489    1.415   .     A
C487   C1188   1.410   1_554 S
C488   C497    1.413   .     A
C489   C491    1.409   .     A
C490   H526    1.081   .     S
C490   C1193   1.395   .     S
C491   N537    1.425   .     S
C491   C1192   1.395   1_554 S
C492   H527    1.081   .     S
C492   C1199   1.391   1_554 S
C493   N535    1.448   .     S
C493   H511    1.110   .     S
C493   H512    1.110   .     S
C493   H510    1.110   .     S
C494   H516    1.107   .     S
C494   H515    1.111   .     S
C494   N536    1.450   .     S
C494   H514    1.111   .     S
C495   N537    1.447   .     S
C495   H518    1.110   .     S
C495   H519    1.112   .     S
C495   H521    1.111   .     S
C496   H524    1.111   .     S
C496   H525    1.111   .     S
C496   N538    1.446   .     S
C496   H55     1.110   1_565 S
C497   N538    1.424   .     S
C497   C1194   1.391   .     S
C498   Cl503   1.772   .     S
C498   C656    1.394   1_455 S
C499   C502    1.414   .     A
C499   Cl504   1.775   .     S
C499   C579    1.391   .     S
C500   C502    1.409   .     A
C500   Cl505   1.773   .     S
C500   C576    1.394   .     S
C501   Cl506   1.774   .     S
C501   C655    1.391   1_455 S
Cu507  O545    1.965   .     S
Cu507  O543    1.973   .     S
Cu507  N533    2.010   .     S
Cu507  Cu508   2.674   .     S
Cu507  O541    1.971   .     S
Cu507  O539    1.971   .     S
Cu508  N534    2.010   .     S
Cu508  O544    1.973   .     S
Cu508  O540    1.971   .     S
Cu508  O542    1.971   .     S
Cu508  O546    1.965   .     S
H513   N536    1.030   .     S
H517   N537    1.032   .     S
H522   N538    1.031   .     S
H532   N535    1.030   .     S
C547   O617    1.291   .     A
C547   O620    1.288   .     A
C547   C548    1.453   .     S
C548   C579    1.407   .     A
C548   C576    1.411   .     A
C549   H606    1.082   .     S
C549   N612    1.367   .     A
C550   N611    1.367   .     A
C550   H607    1.082   .     S
C550   C83     1.415   1_565 S
C551   N612    1.366   .     A
C551   H608    1.080   .     S
C552   N611    1.366   .     A
C552   H609    1.080   .     S
C552   C81     1.415   1_565 S
C553   O621    1.291   .     A
C553   O624    1.291   .     A
C553   C559    1.457   .     S
C554   C557    1.461   .     S
C554   O622    1.291   .     A
C554   O623    1.293   .     A
C555   C566    1.396   .     A
C555   C557    1.393   .     A
C555   H587    1.082   .     S
C556   H598    1.084   .     S
C556   C567    1.397   .     A
C556   C559    1.394   .     A
C557   C560    1.409   .     A
C558   O618    1.296   .     A
C558   O619    1.285   .     A
C558   C580    1.456   .     S
C559   C561    1.404   .     A
C560   N613    1.425   .     S
C560   C562    1.413   .     A
C561   C563    1.411   .     A
C561   N614    1.425   .     S
C562   C568    1.407   .     A
C562   C564    1.418   .     A
C563   C570    1.405   .     A
C563   C565    1.416   .     A
C564   C566    1.417   .     A
C564   C1267   1.410   .     S
C565   C567    1.415   .     A
C565   C1266   1.410   1_554 S
C566   C575    1.413   .     A
C567   C569    1.409   .     A
C568   H604    1.081   .     S
C568   C1271   1.395   .     S
C569   N615    1.425   .     S
C569   C1270   1.395   1_554 S
C570   H605    1.081   .     S
C570   C1277   1.391   1_554 S
C571   N613    1.448   .     S
C571   H589    1.110   .     S
C571   H590    1.110   .     S
C571   H588    1.110   .     S
C572   H594    1.107   .     S
C572   H593    1.111   .     S
C572   N614    1.450   .     S
C572   H592    1.111   .     S
C573   N615    1.447   .     S
C573   H596    1.110   .     S
C573   H597    1.112   .     S
C573   H599    1.111   .     S
C574   H602    1.111   .     S
C574   H603    1.111   .     S
C574   N616    1.446   .     S
C574   H133    1.110   1_565 S
C575   N616    1.424   .     S
C575   C1272   1.391   .     S
C576   Cl581   1.772   .     S
C577   C580    1.414   .     A
C577   Cl582   1.775   .     S
C577   C657    1.391   .     S
C578   C580    1.409   .     A
C578   Cl583   1.773   .     S
C578   C654    1.394   .     S
C579   Cl584   1.774   .     S
Cu585  O623    1.965   .     S
Cu585  O621    1.973   .     S
Cu585  N611    2.010   .     S
Cu585  Cu586   2.674   .     S
Cu585  O619    1.971   .     S
Cu585  O617    1.971   .     S
Cu586  N612    2.010   .     S
Cu586  O622    1.973   .     S
Cu586  O618    1.971   .     S
Cu586  O620    1.971   .     S
Cu586  O624    1.965   .     S
H591   N614    1.030   .     S
H595   N615    1.032   .     S
H600   N616    1.031   .     S
H610   N613    1.030   .     S
C625   O695    1.291   .     A
C625   O698    1.288   .     A
C625   C626    1.453   .     S
C626   C657    1.407   .     A
C626   C654    1.411   .     A
C627   H684    1.082   .     S
C627   N690    1.367   .     A
C628   N689    1.367   .     A
C628   H685    1.082   .     S
C628   C161    1.415   1_565 S
C629   N690    1.366   .     A
C629   H686    1.080   .     S
C630   N689    1.366   .     A
C630   H687    1.080   .     S
C630   C159    1.415   1_565 S
C631   O699    1.291   .     A
C631   O702    1.291   .     A
C631   C637    1.457   .     S
C632   C635    1.461   .     S
C632   O700    1.291   .     A
C632   O701    1.293   .     A
C633   C644    1.396   .     A
C633   C635    1.393   .     A
C633   H665    1.082   .     S
C634   H676    1.084   .     S
C634   C645    1.397   .     A
C634   C637    1.394   .     A
C635   C638    1.409   .     A
C636   O696    1.296   .     A
C636   O697    1.285   .     A
C636   C658    1.456   .     S
C637   C639    1.404   .     A
C638   N691    1.425   .     S
C638   C640    1.413   .     A
C639   C641    1.411   .     A
C639   N692    1.425   .     S
C640   C646    1.407   .     A
C640   C642    1.418   .     A
C641   C648    1.405   .     A
C641   C643    1.416   .     A
C642   C644    1.417   .     A
C642   C1345   1.410   .     S
C643   C645    1.415   .     A
C643   C1344   1.410   1_554 S
C644   C653    1.413   .     A
C645   C647    1.409   .     A
C646   H682    1.081   .     S
C646   C1349   1.395   .     S
C647   N693    1.425   .     S
C647   C1348   1.395   1_554 S
C648   H683    1.081   .     S
C648   C1355   1.391   1_554 S
C649   N691    1.448   .     S
C649   H667    1.110   .     S
C649   H668    1.110   .     S
C649   H666    1.110   .     S
C650   H672    1.107   .     S
C650   H671    1.111   .     S
C650   N692    1.450   .     S
C650   H670    1.111   .     S
C651   N693    1.447   .     S
C651   H674    1.110   .     S
C651   H675    1.112   .     S
C651   H677    1.111   .     S
C652   H680    1.111   .     S
C652   H681    1.111   .     S
C652   N694    1.446   .     S
C652   H211    1.110   1_565 S
C653   N694    1.424   .     S
C653   C1350   1.391   .     S
C654   Cl659   1.772   .     S
C655   C658    1.414   .     A
C655   Cl660   1.775   .     S
C655   C501    1.391   1_655 S
C656   C658    1.409   .     A
C656   Cl661   1.773   .     S
C656   C498    1.394   1_655 S
C657   Cl662   1.774   .     S
Cu663  O701    1.965   .     S
Cu663  O699    1.973   .     S
Cu663  N689    2.010   .     S
Cu663  Cu664   2.674   .     S
Cu663  O697    1.971   .     S
Cu663  O695    1.971   .     S
Cu664  N690    2.010   .     S
Cu664  O700    1.973   .     S
Cu664  O696    1.971   .     S
Cu664  O698    1.971   .     S
Cu664  O702    1.965   .     S
H669   N692    1.030   .     S
H673   N693    1.032   .     S
H678   N694    1.031   .     S
H688   N691    1.030   .     S
C703   O773    1.291   .     A
C703   O776    1.288   .     A
C703   C704    1.453   .     S
C704   C735    1.407   .     A
C704   C732    1.411   .     A
C705   H762    1.082   .     S
C705   N768    1.367   .     A
C705   C1176   1.415   1_545 S
C706   N767    1.367   .     A
C706   H763    1.082   .     S
C706   C941    1.415   .     S
C707   N768    1.366   .     A
C707   H764    1.080   .     S
C707   C1174   1.415   1_545 S
C708   N767    1.366   .     A
C708   H765    1.080   .     S
C708   C939    1.415   .     S
C709   O777    1.291   .     A
C709   O780    1.291   .     A
C709   C715    1.457   .     S
C710   C713    1.461   .     S
C710   O778    1.291   .     A
C710   O779    1.293   .     A
C711   C722    1.396   .     A
C711   C713    1.393   .     A
C711   H743    1.082   .     S
C712   H754    1.084   .     S
C712   C723    1.397   .     A
C712   C715    1.394   .     A
C713   C716    1.409   .     A
C714   O774    1.296   .     A
C714   O775    1.285   .     A
C714   C736    1.456   .     S
C715   C717    1.404   .     A
C716   N769    1.425   .     S
C716   C718    1.413   .     A
C717   C719    1.411   .     A
C717   N770    1.425   .     S
C718   C724    1.407   .     A
C718   C720    1.418   .     A
C719   C726    1.405   .     A
C719   C721    1.416   .     A
C720   C722    1.417   .     A
C720   C19     1.410   1_556 S
C721   C723    1.415   .     A
C722   C731    1.413   .     A
C723   C725    1.409   .     A
C724   H760    1.081   .     S
C724   C23     1.395   1_556 S
C725   N771    1.425   .     S
C726   H761    1.081   .     S
C727   N769    1.448   .     S
C727   H745    1.110   .     S
C727   H746    1.110   .     S
C727   H744    1.110   .     S
C728   H750    1.107   .     S
C728   H749    1.111   .     S
C728   N770    1.450   .     S
C728   H748    1.111   .     S
C729   N771    1.447   .     S
C729   H752    1.110   .     S
C729   H753    1.112   .     S
C729   H755    1.111   .     S
C730   H758    1.111   .     S
C730   H759    1.111   .     S
C730   N772    1.446   .     S
C730   H991    1.110   .     S
C731   N772    1.424   .     S
C731   C24     1.391   1_556 S
C732   Cl737   1.772   .     S
C732   C890    1.394   1_455 S
C733   C736    1.414   .     A
C733   Cl738   1.775   .     S
C733   C813    1.391   .     S
C734   C736    1.409   .     A
C734   Cl739   1.773   .     S
C734   C810    1.394   .     S
C735   Cl740   1.774   .     S
C735   C889    1.391   1_455 S
Cu741  O779    1.965   .     S
Cu741  O777    1.973   .     S
Cu741  N767    2.010   .     S
Cu741  Cu742   2.674   .     S
Cu741  O775    1.971   .     S
Cu741  O773    1.971   .     S
Cu742  N768    2.010   .     S
Cu742  O778    1.973   .     S
Cu742  O774    1.971   .     S
Cu742  O776    1.971   .     S
Cu742  O780    1.965   .     S
H747   N770    1.030   .     S
H751   N771    1.032   .     S
H756   N772    1.031   .     S
H757   C1198   1.110   1_545 S
H766   N769    1.030   .     S
C781   O851    1.291   .     A
C781   O854    1.288   .     A
C781   C782    1.453   .     S
C782   C813    1.407   .     A
C782   C810    1.411   .     A
C783   H840    1.082   .     S
C783   N846    1.367   .     A
C783   C1254   1.415   1_545 S
C784   N845    1.367   .     A
C784   H841    1.082   .     S
C784   C1019   1.415   .     S
C785   N846    1.366   .     A
C785   H842    1.080   .     S
C785   C1252   1.415   1_545 S
C786   N845    1.366   .     A
C786   H843    1.080   .     S
C786   C1017   1.415   .     S
C787   O855    1.291   .     A
C787   O858    1.291   .     A
C787   C793    1.457   .     S
C788   C791    1.461   .     S
C788   O856    1.291   .     A
C788   O857    1.293   .     A
C789   C800    1.396   .     A
C789   C791    1.393   .     A
C789   H821    1.082   .     S
C790   H832    1.084   .     S
C790   C801    1.397   .     A
C790   C793    1.394   .     A
C791   C794    1.409   .     A
C792   O852    1.296   .     A
C792   O853    1.285   .     A
C792   C814    1.456   .     S
C793   C795    1.404   .     A
C794   N847    1.425   .     S
C794   C796    1.413   .     A
C795   C797    1.411   .     A
C795   N848    1.425   .     S
C796   C802    1.407   .     A
C796   C798    1.418   .     A
C797   C804    1.405   .     A
C797   C799    1.416   .     A
C798   C800    1.417   .     A
C798   C97     1.410   1_556 S
C799   C801    1.415   .     A
C800   C809    1.413   .     A
C801   C803    1.409   .     A
C802   H838    1.081   .     S
C802   C101    1.395   1_556 S
C803   N849    1.425   .     S
C804   H839    1.081   .     S
C805   N847    1.448   .     S
C805   H823    1.110   .     S
C805   H824    1.110   .     S
C805   H822    1.110   .     S
C806   H828    1.107   .     S
C806   H827    1.111   .     S
C806   N848    1.450   .     S
C806   H826    1.111   .     S
C807   N849    1.447   .     S
C807   H830    1.110   .     S
C807   H831    1.112   .     S
C807   H833    1.111   .     S
C808   H836    1.111   .     S
C808   H837    1.111   .     S
C808   N850    1.446   .     S
C808   H1069   1.110   .     S
C809   N850    1.424   .     S
C809   C102    1.391   1_556 S
C810   Cl815   1.772   .     S
C811   C814    1.414   .     A
C811   Cl816   1.775   .     S
C811   C891    1.391   .     S
C812   C814    1.409   .     A
C812   Cl817   1.773   .     S
C812   C888    1.394   .     S
C813   Cl818   1.774   .     S
Cu819  O857    1.965   .     S
Cu819  O855    1.973   .     S
Cu819  N845    2.010   .     S
Cu819  Cu820   2.674   .     S
Cu819  O853    1.971   .     S
Cu819  O851    1.971   .     S
Cu820  N846    2.010   .     S
Cu820  O856    1.973   .     S
Cu820  O852    1.971   .     S
Cu820  O854    1.971   .     S
Cu820  O858    1.965   .     S
H825   N848    1.030   .     S
H829   N849    1.032   .     S
H834   N850    1.031   .     S
H835   C1276   1.110   1_545 S
H844   N847    1.030   .     S
C859   O929    1.291   .     A
C859   O932    1.288   .     A
C859   C860    1.453   .     S
C860   C891    1.407   .     A
C860   C888    1.411   .     A
C861   H918    1.082   .     S
C861   N924    1.367   .     A
C861   C1332   1.415   1_545 S
C862   N923    1.367   .     A
C862   H919    1.082   .     S
C862   C1097   1.415   .     S
C863   N924    1.366   .     A
C863   H920    1.080   .     S
C863   C1330   1.415   1_545 S
C864   N923    1.366   .     A
C864   H921    1.080   .     S
C864   C1095   1.415   .     S
C865   O933    1.291   .     A
C865   O936    1.291   .     A
C865   C871    1.457   .     S
C866   C869    1.461   .     S
C866   O934    1.291   .     A
C866   O935    1.293   .     A
C867   C878    1.396   .     A
C867   C869    1.393   .     A
C867   H899    1.082   .     S
C868   H910    1.084   .     S
C868   C879    1.397   .     A
C868   C871    1.394   .     A
C869   C872    1.409   .     A
C870   O930    1.296   .     A
C870   O931    1.285   .     A
C870   C892    1.456   .     S
C871   C873    1.404   .     A
C872   N925    1.425   .     S
C872   C874    1.413   .     A
C873   C875    1.411   .     A
C873   N926    1.425   .     S
C874   C880    1.407   .     A
C874   C876    1.418   .     A
C875   C882    1.405   .     A
C875   C877    1.416   .     A
C876   C878    1.417   .     A
C876   C175    1.410   1_556 S
C877   C879    1.415   .     A
C878   C887    1.413   .     A
C879   C881    1.409   .     A
C880   H916    1.081   .     S
C880   C179    1.395   1_556 S
C881   N927    1.425   .     S
C882   H917    1.081   .     S
C883   N925    1.448   .     S
C883   H901    1.110   .     S
C883   H902    1.110   .     S
C883   H900    1.110   .     S
C884   H906    1.107   .     S
C884   H905    1.111   .     S
C884   N926    1.450   .     S
C884   H904    1.111   .     S
C885   N927    1.447   .     S
C885   H908    1.110   .     S
C885   H909    1.112   .     S
C885   H911    1.111   .     S
C886   H914    1.111   .     S
C886   H915    1.111   .     S
C886   N928    1.446   .     S
C886   H1147   1.110   .     S
C887   N928    1.424   .     S
C887   C180    1.391   1_556 S
C888   Cl893   1.772   .     S
C889   C892    1.414   .     A
C889   Cl894   1.775   .     S
C889   C735    1.391   1_655 S
C890   C892    1.409   .     A
C890   Cl895   1.773   .     S
C890   C732    1.394   1_655 S
C891   Cl896   1.774   .     S
Cu897  O935    1.965   .     S
Cu897  O933    1.973   .     S
Cu897  N923    2.010   .     S
Cu897  Cu898   2.674   .     S
Cu897  O931    1.971   .     S
Cu897  O929    1.971   .     S
Cu898  N924    2.010   .     S
Cu898  O934    1.973   .     S
Cu898  O930    1.971   .     S
Cu898  O932    1.971   .     S
Cu898  O936    1.965   .     S
H903   N926    1.030   .     S
H907   N927    1.032   .     S
H912   N928    1.031   .     S
H913   C1354   1.110   1_545 S
H922   N925    1.030   .     S
C937   O1007   1.291   .     A
C937   O1010   1.288   .     A
C937   C938    1.453   .     S
C938   C969    1.407   .     A
C938   C966    1.411   .     A
C939   H996    1.082   .     S
C939   N1002   1.367   .     A
C940   N1001   1.367   .     A
C940   H997    1.082   .     S
C940   C1175   1.415   .     S
C941   N1002   1.366   .     A
C941   H998    1.080   .     S
C942   N1001   1.366   .     A
C942   H999    1.080   .     S
C942   C1173   1.415   .     S
C943   O1011   1.291   .     A
C943   O1014   1.291   .     A
C943   C949    1.457   .     S
C944   C947    1.461   .     S
C944   O1012   1.291   .     A
C944   O1013   1.293   .     A
C945   C956    1.396   .     A
C945   C947    1.393   .     A
C945   H977    1.082   .     S
C946   H988    1.084   .     S
C946   C957    1.397   .     A
C946   C949    1.394   .     A
C947   C950    1.409   .     A
C948   O1008   1.296   .     A
C948   O1009   1.285   .     A
C948   C970    1.456   .     S
C949   C951    1.404   .     A
C950   N1003   1.425   .     S
C950   C952    1.413   .     A
C951   C953    1.411   .     A
C951   N1004   1.425   .     S
C952   C958    1.407   .     A
C952   C954    1.418   .     A
C953   C960    1.405   .     A
C953   C955    1.416   .     A
C954   C956    1.417   .     A
C954   C253    1.410   1_556 S
C955   C957    1.415   .     A
C956   C965    1.413   .     A
C957   C959    1.409   .     A
C958   H994    1.081   .     S
C958   C257    1.395   1_556 S
C959   N1005   1.425   .     S
C960   H995    1.081   .     S
C961   N1003   1.448   .     S
C961   H979    1.110   .     S
C961   H980    1.110   .     S
C961   H978    1.110   .     S
C962   H984    1.107   .     S
C962   H983    1.111   .     S
C962   N1004   1.450   .     S
C962   H982    1.111   .     S
C963   N1005   1.447   .     S
C963   H986    1.110   .     S
C963   H987    1.112   .     S
C963   H989    1.111   .     S
C964   H992    1.111   .     S
C964   H993    1.111   .     S
C964   N1006   1.446   .     S
C964   H1225   1.110   .     S
C965   N1006   1.424   .     S
C965   C258    1.391   1_556 S
C966   Cl971   1.772   .     S
C966   C1124   1.394   1_455 S
C967   C970    1.414   .     A
C967   Cl972   1.775   .     S
C967   C1047   1.391   .     S
C968   C970    1.409   .     A
C968   Cl973   1.773   .     S
C968   C1044   1.394   .     S
C969   Cl974   1.774   .     S
C969   C1123   1.391   1_455 S
Cu975  O1013   1.965   .     S
Cu975  O1011   1.973   .     S
Cu975  N1001   2.010   .     S
Cu975  Cu976   2.674   .     S
Cu975  O1009   1.971   .     S
Cu975  O1007   1.971   .     S
Cu976  N1002   2.010   .     S
Cu976  O1012   1.973   .     S
Cu976  O1008   1.971   .     S
Cu976  O1010   1.971   .     S
Cu976  O1014   1.965   .     S
H981   N1004   1.030   .     S
H985   N1005   1.032   .     S
H990   N1006   1.031   .     S
H1000  N1003   1.030   .     S
C1015  O1085   1.291   .     A
C1015  O1088   1.288   .     A
C1015  C1016   1.453   .     S
C1016  C1047   1.407   .     A
C1016  C1044   1.411   .     A
C1017  H1074   1.082   .     S
C1017  N1080   1.367   .     A
C1018  N1079   1.367   .     A
C1018  H1075   1.082   .     S
C1018  C1253   1.415   .     S
C1019  N1080   1.366   .     A
C1019  H1076   1.080   .     S
C1020  N1079   1.366   .     A
C1020  H1077   1.080   .     S
C1020  C1251   1.415   .     S
C1021  O1089   1.291   .     A
C1021  O1092   1.291   .     A
C1021  C1027   1.457   .     S
C1022  C1025   1.461   .     S
C1022  O1090   1.291   .     A
C1022  O1091   1.293   .     A
C1023  C1034   1.396   .     A
C1023  C1025   1.393   .     A
C1023  H1055   1.082   .     S
C1024  H1066   1.084   .     S
C1024  C1035   1.397   .     A
C1024  C1027   1.394   .     A
C1025  C1028   1.409   .     A
C1026  O1086   1.296   .     A
C1026  O1087   1.285   .     A
C1026  C1048   1.456   .     S
C1027  C1029   1.404   .     A
C1028  N1081   1.425   .     S
C1028  C1030   1.413   .     A
C1029  C1031   1.411   .     A
C1029  N1082   1.425   .     S
C1030  C1036   1.407   .     A
C1030  C1032   1.418   .     A
C1031  C1038   1.405   .     A
C1031  C1033   1.416   .     A
C1032  C1034   1.417   .     A
C1032  C331    1.410   1_556 S
C1033  C1035   1.415   .     A
C1034  C1043   1.413   .     A
C1035  C1037   1.409   .     A
C1036  H1072   1.081   .     S
C1036  C335    1.395   1_556 S
C1037  N1083   1.425   .     S
C1038  H1073   1.081   .     S
C1039  N1081   1.448   .     S
C1039  H1057   1.110   .     S
C1039  H1058   1.110   .     S
C1039  H1056   1.110   .     S
C1040  H1062   1.107   .     S
C1040  H1061   1.111   .     S
C1040  N1082   1.450   .     S
C1040  H1060   1.111   .     S
C1041  N1083   1.447   .     S
C1041  H1064   1.110   .     S
C1041  H1065   1.112   .     S
C1041  H1067   1.111   .     S
C1042  H1070   1.111   .     S
C1042  H1071   1.111   .     S
C1042  N1084   1.446   .     S
C1042  H1303   1.110   .     S
C1043  N1084   1.424   .     S
C1043  C336    1.391   1_556 S
C1044  Cl1049  1.772   .     S
C1045  C1048   1.414   .     A
C1045  Cl1050  1.775   .     S
C1045  C1125   1.391   .     S
C1046  C1048   1.409   .     A
C1046  Cl1051  1.773   .     S
C1046  C1122   1.394   .     S
C1047  Cl1052  1.774   .     S
Cu1053 O1091   1.965   .     S
Cu1053 O1089   1.973   .     S
Cu1053 N1079   2.010   .     S
Cu1053 Cu1054  2.674   .     S
Cu1053 O1087   1.971   .     S
Cu1053 O1085   1.971   .     S
Cu1054 N1080   2.010   .     S
Cu1054 O1090   1.973   .     S
Cu1054 O1086   1.971   .     S
Cu1054 O1088   1.971   .     S
Cu1054 O1092   1.965   .     S
H1059  N1082   1.030   .     S
H1063  N1083   1.032   .     S
H1068  N1084   1.031   .     S
H1078  N1081   1.030   .     S
C1093  O1163   1.291   .     A
C1093  O1166   1.288   .     A
C1093  C1094   1.453   .     S
C1094  C1125   1.407   .     A
C1094  C1122   1.411   .     A
C1095  H1152   1.082   .     S
C1095  N1158   1.367   .     A
C1096  N1157   1.367   .     A
C1096  H1153   1.082   .     S
C1096  C1331   1.415   .     S
C1097  N1158   1.366   .     A
C1097  H1154   1.080   .     S
C1098  N1157   1.366   .     A
C1098  H1155   1.080   .     S
C1098  C1329   1.415   .     S
C1099  O1167   1.291   .     A
C1099  O1170   1.291   .     A
C1099  C1105   1.457   .     S
C1100  C1103   1.461   .     S
C1100  O1168   1.291   .     A
C1100  O1169   1.293   .     A
C1101  C1112   1.396   .     A
C1101  C1103   1.393   .     A
C1101  H1133   1.082   .     S
C1102  H1144   1.084   .     S
C1102  C1113   1.397   .     A
C1102  C1105   1.394   .     A
C1103  C1106   1.409   .     A
C1104  O1164   1.296   .     A
C1104  O1165   1.285   .     A
C1104  C1126   1.456   .     S
C1105  C1107   1.404   .     A
C1106  N1159   1.425   .     S
C1106  C1108   1.413   .     A
C1107  C1109   1.411   .     A
C1107  N1160   1.425   .     S
C1108  C1114   1.407   .     A
C1108  C1110   1.418   .     A
C1109  C1116   1.405   .     A
C1109  C1111   1.416   .     A
C1110  C1112   1.417   .     A
C1110  C409    1.410   1_556 S
C1111  C1113   1.415   .     A
C1112  C1121   1.413   .     A
C1113  C1115   1.409   .     A
C1114  H1150   1.081   .     S
C1114  C413    1.395   1_556 S
C1115  N1161   1.425   .     S
C1116  H1151   1.081   .     S
C1117  N1159   1.448   .     S
C1117  H1135   1.110   .     S
C1117  H1136   1.110   .     S
C1117  H1134   1.110   .     S
C1118  H1140   1.107   .     S
C1118  H1139   1.111   .     S
C1118  N1160   1.450   .     S
C1118  H1138   1.111   .     S
C1119  N1161   1.447   .     S
C1119  H1142   1.110   .     S
C1119  H1143   1.112   .     S
C1119  H1145   1.111   .     S
C1120  H1148   1.111   .     S
C1120  H1149   1.111   .     S
C1120  N1162   1.446   .     S
C1120  H1381   1.110   .     S
C1121  N1162   1.424   .     S
C1121  C414    1.391   1_556 S
C1122  Cl1127  1.772   .     S
C1123  C1126   1.414   .     A
C1123  Cl1128  1.775   .     S
C1123  C969    1.391   1_655 S
C1124  C1126   1.409   .     A
C1124  Cl1129  1.773   .     S
C1124  C966    1.394   1_655 S
C1125  Cl1130  1.774   .     S
Cu1131 O1169   1.965   .     S
Cu1131 O1167   1.973   .     S
Cu1131 N1157   2.010   .     S
Cu1131 Cu1132  2.674   .     S
Cu1131 O1165   1.971   .     S
Cu1131 O1163   1.971   .     S
Cu1132 N1158   2.010   .     S
Cu1132 O1168   1.973   .     S
Cu1132 O1164   1.971   .     S
Cu1132 O1166   1.971   .     S
Cu1132 O1170   1.965   .     S
H1137  N1160   1.030   .     S
H1141  N1161   1.032   .     S
H1146  N1162   1.031   .     S
H1156  N1159   1.030   .     S
C1171  O1241   1.291   .     A
C1171  O1244   1.288   .     A
C1171  C1172   1.453   .     S
C1172  C1203   1.407   .     A
C1172  C1200   1.411   .     A
C1173  H1230   1.082   .     S
C1173  N1236   1.367   .     A
C1174  N1235   1.367   .     A
C1174  H1231   1.082   .     S
C1174  C707    1.415   1_565 S
C1175  N1236   1.366   .     A
C1175  H1232   1.080   .     S
C1176  N1235   1.366   .     A
C1176  H1233   1.080   .     S
C1176  C705    1.415   1_565 S
C1177  O1245   1.291   .     A
C1177  O1248   1.291   .     A
C1177  C1183   1.457   .     S
C1178  C1181   1.461   .     S
C1178  O1246   1.291   .     A
C1178  O1247   1.293   .     A
C1179  C1190   1.396   .     A
C1179  C1181   1.393   .     A
C1179  H1211   1.082   .     S
C1180  H1222   1.084   .     S
C1180  C1191   1.397   .     A
C1180  C1183   1.394   .     A
C1181  C1184   1.409   .     A
C1182  O1242   1.296   .     A
C1182  O1243   1.285   .     A
C1182  C1204   1.456   .     S
C1183  C1185   1.404   .     A
C1184  N1237   1.425   .     S
C1184  C1186   1.413   .     A
C1185  C1187   1.411   .     A
C1185  N1238   1.425   .     S
C1186  C1192   1.407   .     A
C1186  C1188   1.418   .     A
C1187  C1194   1.405   .     A
C1187  C1189   1.416   .     A
C1188  C1190   1.417   .     A
C1188  C487    1.410   1_556 S
C1189  C1191   1.415   .     A
C1190  C1199   1.413   .     A
C1191  C1193   1.409   .     A
C1192  H1228   1.081   .     S
C1192  C491    1.395   1_556 S
C1193  N1239   1.425   .     S
C1194  H1229   1.081   .     S
C1195  N1237   1.448   .     S
C1195  H1213   1.110   .     S
C1195  H1214   1.110   .     S
C1195  H1212   1.110   .     S
C1196  H1218   1.107   .     S
C1196  H1217   1.111   .     S
C1196  N1238   1.450   .     S
C1196  H1216   1.111   .     S
C1197  N1239   1.447   .     S
C1197  H1220   1.110   .     S
C1197  H1221   1.112   .     S
C1197  H1223   1.111   .     S
C1198  H1226   1.111   .     S
C1198  H1227   1.111   .     S
C1198  N1240   1.446   .     S
C1198  H757    1.110   1_565 S
C1199  N1240   1.424   .     S
C1199  C492    1.391   1_556 S
C1200  Cl1205  1.772   .     S
C1200  C1358   1.394   1_455 S
C1201  C1204   1.414   .     A
C1201  Cl1206  1.775   .     S
C1201  C1281   1.391   .     S
C1202  C1204   1.409   .     A
C1202  Cl1207  1.773   .     S
C1202  C1278   1.394   .     S
C1203  Cl1208  1.774   .     S
C1203  C1357   1.391   1_455 S
Cu1209 O1247   1.965   .     S
Cu1209 O1245   1.973   .     S
Cu1209 N1235   2.010   .     S
Cu1209 Cu1210  2.674   .     S
Cu1209 O1243   1.971   .     S
Cu1209 O1241   1.971   .     S
Cu1210 N1236   2.010   .     S
Cu1210 O1246   1.973   .     S
Cu1210 O1242   1.971   .     S
Cu1210 O1244   1.971   .     S
Cu1210 O1248   1.965   .     S
H1215  N1238   1.030   .     S
H1219  N1239   1.032   .     S
H1224  N1240   1.031   .     S
H1234  N1237   1.030   .     S
C1249  O1319   1.291   .     A
C1249  O1322   1.288   .     A
C1249  C1250   1.453   .     S
C1250  C1281   1.407   .     A
C1250  C1278   1.411   .     A
C1251  H1308   1.082   .     S
C1251  N1314   1.367   .     A
C1252  N1313   1.367   .     A
C1252  H1309   1.082   .     S
C1252  C785    1.415   1_565 S
C1253  N1314   1.366   .     A
C1253  H1310   1.080   .     S
C1254  N1313   1.366   .     A
C1254  H1311   1.080   .     S
C1254  C783    1.415   1_565 S
C1255  O1323   1.291   .     A
C1255  O1326   1.291   .     A
C1255  C1261   1.457   .     S
C1256  C1259   1.461   .     S
C1256  O1324   1.291   .     A
C1256  O1325   1.293   .     A
C1257  C1268   1.396   .     A
C1257  C1259   1.393   .     A
C1257  H1289   1.082   .     S
C1258  H1300   1.084   .     S
C1258  C1269   1.397   .     A
C1258  C1261   1.394   .     A
C1259  C1262   1.409   .     A
C1260  O1320   1.296   .     A
C1260  O1321   1.285   .     A
C1260  C1282   1.456   .     S
C1261  C1263   1.404   .     A
C1262  N1315   1.425   .     S
C1262  C1264   1.413   .     A
C1263  C1265   1.411   .     A
C1263  N1316   1.425   .     S
C1264  C1270   1.407   .     A
C1264  C1266   1.418   .     A
C1265  C1272   1.405   .     A
C1265  C1267   1.416   .     A
C1266  C1268   1.417   .     A
C1266  C565    1.410   1_556 S
C1267  C1269   1.415   .     A
C1268  C1277   1.413   .     A
C1269  C1271   1.409   .     A
C1270  H1306   1.081   .     S
C1270  C569    1.395   1_556 S
C1271  N1317   1.425   .     S
C1272  H1307   1.081   .     S
C1273  N1315   1.448   .     S
C1273  H1291   1.110   .     S
C1273  H1292   1.110   .     S
C1273  H1290   1.110   .     S
C1274  H1296   1.107   .     S
C1274  H1295   1.111   .     S
C1274  N1316   1.450   .     S
C1274  H1294   1.111   .     S
C1275  N1317   1.447   .     S
C1275  H1298   1.110   .     S
C1275  H1299   1.112   .     S
C1275  H1301   1.111   .     S
C1276  H1304   1.111   .     S
C1276  H1305   1.111   .     S
C1276  N1318   1.446   .     S
C1276  H835    1.110   1_565 S
C1277  N1318   1.424   .     S
C1277  C570    1.391   1_556 S
C1278  Cl1283  1.772   .     S
C1279  C1282   1.414   .     A
C1279  Cl1284  1.775   .     S
C1279  C1359   1.391   .     S
C1280  C1282   1.409   .     A
C1280  Cl1285  1.773   .     S
C1280  C1356   1.394   .     S
C1281  Cl1286  1.774   .     S
Cu1287 O1325   1.965   .     S
Cu1287 O1323   1.973   .     S
Cu1287 N1313   2.010   .     S
Cu1287 Cu1288  2.674   .     S
Cu1287 O1321   1.971   .     S
Cu1287 O1319   1.971   .     S
Cu1288 N1314   2.010   .     S
Cu1288 O1324   1.973   .     S
Cu1288 O1320   1.971   .     S
Cu1288 O1322   1.971   .     S
Cu1288 O1326   1.965   .     S
H1293  N1316   1.030   .     S
H1297  N1317   1.032   .     S
H1302  N1318   1.031   .     S
H1312  N1315   1.030   .     S
C1327  O1397   1.291   .     A
C1327  O1400   1.288   .     A
C1327  C1328   1.453   .     S
C1328  C1359   1.407   .     A
C1328  C1356   1.411   .     A
C1329  H1386   1.082   .     S
C1329  N1392   1.367   .     A
C1330  N1391   1.367   .     A
C1330  H1387   1.082   .     S
C1330  C863    1.415   1_565 S
C1331  N1392   1.366   .     A
C1331  H1388   1.080   .     S
C1332  N1391   1.366   .     A
C1332  H1389   1.080   .     S
C1332  C861    1.415   1_565 S
C1333  O1401   1.291   .     A
C1333  O1404   1.291   .     A
C1333  C1339   1.457   .     S
C1334  C1337   1.461   .     S
C1334  O1402   1.291   .     A
C1334  O1403   1.293   .     A
C1335  C1346   1.396   .     A
C1335  C1337   1.393   .     A
C1335  H1367   1.082   .     S
C1336  H1378   1.084   .     S
C1336  C1347   1.397   .     A
C1336  C1339   1.394   .     A
C1337  C1340   1.409   .     A
C1338  O1398   1.296   .     A
C1338  O1399   1.285   .     A
C1338  C1360   1.456   .     S
C1339  C1341   1.404   .     A
C1340  N1393   1.425   .     S
C1340  C1342   1.413   .     A
C1341  C1343   1.411   .     A
C1341  N1394   1.425   .     S
C1342  C1348   1.407   .     A
C1342  C1344   1.418   .     A
C1343  C1350   1.405   .     A
C1343  C1345   1.416   .     A
C1344  C1346   1.417   .     A
C1344  C643    1.410   1_556 S
C1345  C1347   1.415   .     A
C1346  C1355   1.413   .     A
C1347  C1349   1.409   .     A
C1348  H1384   1.081   .     S
C1348  C647    1.395   1_556 S
C1349  N1395   1.425   .     S
C1350  H1385   1.081   .     S
C1351  N1393   1.448   .     S
C1351  H1369   1.110   .     S
C1351  H1370   1.110   .     S
C1351  H1368   1.110   .     S
C1352  H1374   1.107   .     S
C1352  H1373   1.111   .     S
C1352  N1394   1.450   .     S
C1352  H1372   1.111   .     S
C1353  N1395   1.447   .     S
C1353  H1376   1.110   .     S
C1353  H1377   1.112   .     S
C1353  H1379   1.111   .     S
C1354  H1382   1.111   .     S
C1354  H1383   1.111   .     S
C1354  N1396   1.446   .     S
C1354  H913    1.110   1_565 S
C1355  N1396   1.424   .     S
C1355  C648    1.391   1_556 S
C1356  Cl1361  1.772   .     S
C1357  C1360   1.414   .     A
C1357  Cl1362  1.775   .     S
C1357  C1203   1.391   1_655 S
C1358  C1360   1.409   .     A
C1358  Cl1363  1.773   .     S
C1358  C1200   1.394   1_655 S
C1359  Cl1364  1.774   .     S
Cu1365 O1403   1.965   .     S
Cu1365 O1401   1.973   .     S
Cu1365 N1391   2.010   .     S
Cu1365 Cu1366  2.674   .     S
Cu1365 O1399   1.971   .     S
Cu1365 O1397   1.971   .     S
Cu1366 N1392   2.010   .     S
Cu1366 O1402   1.973   .     S
Cu1366 O1398   1.971   .     S
Cu1366 O1400   1.971   .     S
Cu1366 O1404   1.965   .     S
H1371  N1394   1.030   .     S
H1375  N1395   1.032   .     S
H1380  N1396   1.031   .     S
H1390  N1393   1.030   .     S
