data_str_m2_o10_o18_pcu_sym.111
_audit_creation_date              2020-01-03
_audit_creation_method            'Materials Studio'
_symmetry_space_group_name_H-M    'P1'
_symmetry_Int_Tables_number       1
_symmetry_cell_setting            triclinic
loop_
_symmetry_equiv_pos_as_xyz
  x,y,z
_cell_length_a                    22.2885
_cell_length_b                    26.0182
_cell_length_c                    31.4290
_cell_angle_alpha                 93.6676
_cell_angle_beta                  74.4536
_cell_angle_gamma                 103.3696
loop_
_atom_site_label
_atom_site_type_symbol
_atom_site_fract_x
_atom_site_fract_y
_atom_site_fract_z
_atom_site_U_iso_or_equiv
_atom_site_adp_type
_atom_site_occupancy
C1     C     0.18150   0.26672   0.25172   0.00000  Uiso   1.00
C2     C     0.15183   0.06661   0.24828   0.00000  Uiso   1.00
C3     C     0.09172   0.14397   0.04354   0.00000  Uiso   1.00
C4     C     0.24161   0.18933   0.45646   0.00000  Uiso   1.00
C5     C     0.04846   0.12613   0.01840   0.00000  Uiso   1.00
C6     C     0.28488   0.20717   0.48160   0.00000  Uiso   1.00
C7     C     0.19015   0.32274   0.25198   0.00000  Uiso   1.00
C8     C     0.14320   0.01059   0.24800   0.00000  Uiso   1.00
C9     C     0.12713   0.16158   0.33344   0.00000  Uiso   1.00
C10    C     0.20620   0.17175   0.16656   0.00000  Uiso   1.00
C11    C     0.10147   0.15576   0.38205   0.00000  Uiso   1.00
C12    C     0.23186   0.17755   0.11795   0.00000  Uiso   1.00
C13    C     0.02465   0.11302   0.44750   0.00000  Uiso   1.00
C14    C     0.30869   0.22026   0.05250   0.00000  Uiso   1.00
C15    C     0.04237   0.12060   0.40174   0.00000  Uiso   1.00
C16    C     0.29097   0.21271   0.09825   0.00000  Uiso   1.00
C17    C     0.14000   0.18309   0.40935   0.00000  Uiso   1.00
C18    C     0.19333   0.15021   0.09066   0.00000  Uiso   1.00
C19    C     0.12924   0.16320   0.45255   0.00000  Uiso   1.00
C20    C     0.20409   0.17008   0.04745   0.00000  Uiso   1.00
C21    C     0.06751   0.13350   0.47275   0.00000  Uiso   1.00
C22    C     0.26583   0.19979   0.02724   0.00000  Uiso   1.00
C23    C     0.17613   0.17231   0.47695   0.00000  Uiso   1.00
C24    C     0.15721   0.16099   0.02304   0.00000  Uiso   1.00
Cu25   Cu    0.10737   0.16108   0.24516   0.00000  Uiso   1.00
Cu26   Cu    0.22596   0.17225   0.25483   0.00000  Uiso   1.00
H27    H     0.33273   0.10820   0.03492   0.00000  Uiso   1.00
H28    H     0.00060   0.22511   0.46508   0.00000  Uiso   1.00
H29    H     0.31154   0.08890   0.46336   0.00000  Uiso   1.00
H30    H     0.02180   0.24439   0.03663   0.00000  Uiso   1.00
H31    H     0.07325   0.14412   0.07887   0.00000  Uiso   1.00
H32    H     0.26008   0.18920   0.42113   0.00000  Uiso   1.00
H33    H     0.23564   0.01333   0.25508   0.00000  Uiso   1.00
H34    H     0.09770   0.32000   0.24490   0.00000  Uiso   1.00
H35    H     0.00119   0.20489   0.28448   0.00000  Uiso   1.00
H36    H     0.33214   0.12844   0.21552   0.00000  Uiso   1.00
N37    N     0.31506   0.18068   0.26212   0.00000  Uiso   1.00
N38    N     0.01827   0.15265   0.23788   0.00000  Uiso   1.00
O39    O     0.12815   0.23809   0.24686   0.00000  Uiso   1.00
O40    O     0.20518   0.09524   0.25314   0.00000  Uiso   1.00
O41    O     0.22829   0.24753   0.25502   0.00000  Uiso   1.00
O42    O     0.10504   0.08580   0.24497   0.00000  Uiso   1.00
O43    O     0.08851   0.15930   0.30854   0.00000  Uiso   1.00
O44    O     0.24482   0.17403   0.19145   0.00000  Uiso   1.00
O45    O     0.18866   0.16874   0.31671   0.00000  Uiso   1.00
O46    O     0.14468   0.16460   0.18329   0.00000  Uiso   1.00
C47    C     0.15294   0.09455   0.10469   0.00000  Uiso   1.00
C48    C     0.17144   0.05069   0.07146   0.00000  Uiso   1.00
C49    C     0.12019   0.02638   0.04746   0.00000  Uiso   1.00
H50    H     0.07146   0.02296   0.06946   0.00000  Uiso   1.00
H51    H     0.12560   0.05023   0.01816   0.00000  Uiso   1.00
H52    H     0.12530   0.31938   0.03593   0.00000  Uiso   1.00
H53    H     0.21766   0.06526   0.04679   0.00000  Uiso   1.00
H54    H     0.17849   0.01829   0.08981   0.00000  Uiso   1.00
H55    H     0.16106   0.08348   0.13589   0.00000  Uiso   1.00
H56    H     0.10109   0.09268   0.11405   0.00000  Uiso   1.00
C57    C     0.18036   0.23876   0.39534   0.00000  Uiso   1.00
C58    C     0.16189   0.28259   0.42861   0.00000  Uiso   1.00
C59    C     0.21326   0.30696   0.45250   0.00000  Uiso   1.00
H60    H     0.20792   0.28316   0.48182   0.00000  Uiso   1.00
H61    H     0.26195   0.31032   0.43046   0.00000  Uiso   1.00
H62    H     0.20817   0.01397   0.46400   0.00000  Uiso   1.00
H63    H     0.15465   0.31495   0.41033   0.00000  Uiso   1.00
H64    H     0.11577   0.26796   0.45336   0.00000  Uiso   1.00
H65    H     0.23221   0.24062   0.38594   0.00000  Uiso   1.00
H66    H     0.17220   0.24985   0.36415   0.00000  Uiso   1.00
C67    C     0.00312   0.24306   0.12408   0.00000  Uiso   1.00
C68    C     0.31237   0.29062   0.14785   0.00000  Uiso   1.00
C69    C     0.02129   0.31836   0.17722   0.00000  Uiso   1.00
H70    H     0.01841   0.29143   0.20406   0.00000  Uiso   1.00
H71    H     0.07172   0.33045   0.15762   0.00000  Uiso   1.00
H72    H     0.00488   0.02083   0.19222   0.00000  Uiso   1.00
H73    H     0.31191   0.31908   0.12314   0.00000  Uiso   1.00
H74    H     0.26272   0.27795   0.16836   0.00000  Uiso   1.00
H75    H     0.01154   0.21671   0.14717   0.00000  Uiso   1.00
H76    H     0.05114   0.25811   0.10149   0.00000  Uiso   1.00
C77    C     0.33022   0.09026   0.37590   0.00000  Uiso   1.00
C78    C     0.02099   0.04271   0.35212   0.00000  Uiso   1.00
C79    C     0.31207   0.01496   0.32276   0.00000  Uiso   1.00
H80    H     0.26165   0.00285   0.34237   0.00000  Uiso   1.00
H81    H     0.31492   0.04189   0.29592   0.00000  Uiso   1.00
H82    H     0.32850   0.31251   0.30775   0.00000  Uiso   1.00
H83    H     0.07063   0.05540   0.33160   0.00000  Uiso   1.00
H84    H     0.02147   0.01425   0.37683   0.00000  Uiso   1.00
H85    H     0.28220   0.07519   0.39849   0.00000  Uiso   1.00
H86    H     0.32180   0.11661   0.35282   0.00000  Uiso   1.00
C87    C     0.51484   0.26672   0.25172   0.00000  Uiso   1.00
C88    C     0.48517   0.06661   0.24828   0.00000  Uiso   1.00
C89    C     0.42506   0.14397   0.04354   0.00000  Uiso   1.00
C90    C     0.57494   0.18933   0.45646   0.00000  Uiso   1.00
C91    C     0.38179   0.12613   0.01840   0.00000  Uiso   1.00
C92    C     0.61821   0.20717   0.48160   0.00000  Uiso   1.00
C93    C     0.52348   0.32274   0.25198   0.00000  Uiso   1.00
C94    C     0.47653   0.01059   0.24800   0.00000  Uiso   1.00
C95    C     0.46046   0.16158   0.33344   0.00000  Uiso   1.00
C96    C     0.53954   0.17175   0.16656   0.00000  Uiso   1.00
C97    C     0.43481   0.15576   0.38205   0.00000  Uiso   1.00
C98    C     0.56519   0.17755   0.11795   0.00000  Uiso   1.00
C99    C     0.35799   0.11302   0.44750   0.00000  Uiso   1.00
C100   C     0.64202   0.22026   0.05250   0.00000  Uiso   1.00
C101   C     0.37570   0.12060   0.40174   0.00000  Uiso   1.00
C102   C     0.62430   0.21271   0.09825   0.00000  Uiso   1.00
C103   C     0.47334   0.18309   0.40935   0.00000  Uiso   1.00
C104   C     0.52666   0.15021   0.09066   0.00000  Uiso   1.00
C105   C     0.46258   0.16320   0.45255   0.00000  Uiso   1.00
C106   C     0.53743   0.17008   0.04745   0.00000  Uiso   1.00
C107   C     0.40085   0.13350   0.47275   0.00000  Uiso   1.00
C108   C     0.59916   0.19979   0.02724   0.00000  Uiso   1.00
C109   C     0.50946   0.17231   0.47695   0.00000  Uiso   1.00
C110   C     0.49054   0.16099   0.02304   0.00000  Uiso   1.00
Cu111  Cu    0.44071   0.16108   0.24516   0.00000  Uiso   1.00
Cu112  Cu    0.55929   0.17225   0.25483   0.00000  Uiso   1.00
H113   H     0.66606   0.10820   0.03492   0.00000  Uiso   1.00
H114   H     0.33394   0.22511   0.46508   0.00000  Uiso   1.00
H115   H     0.64488   0.08890   0.46336   0.00000  Uiso   1.00
H116   H     0.35513   0.24439   0.03663   0.00000  Uiso   1.00
H117   H     0.40658   0.14412   0.07887   0.00000  Uiso   1.00
H118   H     0.59341   0.18920   0.42113   0.00000  Uiso   1.00
H119   H     0.56898   0.01333   0.25508   0.00000  Uiso   1.00
H120   H     0.43104   0.32000   0.24490   0.00000  Uiso   1.00
H121   H     0.33452   0.20489   0.28448   0.00000  Uiso   1.00
H122   H     0.66548   0.12844   0.21552   0.00000  Uiso   1.00
N123   N     0.64839   0.18068   0.26212   0.00000  Uiso   1.00
N124   N     0.35161   0.15265   0.23788   0.00000  Uiso   1.00
O125   O     0.46148   0.23809   0.24686   0.00000  Uiso   1.00
O126   O     0.53852   0.09524   0.25314   0.00000  Uiso   1.00
O127   O     0.56163   0.24753   0.25502   0.00000  Uiso   1.00
O128   O     0.43837   0.08580   0.24497   0.00000  Uiso   1.00
O129   O     0.42185   0.15930   0.30854   0.00000  Uiso   1.00
O130   O     0.57815   0.17403   0.19145   0.00000  Uiso   1.00
O131   O     0.52199   0.16874   0.31671   0.00000  Uiso   1.00
O132   O     0.47801   0.16460   0.18329   0.00000  Uiso   1.00
C133   C     0.48628   0.09455   0.10469   0.00000  Uiso   1.00
C134   C     0.50478   0.05069   0.07146   0.00000  Uiso   1.00
C135   C     0.45352   0.02638   0.04746   0.00000  Uiso   1.00
H136   H     0.40479   0.02296   0.06946   0.00000  Uiso   1.00
H137   H     0.45894   0.05023   0.01816   0.00000  Uiso   1.00
H138   H     0.45863   0.31938   0.03593   0.00000  Uiso   1.00
H139   H     0.55099   0.06526   0.04679   0.00000  Uiso   1.00
H140   H     0.51183   0.01829   0.08981   0.00000  Uiso   1.00
H141   H     0.49439   0.08348   0.13589   0.00000  Uiso   1.00
H142   H     0.43443   0.09268   0.11405   0.00000  Uiso   1.00
C143   C     0.51370   0.23876   0.39534   0.00000  Uiso   1.00
C144   C     0.49522   0.28259   0.42861   0.00000  Uiso   1.00
C145   C     0.54659   0.30696   0.45250   0.00000  Uiso   1.00
H146   H     0.54125   0.28316   0.48182   0.00000  Uiso   1.00
H147   H     0.59529   0.31032   0.43046   0.00000  Uiso   1.00
H148   H     0.54150   0.01397   0.46400   0.00000  Uiso   1.00
H149   H     0.48798   0.31495   0.41033   0.00000  Uiso   1.00
H150   H     0.44910   0.26796   0.45336   0.00000  Uiso   1.00
H151   H     0.56554   0.24062   0.38594   0.00000  Uiso   1.00
H152   H     0.50554   0.24985   0.36415   0.00000  Uiso   1.00
C153   C     0.33645   0.24306   0.12408   0.00000  Uiso   1.00
C154   C     0.64570   0.29062   0.14785   0.00000  Uiso   1.00
C155   C     0.35462   0.31836   0.17722   0.00000  Uiso   1.00
H156   H     0.35174   0.29143   0.20406   0.00000  Uiso   1.00
H157   H     0.40505   0.33045   0.15762   0.00000  Uiso   1.00
H158   H     0.33821   0.02083   0.19222   0.00000  Uiso   1.00
H159   H     0.64524   0.31908   0.12314   0.00000  Uiso   1.00
H160   H     0.59605   0.27795   0.16836   0.00000  Uiso   1.00
H161   H     0.34487   0.21671   0.14717   0.00000  Uiso   1.00
H162   H     0.38447   0.25811   0.10149   0.00000  Uiso   1.00
C163   C     0.66355   0.09026   0.37590   0.00000  Uiso   1.00
C164   C     0.35432   0.04271   0.35212   0.00000  Uiso   1.00
C165   C     0.64540   0.01496   0.32276   0.00000  Uiso   1.00
H166   H     0.59498   0.00285   0.34237   0.00000  Uiso   1.00
H167   H     0.64825   0.04189   0.29592   0.00000  Uiso   1.00
H168   H     0.66183   0.31251   0.30775   0.00000  Uiso   1.00
H169   H     0.40397   0.05540   0.33160   0.00000  Uiso   1.00
H170   H     0.35481   0.01425   0.37683   0.00000  Uiso   1.00
H171   H     0.61554   0.07519   0.39849   0.00000  Uiso   1.00
H172   H     0.65513   0.11661   0.35282   0.00000  Uiso   1.00
C173   C     0.84817   0.26672   0.25172   0.00000  Uiso   1.00
C174   C     0.81850   0.06661   0.24828   0.00000  Uiso   1.00
C175   C     0.75839   0.14397   0.04354   0.00000  Uiso   1.00
C176   C     0.90827   0.18933   0.45646   0.00000  Uiso   1.00
C177   C     0.71512   0.12613   0.01840   0.00000  Uiso   1.00
C178   C     0.95155   0.20717   0.48160   0.00000  Uiso   1.00
C179   C     0.85681   0.32274   0.25198   0.00000  Uiso   1.00
C180   C     0.80986   0.01059   0.24800   0.00000  Uiso   1.00
C181   C     0.79380   0.16158   0.33344   0.00000  Uiso   1.00
C182   C     0.87287   0.17175   0.16656   0.00000  Uiso   1.00
C183   C     0.76814   0.15576   0.38205   0.00000  Uiso   1.00
C184   C     0.89852   0.17755   0.11795   0.00000  Uiso   1.00
C185   C     0.69132   0.11302   0.44750   0.00000  Uiso   1.00
C186   C     0.97535   0.22026   0.05250   0.00000  Uiso   1.00
C187   C     0.70903   0.12060   0.40174   0.00000  Uiso   1.00
C188   C     0.95764   0.21271   0.09825   0.00000  Uiso   1.00
C189   C     0.80667   0.18309   0.40935   0.00000  Uiso   1.00
C190   C     0.85999   0.15021   0.09066   0.00000  Uiso   1.00
C191   C     0.79591   0.16320   0.45255   0.00000  Uiso   1.00
C192   C     0.87076   0.17008   0.04745   0.00000  Uiso   1.00
C193   C     0.73418   0.13350   0.47275   0.00000  Uiso   1.00
C194   C     0.93249   0.19979   0.02724   0.00000  Uiso   1.00
C195   C     0.84279   0.17231   0.47695   0.00000  Uiso   1.00
C196   C     0.82388   0.16099   0.02304   0.00000  Uiso   1.00
Cu197  Cu    0.77404   0.16108   0.24516   0.00000  Uiso   1.00
Cu198  Cu    0.89263   0.17225   0.25483   0.00000  Uiso   1.00
H199   H     0.99940   0.10820   0.03492   0.00000  Uiso   1.00
H200   H     0.66727   0.22511   0.46508   0.00000  Uiso   1.00
H201   H     0.97821   0.08890   0.46336   0.00000  Uiso   1.00
H202   H     0.68846   0.24439   0.03663   0.00000  Uiso   1.00
H203   H     0.73991   0.14412   0.07887   0.00000  Uiso   1.00
H204   H     0.92675   0.18920   0.42113   0.00000  Uiso   1.00
H205   H     0.90231   0.01333   0.25508   0.00000  Uiso   1.00
H206   H     0.76437   0.32000   0.24490   0.00000  Uiso   1.00
H207   H     0.66786   0.20489   0.28448   0.00000  Uiso   1.00
H208   H     0.99881   0.12844   0.21552   0.00000  Uiso   1.00
N209   N     0.98173   0.18068   0.26212   0.00000  Uiso   1.00
N210   N     0.68494   0.15265   0.23788   0.00000  Uiso   1.00
O211   O     0.79482   0.23809   0.24686   0.00000  Uiso   1.00
O212   O     0.87185   0.09524   0.25314   0.00000  Uiso   1.00
O213   O     0.89496   0.24753   0.25502   0.00000  Uiso   1.00
O214   O     0.77171   0.08580   0.24497   0.00000  Uiso   1.00
O215   O     0.75518   0.15930   0.30854   0.00000  Uiso   1.00
O216   O     0.91149   0.17403   0.19145   0.00000  Uiso   1.00
O217   O     0.85532   0.16874   0.31671   0.00000  Uiso   1.00
O218   O     0.81134   0.16460   0.18329   0.00000  Uiso   1.00
C219   C     0.81961   0.09455   0.10469   0.00000  Uiso   1.00
C220   C     0.83811   0.05069   0.07146   0.00000  Uiso   1.00
C221   C     0.78685   0.02638   0.04746   0.00000  Uiso   1.00
H222   H     0.73812   0.02296   0.06946   0.00000  Uiso   1.00
H223   H     0.79227   0.05023   0.01816   0.00000  Uiso   1.00
H224   H     0.79196   0.31938   0.03593   0.00000  Uiso   1.00
H225   H     0.88432   0.06526   0.04679   0.00000  Uiso   1.00
H226   H     0.84516   0.01829   0.08981   0.00000  Uiso   1.00
H227   H     0.82772   0.08348   0.13589   0.00000  Uiso   1.00
H228   H     0.76776   0.09268   0.11405   0.00000  Uiso   1.00
C229   C     0.84703   0.23876   0.39534   0.00000  Uiso   1.00
C230   C     0.82855   0.28259   0.42861   0.00000  Uiso   1.00
C231   C     0.87992   0.30696   0.45250   0.00000  Uiso   1.00
H232   H     0.87459   0.28316   0.48182   0.00000  Uiso   1.00
H233   H     0.92862   0.31032   0.43046   0.00000  Uiso   1.00
H234   H     0.87484   0.01397   0.46400   0.00000  Uiso   1.00
H235   H     0.82131   0.31495   0.41033   0.00000  Uiso   1.00
H236   H     0.78244   0.26796   0.45336   0.00000  Uiso   1.00
H237   H     0.89888   0.24062   0.38594   0.00000  Uiso   1.00
H238   H     0.83887   0.24985   0.36415   0.00000  Uiso   1.00
C239   C     0.66979   0.24306   0.12408   0.00000  Uiso   1.00
C240   C     0.97904   0.29062   0.14785   0.00000  Uiso   1.00
C241   C     0.68795   0.31836   0.17722   0.00000  Uiso   1.00
H242   H     0.68508   0.29143   0.20406   0.00000  Uiso   1.00
H243   H     0.73838   0.33045   0.15762   0.00000  Uiso   1.00
H244   H     0.67155   0.02083   0.19222   0.00000  Uiso   1.00
H245   H     0.97858   0.31908   0.12314   0.00000  Uiso   1.00
H246   H     0.92939   0.27795   0.16836   0.00000  Uiso   1.00
H247   H     0.67821   0.21671   0.14717   0.00000  Uiso   1.00
H248   H     0.71781   0.25811   0.10149   0.00000  Uiso   1.00
C249   C     0.99689   0.09026   0.37590   0.00000  Uiso   1.00
C250   C     0.68766   0.04271   0.35212   0.00000  Uiso   1.00
C251   C     0.97874   0.01496   0.32276   0.00000  Uiso   1.00
H252   H     0.92831   0.00285   0.34237   0.00000  Uiso   1.00
H253   H     0.98159   0.04189   0.29592   0.00000  Uiso   1.00
H254   H     0.99516   0.31251   0.30775   0.00000  Uiso   1.00
H255   H     0.73730   0.05540   0.33160   0.00000  Uiso   1.00
H256   H     0.68814   0.01425   0.37683   0.00000  Uiso   1.00
H257   H     0.94887   0.07519   0.39849   0.00000  Uiso   1.00
H258   H     0.98846   0.11661   0.35282   0.00000  Uiso   1.00
C259   C     0.18150   0.60006   0.25172   0.00000  Uiso   1.00
C260   C     0.15183   0.39994   0.24828   0.00000  Uiso   1.00
C261   C     0.09172   0.47730   0.04354   0.00000  Uiso   1.00
C262   C     0.24161   0.52267   0.45646   0.00000  Uiso   1.00
C263   C     0.04846   0.45946   0.01840   0.00000  Uiso   1.00
C264   C     0.28488   0.54050   0.48160   0.00000  Uiso   1.00
C265   C     0.19015   0.65607   0.25198   0.00000  Uiso   1.00
C266   C     0.14320   0.34393   0.24800   0.00000  Uiso   1.00
C267   C     0.12713   0.49491   0.33344   0.00000  Uiso   1.00
C268   C     0.20620   0.50508   0.16656   0.00000  Uiso   1.00
C269   C     0.10147   0.48909   0.38205   0.00000  Uiso   1.00
C270   C     0.23186   0.51089   0.11795   0.00000  Uiso   1.00
C271   C     0.02465   0.44636   0.44750   0.00000  Uiso   1.00
C272   C     0.30869   0.55360   0.05250   0.00000  Uiso   1.00
C273   C     0.04237   0.45393   0.40174   0.00000  Uiso   1.00
C274   C     0.29097   0.54604   0.09825   0.00000  Uiso   1.00
C275   C     0.14000   0.51642   0.40935   0.00000  Uiso   1.00
C276   C     0.19333   0.48355   0.09066   0.00000  Uiso   1.00
C277   C     0.12924   0.49654   0.45255   0.00000  Uiso   1.00
C278   C     0.20409   0.50342   0.04745   0.00000  Uiso   1.00
C279   C     0.06751   0.46683   0.47275   0.00000  Uiso   1.00
C280   C     0.26583   0.53312   0.02724   0.00000  Uiso   1.00
C281   C     0.17613   0.50564   0.47695   0.00000  Uiso   1.00
C282   C     0.15721   0.49432   0.02304   0.00000  Uiso   1.00
Cu283  Cu    0.10737   0.49441   0.24516   0.00000  Uiso   1.00
Cu284  Cu    0.22596   0.50559   0.25483   0.00000  Uiso   1.00
H285   H     0.33273   0.44153   0.03492   0.00000  Uiso   1.00
H286   H     0.00060   0.55844   0.46508   0.00000  Uiso   1.00
H287   H     0.31154   0.42224   0.46336   0.00000  Uiso   1.00
H288   H     0.02180   0.57772   0.03663   0.00000  Uiso   1.00
H289   H     0.07325   0.47745   0.07887   0.00000  Uiso   1.00
H290   H     0.26008   0.52253   0.42113   0.00000  Uiso   1.00
H291   H     0.23564   0.34667   0.25508   0.00000  Uiso   1.00
H292   H     0.09770   0.65334   0.24490   0.00000  Uiso   1.00
H293   H     0.00119   0.53823   0.28448   0.00000  Uiso   1.00
H294   H     0.33214   0.46177   0.21552   0.00000  Uiso   1.00
N295   N     0.31506   0.51401   0.26212   0.00000  Uiso   1.00
N296   N     0.01827   0.48599   0.23788   0.00000  Uiso   1.00
O297   O     0.12815   0.57142   0.24686   0.00000  Uiso   1.00
O298   O     0.20518   0.42858   0.25314   0.00000  Uiso   1.00
O299   O     0.22829   0.58086   0.25502   0.00000  Uiso   1.00
O300   O     0.10504   0.41914   0.24497   0.00000  Uiso   1.00
O301   O     0.08851   0.49263   0.30854   0.00000  Uiso   1.00
O302   O     0.24482   0.50737   0.19145   0.00000  Uiso   1.00
O303   O     0.18866   0.50207   0.31671   0.00000  Uiso   1.00
O304   O     0.14468   0.49793   0.18329   0.00000  Uiso   1.00
C305   C     0.15294   0.42788   0.10469   0.00000  Uiso   1.00
C306   C     0.17144   0.38402   0.07146   0.00000  Uiso   1.00
C307   C     0.12019   0.35971   0.04746   0.00000  Uiso   1.00
H308   H     0.07146   0.35629   0.06946   0.00000  Uiso   1.00
H309   H     0.12560   0.38356   0.01816   0.00000  Uiso   1.00
H310   H     0.12530   0.65272   0.03593   0.00000  Uiso   1.00
H311   H     0.21766   0.39860   0.04679   0.00000  Uiso   1.00
H312   H     0.17849   0.35163   0.08981   0.00000  Uiso   1.00
H313   H     0.16106   0.41682   0.13589   0.00000  Uiso   1.00
H314   H     0.10109   0.42602   0.11405   0.00000  Uiso   1.00
C315   C     0.18036   0.57209   0.39534   0.00000  Uiso   1.00
C316   C     0.16189   0.61593   0.42861   0.00000  Uiso   1.00
C317   C     0.21326   0.64030   0.45250   0.00000  Uiso   1.00
H318   H     0.20792   0.61649   0.48182   0.00000  Uiso   1.00
H319   H     0.26195   0.64366   0.43046   0.00000  Uiso   1.00
H320   H     0.20817   0.34731   0.46400   0.00000  Uiso   1.00
H321   H     0.15465   0.64829   0.41033   0.00000  Uiso   1.00
H322   H     0.11577   0.60130   0.45336   0.00000  Uiso   1.00
H323   H     0.23221   0.57395   0.38594   0.00000  Uiso   1.00
H324   H     0.17220   0.58318   0.36415   0.00000  Uiso   1.00
C325   C     0.00312   0.57639   0.12408   0.00000  Uiso   1.00
C326   C     0.31237   0.62396   0.14785   0.00000  Uiso   1.00
C327   C     0.02129   0.65170   0.17722   0.00000  Uiso   1.00
H328   H     0.01841   0.62477   0.20406   0.00000  Uiso   1.00
H329   H     0.07172   0.66378   0.15762   0.00000  Uiso   1.00
H330   H     0.00488   0.35417   0.19222   0.00000  Uiso   1.00
H331   H     0.31191   0.65242   0.12314   0.00000  Uiso   1.00
H332   H     0.26272   0.61128   0.16836   0.00000  Uiso   1.00
H333   H     0.01154   0.55005   0.14717   0.00000  Uiso   1.00
H334   H     0.05114   0.59144   0.10149   0.00000  Uiso   1.00
C335   C     0.33022   0.42359   0.37590   0.00000  Uiso   1.00
C336   C     0.02099   0.37604   0.35212   0.00000  Uiso   1.00
C337   C     0.31207   0.34830   0.32276   0.00000  Uiso   1.00
H338   H     0.26165   0.33619   0.34237   0.00000  Uiso   1.00
H339   H     0.31492   0.37522   0.29592   0.00000  Uiso   1.00
H340   H     0.32850   0.64584   0.30775   0.00000  Uiso   1.00
H341   H     0.07063   0.38873   0.33160   0.00000  Uiso   1.00
H342   H     0.02147   0.34758   0.37683   0.00000  Uiso   1.00
H343   H     0.28220   0.40853   0.39849   0.00000  Uiso   1.00
H344   H     0.32180   0.44995   0.35282   0.00000  Uiso   1.00
C345   C     0.51484   0.60006   0.25172   0.00000  Uiso   1.00
C346   C     0.48517   0.39994   0.24828   0.00000  Uiso   1.00
C347   C     0.42506   0.47730   0.04354   0.00000  Uiso   1.00
C348   C     0.57494   0.52267   0.45646   0.00000  Uiso   1.00
C349   C     0.38179   0.45946   0.01840   0.00000  Uiso   1.00
C350   C     0.61821   0.54050   0.48160   0.00000  Uiso   1.00
C351   C     0.52348   0.65607   0.25198   0.00000  Uiso   1.00
C352   C     0.47653   0.34393   0.24800   0.00000  Uiso   1.00
C353   C     0.46046   0.49491   0.33344   0.00000  Uiso   1.00
C354   C     0.53954   0.50508   0.16656   0.00000  Uiso   1.00
C355   C     0.43481   0.48909   0.38205   0.00000  Uiso   1.00
C356   C     0.56519   0.51089   0.11795   0.00000  Uiso   1.00
C357   C     0.35799   0.44636   0.44750   0.00000  Uiso   1.00
C358   C     0.64202   0.55360   0.05250   0.00000  Uiso   1.00
C359   C     0.37570   0.45393   0.40174   0.00000  Uiso   1.00
C360   C     0.62430   0.54604   0.09825   0.00000  Uiso   1.00
C361   C     0.47334   0.51642   0.40935   0.00000  Uiso   1.00
C362   C     0.52666   0.48355   0.09066   0.00000  Uiso   1.00
C363   C     0.46258   0.49654   0.45255   0.00000  Uiso   1.00
C364   C     0.53743   0.50342   0.04745   0.00000  Uiso   1.00
C365   C     0.40085   0.46683   0.47275   0.00000  Uiso   1.00
C366   C     0.59916   0.53312   0.02724   0.00000  Uiso   1.00
C367   C     0.50946   0.50564   0.47695   0.00000  Uiso   1.00
C368   C     0.49054   0.49432   0.02304   0.00000  Uiso   1.00
Cu369  Cu    0.44071   0.49441   0.24516   0.00000  Uiso   1.00
Cu370  Cu    0.55929   0.50559   0.25483   0.00000  Uiso   1.00
H371   H     0.66606   0.44153   0.03492   0.00000  Uiso   1.00
H372   H     0.33394   0.55844   0.46508   0.00000  Uiso   1.00
H373   H     0.64488   0.42224   0.46336   0.00000  Uiso   1.00
H374   H     0.35513   0.57772   0.03663   0.00000  Uiso   1.00
H375   H     0.40658   0.47745   0.07887   0.00000  Uiso   1.00
H376   H     0.59341   0.52253   0.42113   0.00000  Uiso   1.00
H377   H     0.56898   0.34667   0.25508   0.00000  Uiso   1.00
H378   H     0.43104   0.65334   0.24490   0.00000  Uiso   1.00
H379   H     0.33452   0.53823   0.28448   0.00000  Uiso   1.00
H380   H     0.66548   0.46177   0.21552   0.00000  Uiso   1.00
N381   N     0.64839   0.51401   0.26212   0.00000  Uiso   1.00
N382   N     0.35161   0.48599   0.23788   0.00000  Uiso   1.00
O383   O     0.46148   0.57142   0.24686   0.00000  Uiso   1.00
O384   O     0.53852   0.42858   0.25314   0.00000  Uiso   1.00
O385   O     0.56163   0.58086   0.25502   0.00000  Uiso   1.00
O386   O     0.43837   0.41914   0.24497   0.00000  Uiso   1.00
O387   O     0.42185   0.49263   0.30854   0.00000  Uiso   1.00
O388   O     0.57815   0.50737   0.19145   0.00000  Uiso   1.00
O389   O     0.52199   0.50207   0.31671   0.00000  Uiso   1.00
O390   O     0.47801   0.49793   0.18329   0.00000  Uiso   1.00
C391   C     0.48628   0.42788   0.10469   0.00000  Uiso   1.00
C392   C     0.50478   0.38402   0.07146   0.00000  Uiso   1.00
C393   C     0.45352   0.35971   0.04746   0.00000  Uiso   1.00
H394   H     0.40479   0.35629   0.06946   0.00000  Uiso   1.00
H395   H     0.45894   0.38356   0.01816   0.00000  Uiso   1.00
H396   H     0.45863   0.65272   0.03593   0.00000  Uiso   1.00
H397   H     0.55099   0.39860   0.04679   0.00000  Uiso   1.00
H398   H     0.51183   0.35163   0.08981   0.00000  Uiso   1.00
H399   H     0.49439   0.41682   0.13589   0.00000  Uiso   1.00
H400   H     0.43443   0.42602   0.11405   0.00000  Uiso   1.00
C401   C     0.51370   0.57209   0.39534   0.00000  Uiso   1.00
C402   C     0.49522   0.61593   0.42861   0.00000  Uiso   1.00
C403   C     0.54659   0.64030   0.45250   0.00000  Uiso   1.00
H404   H     0.54125   0.61649   0.48182   0.00000  Uiso   1.00
H405   H     0.59529   0.64366   0.43046   0.00000  Uiso   1.00
H406   H     0.54150   0.34731   0.46400   0.00000  Uiso   1.00
H407   H     0.48798   0.64829   0.41033   0.00000  Uiso   1.00
H408   H     0.44910   0.60130   0.45336   0.00000  Uiso   1.00
H409   H     0.56554   0.57395   0.38594   0.00000  Uiso   1.00
H410   H     0.50554   0.58318   0.36415   0.00000  Uiso   1.00
C411   C     0.33645   0.57639   0.12408   0.00000  Uiso   1.00
C412   C     0.64570   0.62396   0.14785   0.00000  Uiso   1.00
C413   C     0.35462   0.65170   0.17722   0.00000  Uiso   1.00
H414   H     0.35174   0.62477   0.20406   0.00000  Uiso   1.00
H415   H     0.40505   0.66378   0.15762   0.00000  Uiso   1.00
H416   H     0.33821   0.35417   0.19222   0.00000  Uiso   1.00
H417   H     0.64524   0.65242   0.12314   0.00000  Uiso   1.00
H418   H     0.59605   0.61128   0.16836   0.00000  Uiso   1.00
H419   H     0.34487   0.55005   0.14717   0.00000  Uiso   1.00
H420   H     0.38447   0.59144   0.10149   0.00000  Uiso   1.00
C421   C     0.66355   0.42359   0.37590   0.00000  Uiso   1.00
C422   C     0.35432   0.37604   0.35212   0.00000  Uiso   1.00
C423   C     0.64540   0.34830   0.32276   0.00000  Uiso   1.00
H424   H     0.59498   0.33619   0.34237   0.00000  Uiso   1.00
H425   H     0.64825   0.37522   0.29592   0.00000  Uiso   1.00
H426   H     0.66183   0.64584   0.30775   0.00000  Uiso   1.00
H427   H     0.40397   0.38873   0.33160   0.00000  Uiso   1.00
H428   H     0.35481   0.34758   0.37683   0.00000  Uiso   1.00
H429   H     0.61554   0.40853   0.39849   0.00000  Uiso   1.00
H430   H     0.65513   0.44995   0.35282   0.00000  Uiso   1.00
C431   C     0.84817   0.60006   0.25172   0.00000  Uiso   1.00
C432   C     0.81850   0.39994   0.24828   0.00000  Uiso   1.00
C433   C     0.75839   0.47730   0.04354   0.00000  Uiso   1.00
C434   C     0.90827   0.52267   0.45646   0.00000  Uiso   1.00
C435   C     0.71512   0.45946   0.01840   0.00000  Uiso   1.00
C436   C     0.95155   0.54050   0.48160   0.00000  Uiso   1.00
C437   C     0.85681   0.65607   0.25198   0.00000  Uiso   1.00
C438   C     0.80986   0.34393   0.24800   0.00000  Uiso   1.00
C439   C     0.79380   0.49491   0.33344   0.00000  Uiso   1.00
C440   C     0.87287   0.50508   0.16656   0.00000  Uiso   1.00
C441   C     0.76814   0.48909   0.38205   0.00000  Uiso   1.00
C442   C     0.89852   0.51089   0.11795   0.00000  Uiso   1.00
C443   C     0.69132   0.44636   0.44750   0.00000  Uiso   1.00
C444   C     0.97535   0.55360   0.05250   0.00000  Uiso   1.00
C445   C     0.70903   0.45393   0.40174   0.00000  Uiso   1.00
C446   C     0.95764   0.54604   0.09825   0.00000  Uiso   1.00
C447   C     0.80667   0.51642   0.40935   0.00000  Uiso   1.00
C448   C     0.85999   0.48355   0.09066   0.00000  Uiso   1.00
C449   C     0.79591   0.49654   0.45255   0.00000  Uiso   1.00
C450   C     0.87076   0.50342   0.04745   0.00000  Uiso   1.00
C451   C     0.73418   0.46683   0.47275   0.00000  Uiso   1.00
C452   C     0.93249   0.53312   0.02724   0.00000  Uiso   1.00
C453   C     0.84279   0.50564   0.47695   0.00000  Uiso   1.00
C454   C     0.82388   0.49432   0.02304   0.00000  Uiso   1.00
Cu455  Cu    0.77404   0.49441   0.24516   0.00000  Uiso   1.00
Cu456  Cu    0.89263   0.50559   0.25483   0.00000  Uiso   1.00
H457   H     0.99940   0.44153   0.03492   0.00000  Uiso   1.00
H458   H     0.66727   0.55844   0.46508   0.00000  Uiso   1.00
H459   H     0.97821   0.42224   0.46336   0.00000  Uiso   1.00
H460   H     0.68846   0.57772   0.03663   0.00000  Uiso   1.00
H461   H     0.73991   0.47745   0.07887   0.00000  Uiso   1.00
H462   H     0.92675   0.52253   0.42113   0.00000  Uiso   1.00
H463   H     0.90231   0.34667   0.25508   0.00000  Uiso   1.00
H464   H     0.76437   0.65334   0.24490   0.00000  Uiso   1.00
H465   H     0.66786   0.53823   0.28448   0.00000  Uiso   1.00
H466   H     0.99881   0.46177   0.21552   0.00000  Uiso   1.00
N467   N     0.98173   0.51401   0.26212   0.00000  Uiso   1.00
N468   N     0.68494   0.48599   0.23788   0.00000  Uiso   1.00
O469   O     0.79482   0.57142   0.24686   0.00000  Uiso   1.00
O470   O     0.87185   0.42858   0.25314   0.00000  Uiso   1.00
O471   O     0.89496   0.58086   0.25502   0.00000  Uiso   1.00
O472   O     0.77171   0.41914   0.24497   0.00000  Uiso   1.00
O473   O     0.75518   0.49263   0.30854   0.00000  Uiso   1.00
O474   O     0.91149   0.50737   0.19145   0.00000  Uiso   1.00
O475   O     0.85532   0.50207   0.31671   0.00000  Uiso   1.00
O476   O     0.81134   0.49793   0.18329   0.00000  Uiso   1.00
C477   C     0.81961   0.42788   0.10469   0.00000  Uiso   1.00
C478   C     0.83811   0.38402   0.07146   0.00000  Uiso   1.00
C479   C     0.78685   0.35971   0.04746   0.00000  Uiso   1.00
H480   H     0.73812   0.35629   0.06946   0.00000  Uiso   1.00
H481   H     0.79227   0.38356   0.01816   0.00000  Uiso   1.00
H482   H     0.79196   0.65272   0.03593   0.00000  Uiso   1.00
H483   H     0.88432   0.39860   0.04679   0.00000  Uiso   1.00
H484   H     0.84516   0.35163   0.08981   0.00000  Uiso   1.00
H485   H     0.82772   0.41682   0.13589   0.00000  Uiso   1.00
H486   H     0.76776   0.42602   0.11405   0.00000  Uiso   1.00
C487   C     0.84703   0.57209   0.39534   0.00000  Uiso   1.00
C488   C     0.82855   0.61593   0.42861   0.00000  Uiso   1.00
C489   C     0.87992   0.64030   0.45250   0.00000  Uiso   1.00
H490   H     0.87459   0.61649   0.48182   0.00000  Uiso   1.00
H491   H     0.92862   0.64366   0.43046   0.00000  Uiso   1.00
H492   H     0.87484   0.34731   0.46400   0.00000  Uiso   1.00
H493   H     0.82131   0.64829   0.41033   0.00000  Uiso   1.00
H494   H     0.78244   0.60130   0.45336   0.00000  Uiso   1.00
H495   H     0.89888   0.57395   0.38594   0.00000  Uiso   1.00
H496   H     0.83887   0.58318   0.36415   0.00000  Uiso   1.00
C497   C     0.66979   0.57639   0.12408   0.00000  Uiso   1.00
C498   C     0.97904   0.62396   0.14785   0.00000  Uiso   1.00
C499   C     0.68795   0.65170   0.17722   0.00000  Uiso   1.00
H500   H     0.68508   0.62477   0.20406   0.00000  Uiso   1.00
H501   H     0.73838   0.66378   0.15762   0.00000  Uiso   1.00
H502   H     0.67155   0.35417   0.19222   0.00000  Uiso   1.00
H503   H     0.97858   0.65242   0.12314   0.00000  Uiso   1.00
H504   H     0.92939   0.61128   0.16836   0.00000  Uiso   1.00
H505   H     0.67821   0.55005   0.14717   0.00000  Uiso   1.00
H506   H     0.71781   0.59144   0.10149   0.00000  Uiso   1.00
C507   C     0.99689   0.42359   0.37590   0.00000  Uiso   1.00
C508   C     0.68766   0.37604   0.35212   0.00000  Uiso   1.00
C509   C     0.97874   0.34830   0.32276   0.00000  Uiso   1.00
H510   H     0.92831   0.33619   0.34237   0.00000  Uiso   1.00
H511   H     0.98159   0.37522   0.29592   0.00000  Uiso   1.00
H512   H     0.99516   0.64584   0.30775   0.00000  Uiso   1.00
H513   H     0.73730   0.38873   0.33160   0.00000  Uiso   1.00
H514   H     0.68814   0.34758   0.37683   0.00000  Uiso   1.00
H515   H     0.94887   0.40853   0.39849   0.00000  Uiso   1.00
H516   H     0.98846   0.44995   0.35282   0.00000  Uiso   1.00
C517   C     0.18150   0.93339   0.25172   0.00000  Uiso   1.00
C518   C     0.15183   0.73328   0.24828   0.00000  Uiso   1.00
C519   C     0.09172   0.81064   0.04354   0.00000  Uiso   1.00
C520   C     0.24161   0.85600   0.45646   0.00000  Uiso   1.00
C521   C     0.04846   0.79280   0.01840   0.00000  Uiso   1.00
C522   C     0.28488   0.87383   0.48160   0.00000  Uiso   1.00
C523   C     0.19015   0.98941   0.25198   0.00000  Uiso   1.00
C524   C     0.14320   0.67726   0.24800   0.00000  Uiso   1.00
C525   C     0.12713   0.82825   0.33344   0.00000  Uiso   1.00
C526   C     0.20620   0.83842   0.16656   0.00000  Uiso   1.00
C527   C     0.10147   0.82243   0.38205   0.00000  Uiso   1.00
C528   C     0.23186   0.84422   0.11795   0.00000  Uiso   1.00
C529   C     0.02465   0.77969   0.44750   0.00000  Uiso   1.00
C530   C     0.30869   0.88693   0.05250   0.00000  Uiso   1.00
C531   C     0.04237   0.78727   0.40174   0.00000  Uiso   1.00
C532   C     0.29097   0.87937   0.09825   0.00000  Uiso   1.00
C533   C     0.14000   0.84975   0.40935   0.00000  Uiso   1.00
C534   C     0.19333   0.81688   0.09066   0.00000  Uiso   1.00
C535   C     0.12924   0.82987   0.45255   0.00000  Uiso   1.00
C536   C     0.20409   0.83675   0.04745   0.00000  Uiso   1.00
C537   C     0.06751   0.80016   0.47275   0.00000  Uiso   1.00
C538   C     0.26583   0.86645   0.02724   0.00000  Uiso   1.00
C539   C     0.17613   0.83898   0.47695   0.00000  Uiso   1.00
C540   C     0.15721   0.82766   0.02304   0.00000  Uiso   1.00
Cu541  Cu    0.10737   0.82775   0.24516   0.00000  Uiso   1.00
Cu542  Cu    0.22596   0.83892   0.25483   0.00000  Uiso   1.00
H543   H     0.33273   0.77486   0.03492   0.00000  Uiso   1.00
H544   H     0.00060   0.89177   0.46508   0.00000  Uiso   1.00
H545   H     0.31154   0.75557   0.46336   0.00000  Uiso   1.00
H546   H     0.02180   0.91105   0.03663   0.00000  Uiso   1.00
H547   H     0.07325   0.81078   0.07887   0.00000  Uiso   1.00
H548   H     0.26008   0.85587   0.42113   0.00000  Uiso   1.00
H549   H     0.23564   0.68000   0.25508   0.00000  Uiso   1.00
H550   H     0.09770   0.98667   0.24490   0.00000  Uiso   1.00
H551   H     0.00119   0.87156   0.28448   0.00000  Uiso   1.00
H552   H     0.33214   0.79511   0.21552   0.00000  Uiso   1.00
N553   N     0.31506   0.84735   0.26212   0.00000  Uiso   1.00
N554   N     0.01827   0.81932   0.23788   0.00000  Uiso   1.00
O555   O     0.12815   0.90476   0.24686   0.00000  Uiso   1.00
O556   O     0.20518   0.76191   0.25314   0.00000  Uiso   1.00
O557   O     0.22829   0.91420   0.25502   0.00000  Uiso   1.00
O558   O     0.10504   0.75247   0.24497   0.00000  Uiso   1.00
O559   O     0.08851   0.82597   0.30854   0.00000  Uiso   1.00
O560   O     0.24482   0.84070   0.19145   0.00000  Uiso   1.00
O561   O     0.18866   0.83540   0.31671   0.00000  Uiso   1.00
O562   O     0.14468   0.83126   0.18329   0.00000  Uiso   1.00
C563   C     0.15294   0.76121   0.10469   0.00000  Uiso   1.00
C564   C     0.17144   0.71736   0.07146   0.00000  Uiso   1.00
C565   C     0.12019   0.69305   0.04746   0.00000  Uiso   1.00
H566   H     0.07146   0.68963   0.06946   0.00000  Uiso   1.00
H567   H     0.12560   0.71690   0.01816   0.00000  Uiso   1.00
H568   H     0.12530   0.98605   0.03593   0.00000  Uiso   1.00
H569   H     0.21766   0.73193   0.04679   0.00000  Uiso   1.00
H570   H     0.17849   0.68496   0.08981   0.00000  Uiso   1.00
H571   H     0.16106   0.75015   0.13589   0.00000  Uiso   1.00
H572   H     0.10109   0.75935   0.11405   0.00000  Uiso   1.00
C573   C     0.18036   0.90543   0.39534   0.00000  Uiso   1.00
C574   C     0.16189   0.94926   0.42861   0.00000  Uiso   1.00
C575   C     0.21326   0.97363   0.45250   0.00000  Uiso   1.00
H576   H     0.20792   0.94982   0.48182   0.00000  Uiso   1.00
H577   H     0.26195   0.97699   0.43046   0.00000  Uiso   1.00
H578   H     0.20817   0.68064   0.46400   0.00000  Uiso   1.00
H579   H     0.15465   0.98162   0.41033   0.00000  Uiso   1.00
H580   H     0.11577   0.93463   0.45336   0.00000  Uiso   1.00
H581   H     0.23221   0.90728   0.38594   0.00000  Uiso   1.00
H582   H     0.17220   0.91652   0.36415   0.00000  Uiso   1.00
C583   C     0.00312   0.90972   0.12408   0.00000  Uiso   1.00
C584   C     0.31237   0.95729   0.14785   0.00000  Uiso   1.00
C585   C     0.02129   0.98503   0.17722   0.00000  Uiso   1.00
H586   H     0.01841   0.95810   0.20406   0.00000  Uiso   1.00
H587   H     0.07172   0.99712   0.15762   0.00000  Uiso   1.00
H588   H     0.00488   0.68750   0.19222   0.00000  Uiso   1.00
H589   H     0.31191   0.98575   0.12314   0.00000  Uiso   1.00
H590   H     0.26272   0.94461   0.16836   0.00000  Uiso   1.00
H591   H     0.01154   0.88338   0.14717   0.00000  Uiso   1.00
H592   H     0.05114   0.92477   0.10149   0.00000  Uiso   1.00
C593   C     0.33022   0.75692   0.37590   0.00000  Uiso   1.00
C594   C     0.02099   0.70937   0.35212   0.00000  Uiso   1.00
C595   C     0.31207   0.68163   0.32276   0.00000  Uiso   1.00
H596   H     0.26165   0.66952   0.34237   0.00000  Uiso   1.00
H597   H     0.31492   0.70855   0.29592   0.00000  Uiso   1.00
H598   H     0.32850   0.97918   0.30775   0.00000  Uiso   1.00
H599   H     0.07063   0.72207   0.33160   0.00000  Uiso   1.00
H600   H     0.02147   0.68092   0.37683   0.00000  Uiso   1.00
H601   H     0.28220   0.74186   0.39849   0.00000  Uiso   1.00
H602   H     0.32180   0.78328   0.35282   0.00000  Uiso   1.00
C603   C     0.51484   0.93339   0.25172   0.00000  Uiso   1.00
C604   C     0.48517   0.73328   0.24828   0.00000  Uiso   1.00
C605   C     0.42506   0.81064   0.04354   0.00000  Uiso   1.00
C606   C     0.57494   0.85600   0.45646   0.00000  Uiso   1.00
C607   C     0.38179   0.79280   0.01840   0.00000  Uiso   1.00
C608   C     0.61821   0.87383   0.48160   0.00000  Uiso   1.00
C609   C     0.52348   0.98941   0.25198   0.00000  Uiso   1.00
C610   C     0.47653   0.67726   0.24800   0.00000  Uiso   1.00
C611   C     0.46046   0.82825   0.33344   0.00000  Uiso   1.00
C612   C     0.53954   0.83842   0.16656   0.00000  Uiso   1.00
C613   C     0.43481   0.82243   0.38205   0.00000  Uiso   1.00
C614   C     0.56519   0.84422   0.11795   0.00000  Uiso   1.00
C615   C     0.35799   0.77969   0.44750   0.00000  Uiso   1.00
C616   C     0.64202   0.88693   0.05250   0.00000  Uiso   1.00
C617   C     0.37570   0.78727   0.40174   0.00000  Uiso   1.00
C618   C     0.62430   0.87937   0.09825   0.00000  Uiso   1.00
C619   C     0.47334   0.84975   0.40935   0.00000  Uiso   1.00
C620   C     0.52666   0.81688   0.09066   0.00000  Uiso   1.00
C621   C     0.46258   0.82987   0.45255   0.00000  Uiso   1.00
C622   C     0.53743   0.83675   0.04745   0.00000  Uiso   1.00
C623   C     0.40085   0.80016   0.47275   0.00000  Uiso   1.00
C624   C     0.59916   0.86645   0.02724   0.00000  Uiso   1.00
C625   C     0.50946   0.83898   0.47695   0.00000  Uiso   1.00
C626   C     0.49054   0.82766   0.02304   0.00000  Uiso   1.00
Cu627  Cu    0.44071   0.82775   0.24516   0.00000  Uiso   1.00
Cu628  Cu    0.55929   0.83892   0.25483   0.00000  Uiso   1.00
H629   H     0.66606   0.77486   0.03492   0.00000  Uiso   1.00
H630   H     0.33394   0.89177   0.46508   0.00000  Uiso   1.00
H631   H     0.64488   0.75557   0.46336   0.00000  Uiso   1.00
H632   H     0.35513   0.91105   0.03663   0.00000  Uiso   1.00
H633   H     0.40658   0.81078   0.07887   0.00000  Uiso   1.00
H634   H     0.59341   0.85587   0.42113   0.00000  Uiso   1.00
H635   H     0.56898   0.68000   0.25508   0.00000  Uiso   1.00
H636   H     0.43104   0.98667   0.24490   0.00000  Uiso   1.00
H637   H     0.33452   0.87156   0.28448   0.00000  Uiso   1.00
H638   H     0.66548   0.79511   0.21552   0.00000  Uiso   1.00
N639   N     0.64839   0.84735   0.26212   0.00000  Uiso   1.00
N640   N     0.35161   0.81932   0.23788   0.00000  Uiso   1.00
O641   O     0.46148   0.90476   0.24686   0.00000  Uiso   1.00
O642   O     0.53852   0.76191   0.25314   0.00000  Uiso   1.00
O643   O     0.56163   0.91420   0.25502   0.00000  Uiso   1.00
O644   O     0.43837   0.75247   0.24497   0.00000  Uiso   1.00
O645   O     0.42185   0.82597   0.30854   0.00000  Uiso   1.00
O646   O     0.57815   0.84070   0.19145   0.00000  Uiso   1.00
O647   O     0.52199   0.83540   0.31671   0.00000  Uiso   1.00
O648   O     0.47801   0.83126   0.18329   0.00000  Uiso   1.00
C649   C     0.48628   0.76121   0.10469   0.00000  Uiso   1.00
C650   C     0.50478   0.71736   0.07146   0.00000  Uiso   1.00
C651   C     0.45352   0.69305   0.04746   0.00000  Uiso   1.00
H652   H     0.40479   0.68963   0.06946   0.00000  Uiso   1.00
H653   H     0.45894   0.71690   0.01816   0.00000  Uiso   1.00
H654   H     0.45863   0.98605   0.03593   0.00000  Uiso   1.00
H655   H     0.55099   0.73193   0.04679   0.00000  Uiso   1.00
H656   H     0.51183   0.68496   0.08981   0.00000  Uiso   1.00
H657   H     0.49439   0.75015   0.13589   0.00000  Uiso   1.00
H658   H     0.43443   0.75935   0.11405   0.00000  Uiso   1.00
C659   C     0.51370   0.90543   0.39534   0.00000  Uiso   1.00
C660   C     0.49522   0.94926   0.42861   0.00000  Uiso   1.00
C661   C     0.54659   0.97363   0.45250   0.00000  Uiso   1.00
H662   H     0.54125   0.94982   0.48182   0.00000  Uiso   1.00
H663   H     0.59529   0.97699   0.43046   0.00000  Uiso   1.00
H664   H     0.54150   0.68064   0.46400   0.00000  Uiso   1.00
H665   H     0.48798   0.98162   0.41033   0.00000  Uiso   1.00
H666   H     0.44910   0.93463   0.45336   0.00000  Uiso   1.00
H667   H     0.56554   0.90728   0.38594   0.00000  Uiso   1.00
H668   H     0.50554   0.91652   0.36415   0.00000  Uiso   1.00
C669   C     0.33645   0.90972   0.12408   0.00000  Uiso   1.00
C670   C     0.64570   0.95729   0.14785   0.00000  Uiso   1.00
C671   C     0.35462   0.98503   0.17722   0.00000  Uiso   1.00
H672   H     0.35174   0.95810   0.20406   0.00000  Uiso   1.00
H673   H     0.40505   0.99712   0.15762   0.00000  Uiso   1.00
H674   H     0.33821   0.68750   0.19222   0.00000  Uiso   1.00
H675   H     0.64524   0.98575   0.12314   0.00000  Uiso   1.00
H676   H     0.59605   0.94461   0.16836   0.00000  Uiso   1.00
H677   H     0.34487   0.88338   0.14717   0.00000  Uiso   1.00
H678   H     0.38447   0.92477   0.10149   0.00000  Uiso   1.00
C679   C     0.66355   0.75692   0.37590   0.00000  Uiso   1.00
C680   C     0.35432   0.70937   0.35212   0.00000  Uiso   1.00
C681   C     0.64540   0.68163   0.32276   0.00000  Uiso   1.00
H682   H     0.59498   0.66952   0.34237   0.00000  Uiso   1.00
H683   H     0.64825   0.70855   0.29592   0.00000  Uiso   1.00
H684   H     0.66183   0.97918   0.30775   0.00000  Uiso   1.00
H685   H     0.40397   0.72207   0.33160   0.00000  Uiso   1.00
H686   H     0.35481   0.68092   0.37683   0.00000  Uiso   1.00
H687   H     0.61554   0.74186   0.39849   0.00000  Uiso   1.00
H688   H     0.65513   0.78328   0.35282   0.00000  Uiso   1.00
C689   C     0.84817   0.93339   0.25172   0.00000  Uiso   1.00
C690   C     0.81850   0.73328   0.24828   0.00000  Uiso   1.00
C691   C     0.75839   0.81064   0.04354   0.00000  Uiso   1.00
C692   C     0.90827   0.85600   0.45646   0.00000  Uiso   1.00
C693   C     0.71512   0.79280   0.01840   0.00000  Uiso   1.00
C694   C     0.95155   0.87383   0.48160   0.00000  Uiso   1.00
C695   C     0.85681   0.98941   0.25198   0.00000  Uiso   1.00
C696   C     0.80986   0.67726   0.24800   0.00000  Uiso   1.00
C697   C     0.79380   0.82825   0.33344   0.00000  Uiso   1.00
C698   C     0.87287   0.83842   0.16656   0.00000  Uiso   1.00
C699   C     0.76814   0.82243   0.38205   0.00000  Uiso   1.00
C700   C     0.89852   0.84422   0.11795   0.00000  Uiso   1.00
C701   C     0.69132   0.77969   0.44750   0.00000  Uiso   1.00
C702   C     0.97535   0.88693   0.05250   0.00000  Uiso   1.00
C703   C     0.70903   0.78727   0.40174   0.00000  Uiso   1.00
C704   C     0.95764   0.87937   0.09825   0.00000  Uiso   1.00
C705   C     0.80667   0.84975   0.40935   0.00000  Uiso   1.00
C706   C     0.85999   0.81688   0.09066   0.00000  Uiso   1.00
C707   C     0.79591   0.82987   0.45255   0.00000  Uiso   1.00
C708   C     0.87076   0.83675   0.04745   0.00000  Uiso   1.00
C709   C     0.73418   0.80016   0.47275   0.00000  Uiso   1.00
C710   C     0.93249   0.86645   0.02724   0.00000  Uiso   1.00
C711   C     0.84279   0.83898   0.47695   0.00000  Uiso   1.00
C712   C     0.82388   0.82766   0.02304   0.00000  Uiso   1.00
Cu713  Cu    0.77404   0.82775   0.24516   0.00000  Uiso   1.00
Cu714  Cu    0.89263   0.83892   0.25483   0.00000  Uiso   1.00
H715   H     0.99940   0.77486   0.03492   0.00000  Uiso   1.00
H716   H     0.66727   0.89177   0.46508   0.00000  Uiso   1.00
H717   H     0.97821   0.75557   0.46336   0.00000  Uiso   1.00
H718   H     0.68846   0.91105   0.03663   0.00000  Uiso   1.00
H719   H     0.73991   0.81078   0.07887   0.00000  Uiso   1.00
H720   H     0.92675   0.85587   0.42113   0.00000  Uiso   1.00
H721   H     0.90231   0.68000   0.25508   0.00000  Uiso   1.00
H722   H     0.76437   0.98667   0.24490   0.00000  Uiso   1.00
H723   H     0.66786   0.87156   0.28448   0.00000  Uiso   1.00
H724   H     0.99881   0.79511   0.21552   0.00000  Uiso   1.00
N725   N     0.98173   0.84735   0.26212   0.00000  Uiso   1.00
N726   N     0.68494   0.81932   0.23788   0.00000  Uiso   1.00
O727   O     0.79482   0.90476   0.24686   0.00000  Uiso   1.00
O728   O     0.87185   0.76191   0.25314   0.00000  Uiso   1.00
O729   O     0.89496   0.91420   0.25502   0.00000  Uiso   1.00
O730   O     0.77171   0.75247   0.24497   0.00000  Uiso   1.00
O731   O     0.75518   0.82597   0.30854   0.00000  Uiso   1.00
O732   O     0.91149   0.84070   0.19145   0.00000  Uiso   1.00
O733   O     0.85532   0.83540   0.31671   0.00000  Uiso   1.00
O734   O     0.81134   0.83126   0.18329   0.00000  Uiso   1.00
C735   C     0.81961   0.76121   0.10469   0.00000  Uiso   1.00
C736   C     0.83811   0.71736   0.07146   0.00000  Uiso   1.00
C737   C     0.78685   0.69305   0.04746   0.00000  Uiso   1.00
H738   H     0.73812   0.68963   0.06946   0.00000  Uiso   1.00
H739   H     0.79227   0.71690   0.01816   0.00000  Uiso   1.00
H740   H     0.79196   0.98605   0.03593   0.00000  Uiso   1.00
H741   H     0.88432   0.73193   0.04679   0.00000  Uiso   1.00
H742   H     0.84516   0.68496   0.08981   0.00000  Uiso   1.00
H743   H     0.82772   0.75015   0.13589   0.00000  Uiso   1.00
H744   H     0.76776   0.75935   0.11405   0.00000  Uiso   1.00
C745   C     0.84703   0.90543   0.39534   0.00000  Uiso   1.00
C746   C     0.82855   0.94926   0.42861   0.00000  Uiso   1.00
C747   C     0.87992   0.97363   0.45250   0.00000  Uiso   1.00
H748   H     0.87459   0.94982   0.48182   0.00000  Uiso   1.00
H749   H     0.92862   0.97699   0.43046   0.00000  Uiso   1.00
H750   H     0.87484   0.68064   0.46400   0.00000  Uiso   1.00
H751   H     0.82131   0.98162   0.41033   0.00000  Uiso   1.00
H752   H     0.78244   0.93463   0.45336   0.00000  Uiso   1.00
H753   H     0.89888   0.90728   0.38594   0.00000  Uiso   1.00
H754   H     0.83887   0.91652   0.36415   0.00000  Uiso   1.00
C755   C     0.66979   0.90972   0.12408   0.00000  Uiso   1.00
C756   C     0.97904   0.95729   0.14785   0.00000  Uiso   1.00
C757   C     0.68795   0.98503   0.17722   0.00000  Uiso   1.00
H758   H     0.68508   0.95810   0.20406   0.00000  Uiso   1.00
H759   H     0.73838   0.99712   0.15762   0.00000  Uiso   1.00
H760   H     0.67155   0.68750   0.19222   0.00000  Uiso   1.00
H761   H     0.97858   0.98575   0.12314   0.00000  Uiso   1.00
H762   H     0.92939   0.94461   0.16836   0.00000  Uiso   1.00
H763   H     0.67821   0.88338   0.14717   0.00000  Uiso   1.00
H764   H     0.71781   0.92477   0.10149   0.00000  Uiso   1.00
C765   C     0.99689   0.75692   0.37590   0.00000  Uiso   1.00
C766   C     0.68766   0.70937   0.35212   0.00000  Uiso   1.00
C767   C     0.97874   0.68163   0.32276   0.00000  Uiso   1.00
H768   H     0.92831   0.66952   0.34237   0.00000  Uiso   1.00
H769   H     0.98159   0.70855   0.29592   0.00000  Uiso   1.00
H770   H     0.99516   0.97918   0.30775   0.00000  Uiso   1.00
H771   H     0.73730   0.72207   0.33160   0.00000  Uiso   1.00
H772   H     0.68814   0.68092   0.37683   0.00000  Uiso   1.00
H773   H     0.94887   0.74186   0.39849   0.00000  Uiso   1.00
H774   H     0.98846   0.78328   0.35282   0.00000  Uiso   1.00
C775   C     0.18150   0.26672   0.75172   0.00000  Uiso   1.00
C776   C     0.15183   0.06661   0.74828   0.00000  Uiso   1.00
C777   C     0.09172   0.14397   0.54354   0.00000  Uiso   1.00
C778   C     0.24161   0.18933   0.95646   0.00000  Uiso   1.00
C779   C     0.04846   0.12613   0.51840   0.00000  Uiso   1.00
C780   C     0.28488   0.20717   0.98160   0.00000  Uiso   1.00
C781   C     0.19015   0.32274   0.75198   0.00000  Uiso   1.00
C782   C     0.14320   0.01059   0.74800   0.00000  Uiso   1.00
C783   C     0.12713   0.16158   0.83344   0.00000  Uiso   1.00
C784   C     0.20620   0.17175   0.66656   0.00000  Uiso   1.00
C785   C     0.10147   0.15576   0.88205   0.00000  Uiso   1.00
C786   C     0.23186   0.17755   0.61795   0.00000  Uiso   1.00
C787   C     0.02465   0.11302   0.94750   0.00000  Uiso   1.00
C788   C     0.30869   0.22026   0.55250   0.00000  Uiso   1.00
C789   C     0.04237   0.12060   0.90174   0.00000  Uiso   1.00
C790   C     0.29097   0.21271   0.59825   0.00000  Uiso   1.00
C791   C     0.14000   0.18309   0.90935   0.00000  Uiso   1.00
C792   C     0.19333   0.15021   0.59066   0.00000  Uiso   1.00
C793   C     0.12924   0.16320   0.95255   0.00000  Uiso   1.00
C794   C     0.20409   0.17008   0.54745   0.00000  Uiso   1.00
C795   C     0.06751   0.13350   0.97275   0.00000  Uiso   1.00
C796   C     0.26583   0.19979   0.52724   0.00000  Uiso   1.00
C797   C     0.17613   0.17231   0.97695   0.00000  Uiso   1.00
C798   C     0.15721   0.16099   0.52304   0.00000  Uiso   1.00
Cu799  Cu    0.10737   0.16108   0.74516   0.00000  Uiso   1.00
Cu800  Cu    0.22596   0.17225   0.75483   0.00000  Uiso   1.00
H801   H     0.33273   0.10820   0.53492   0.00000  Uiso   1.00
H802   H     0.00060   0.22511   0.96508   0.00000  Uiso   1.00
H803   H     0.31154   0.08890   0.96336   0.00000  Uiso   1.00
H804   H     0.02180   0.24439   0.53663   0.00000  Uiso   1.00
H805   H     0.07325   0.14412   0.57887   0.00000  Uiso   1.00
H806   H     0.26008   0.18920   0.92113   0.00000  Uiso   1.00
H807   H     0.23564   0.01333   0.75508   0.00000  Uiso   1.00
H808   H     0.09770   0.32000   0.74490   0.00000  Uiso   1.00
H809   H     0.00119   0.20489   0.78448   0.00000  Uiso   1.00
H810   H     0.33214   0.12844   0.71552   0.00000  Uiso   1.00
N811   N     0.31506   0.18068   0.76212   0.00000  Uiso   1.00
N812   N     0.01827   0.15265   0.73788   0.00000  Uiso   1.00
O813   O     0.12815   0.23809   0.74686   0.00000  Uiso   1.00
O814   O     0.20518   0.09524   0.75314   0.00000  Uiso   1.00
O815   O     0.22829   0.24753   0.75502   0.00000  Uiso   1.00
O816   O     0.10504   0.08580   0.74497   0.00000  Uiso   1.00
O817   O     0.08851   0.15930   0.80854   0.00000  Uiso   1.00
O818   O     0.24482   0.17403   0.69145   0.00000  Uiso   1.00
O819   O     0.18866   0.16874   0.81671   0.00000  Uiso   1.00
O820   O     0.14468   0.16460   0.68329   0.00000  Uiso   1.00
C821   C     0.15294   0.09455   0.60469   0.00000  Uiso   1.00
C822   C     0.17144   0.05069   0.57146   0.00000  Uiso   1.00
C823   C     0.12019   0.02638   0.54746   0.00000  Uiso   1.00
H824   H     0.07146   0.02296   0.56946   0.00000  Uiso   1.00
H825   H     0.12560   0.05023   0.51816   0.00000  Uiso   1.00
H826   H     0.12530   0.31938   0.53593   0.00000  Uiso   1.00
H827   H     0.21766   0.06526   0.54679   0.00000  Uiso   1.00
H828   H     0.17849   0.01829   0.58981   0.00000  Uiso   1.00
H829   H     0.16106   0.08348   0.63589   0.00000  Uiso   1.00
H830   H     0.10109   0.09268   0.61405   0.00000  Uiso   1.00
C831   C     0.18036   0.23876   0.89534   0.00000  Uiso   1.00
C832   C     0.16189   0.28259   0.92861   0.00000  Uiso   1.00
C833   C     0.21326   0.30696   0.95250   0.00000  Uiso   1.00
H834   H     0.20792   0.28316   0.98182   0.00000  Uiso   1.00
H835   H     0.26195   0.31032   0.93046   0.00000  Uiso   1.00
H836   H     0.20817   0.01397   0.96400   0.00000  Uiso   1.00
H837   H     0.15465   0.31495   0.91033   0.00000  Uiso   1.00
H838   H     0.11577   0.26796   0.95336   0.00000  Uiso   1.00
H839   H     0.23221   0.24062   0.88594   0.00000  Uiso   1.00
H840   H     0.17220   0.24985   0.86415   0.00000  Uiso   1.00
C841   C     0.00312   0.24306   0.62408   0.00000  Uiso   1.00
C842   C     0.31237   0.29062   0.64785   0.00000  Uiso   1.00
C843   C     0.02129   0.31836   0.67722   0.00000  Uiso   1.00
H844   H     0.01841   0.29143   0.70406   0.00000  Uiso   1.00
H845   H     0.07172   0.33045   0.65762   0.00000  Uiso   1.00
H846   H     0.00488   0.02083   0.69222   0.00000  Uiso   1.00
H847   H     0.31191   0.31908   0.62314   0.00000  Uiso   1.00
H848   H     0.26272   0.27795   0.66836   0.00000  Uiso   1.00
H849   H     0.01154   0.21671   0.64717   0.00000  Uiso   1.00
H850   H     0.05114   0.25811   0.60149   0.00000  Uiso   1.00
C851   C     0.33022   0.09026   0.87590   0.00000  Uiso   1.00
C852   C     0.02099   0.04271   0.85212   0.00000  Uiso   1.00
C853   C     0.31207   0.01496   0.82276   0.00000  Uiso   1.00
H854   H     0.26165   0.00285   0.84237   0.00000  Uiso   1.00
H855   H     0.31492   0.04189   0.79592   0.00000  Uiso   1.00
H856   H     0.32850   0.31251   0.80775   0.00000  Uiso   1.00
H857   H     0.07063   0.05540   0.83160   0.00000  Uiso   1.00
H858   H     0.02147   0.01425   0.87683   0.00000  Uiso   1.00
H859   H     0.28220   0.07519   0.89849   0.00000  Uiso   1.00
H860   H     0.32180   0.11661   0.85282   0.00000  Uiso   1.00
C861   C     0.51484   0.26672   0.75172   0.00000  Uiso   1.00
C862   C     0.48517   0.06661   0.74828   0.00000  Uiso   1.00
C863   C     0.42506   0.14397   0.54354   0.00000  Uiso   1.00
C864   C     0.57494   0.18933   0.95646   0.00000  Uiso   1.00
C865   C     0.38179   0.12613   0.51840   0.00000  Uiso   1.00
C866   C     0.61821   0.20717   0.98160   0.00000  Uiso   1.00
C867   C     0.52348   0.32274   0.75198   0.00000  Uiso   1.00
C868   C     0.47653   0.01059   0.74800   0.00000  Uiso   1.00
C869   C     0.46046   0.16158   0.83344   0.00000  Uiso   1.00
C870   C     0.53954   0.17175   0.66656   0.00000  Uiso   1.00
C871   C     0.43481   0.15576   0.88205   0.00000  Uiso   1.00
C872   C     0.56519   0.17755   0.61795   0.00000  Uiso   1.00
C873   C     0.35799   0.11302   0.94750   0.00000  Uiso   1.00
C874   C     0.64202   0.22026   0.55250   0.00000  Uiso   1.00
C875   C     0.37570   0.12060   0.90174   0.00000  Uiso   1.00
C876   C     0.62430   0.21271   0.59825   0.00000  Uiso   1.00
C877   C     0.47334   0.18309   0.90935   0.00000  Uiso   1.00
C878   C     0.52666   0.15021   0.59066   0.00000  Uiso   1.00
C879   C     0.46258   0.16320   0.95255   0.00000  Uiso   1.00
C880   C     0.53743   0.17008   0.54745   0.00000  Uiso   1.00
C881   C     0.40085   0.13350   0.97275   0.00000  Uiso   1.00
C882   C     0.59916   0.19979   0.52724   0.00000  Uiso   1.00
C883   C     0.50946   0.17231   0.97695   0.00000  Uiso   1.00
C884   C     0.49054   0.16099   0.52304   0.00000  Uiso   1.00
Cu885  Cu    0.44071   0.16108   0.74516   0.00000  Uiso   1.00
Cu886  Cu    0.55929   0.17225   0.75483   0.00000  Uiso   1.00
H887   H     0.66606   0.10820   0.53492   0.00000  Uiso   1.00
H888   H     0.33394   0.22511   0.96508   0.00000  Uiso   1.00
H889   H     0.64488   0.08890   0.96336   0.00000  Uiso   1.00
H890   H     0.35513   0.24439   0.53663   0.00000  Uiso   1.00
H891   H     0.40658   0.14412   0.57887   0.00000  Uiso   1.00
H892   H     0.59341   0.18920   0.92113   0.00000  Uiso   1.00
H893   H     0.56898   0.01333   0.75508   0.00000  Uiso   1.00
H894   H     0.43104   0.32000   0.74490   0.00000  Uiso   1.00
H895   H     0.33452   0.20489   0.78448   0.00000  Uiso   1.00
H896   H     0.66548   0.12844   0.71552   0.00000  Uiso   1.00
N897   N     0.64839   0.18068   0.76212   0.00000  Uiso   1.00
N898   N     0.35161   0.15265   0.73788   0.00000  Uiso   1.00
O899   O     0.46148   0.23809   0.74686   0.00000  Uiso   1.00
O900   O     0.53852   0.09524   0.75314   0.00000  Uiso   1.00
O901   O     0.56163   0.24753   0.75502   0.00000  Uiso   1.00
O902   O     0.43837   0.08580   0.74497   0.00000  Uiso   1.00
O903   O     0.42185   0.15930   0.80854   0.00000  Uiso   1.00
O904   O     0.57815   0.17403   0.69145   0.00000  Uiso   1.00
O905   O     0.52199   0.16874   0.81671   0.00000  Uiso   1.00
O906   O     0.47801   0.16460   0.68329   0.00000  Uiso   1.00
C907   C     0.48628   0.09455   0.60469   0.00000  Uiso   1.00
C908   C     0.50478   0.05069   0.57146   0.00000  Uiso   1.00
C909   C     0.45352   0.02638   0.54746   0.00000  Uiso   1.00
H910   H     0.40479   0.02296   0.56946   0.00000  Uiso   1.00
H911   H     0.45894   0.05023   0.51816   0.00000  Uiso   1.00
H912   H     0.45863   0.31938   0.53593   0.00000  Uiso   1.00
H913   H     0.55099   0.06526   0.54679   0.00000  Uiso   1.00
H914   H     0.51183   0.01829   0.58981   0.00000  Uiso   1.00
H915   H     0.49439   0.08348   0.63589   0.00000  Uiso   1.00
H916   H     0.43443   0.09268   0.61405   0.00000  Uiso   1.00
C917   C     0.51370   0.23876   0.89534   0.00000  Uiso   1.00
C918   C     0.49522   0.28259   0.92861   0.00000  Uiso   1.00
C919   C     0.54659   0.30696   0.95250   0.00000  Uiso   1.00
H920   H     0.54125   0.28316   0.98182   0.00000  Uiso   1.00
H921   H     0.59529   0.31032   0.93046   0.00000  Uiso   1.00
H922   H     0.54150   0.01397   0.96400   0.00000  Uiso   1.00
H923   H     0.48798   0.31495   0.91033   0.00000  Uiso   1.00
H924   H     0.44910   0.26796   0.95336   0.00000  Uiso   1.00
H925   H     0.56554   0.24062   0.88594   0.00000  Uiso   1.00
H926   H     0.50554   0.24985   0.86415   0.00000  Uiso   1.00
C927   C     0.33645   0.24306   0.62408   0.00000  Uiso   1.00
C928   C     0.64570   0.29062   0.64785   0.00000  Uiso   1.00
C929   C     0.35462   0.31836   0.67722   0.00000  Uiso   1.00
H930   H     0.35174   0.29143   0.70406   0.00000  Uiso   1.00
H931   H     0.40505   0.33045   0.65762   0.00000  Uiso   1.00
H932   H     0.33821   0.02083   0.69222   0.00000  Uiso   1.00
H933   H     0.64524   0.31908   0.62314   0.00000  Uiso   1.00
H934   H     0.59605   0.27795   0.66836   0.00000  Uiso   1.00
H935   H     0.34487   0.21671   0.64717   0.00000  Uiso   1.00
H936   H     0.38447   0.25811   0.60149   0.00000  Uiso   1.00
C937   C     0.66355   0.09026   0.87590   0.00000  Uiso   1.00
C938   C     0.35432   0.04271   0.85212   0.00000  Uiso   1.00
C939   C     0.64540   0.01496   0.82276   0.00000  Uiso   1.00
H940   H     0.59498   0.00285   0.84237   0.00000  Uiso   1.00
H941   H     0.64825   0.04189   0.79592   0.00000  Uiso   1.00
H942   H     0.66183   0.31251   0.80775   0.00000  Uiso   1.00
H943   H     0.40397   0.05540   0.83160   0.00000  Uiso   1.00
H944   H     0.35481   0.01425   0.87683   0.00000  Uiso   1.00
H945   H     0.61554   0.07519   0.89849   0.00000  Uiso   1.00
H946   H     0.65513   0.11661   0.85282   0.00000  Uiso   1.00
C947   C     0.84817   0.26672   0.75172   0.00000  Uiso   1.00
C948   C     0.81850   0.06661   0.74828   0.00000  Uiso   1.00
C949   C     0.75839   0.14397   0.54354   0.00000  Uiso   1.00
C950   C     0.90827   0.18933   0.95646   0.00000  Uiso   1.00
C951   C     0.71512   0.12613   0.51840   0.00000  Uiso   1.00
C952   C     0.95155   0.20717   0.98160   0.00000  Uiso   1.00
C953   C     0.85681   0.32274   0.75198   0.00000  Uiso   1.00
C954   C     0.80986   0.01059   0.74800   0.00000  Uiso   1.00
C955   C     0.79380   0.16158   0.83344   0.00000  Uiso   1.00
C956   C     0.87287   0.17175   0.66656   0.00000  Uiso   1.00
C957   C     0.76814   0.15576   0.88205   0.00000  Uiso   1.00
C958   C     0.89852   0.17755   0.61795   0.00000  Uiso   1.00
C959   C     0.69132   0.11302   0.94750   0.00000  Uiso   1.00
C960   C     0.97535   0.22026   0.55250   0.00000  Uiso   1.00
C961   C     0.70903   0.12060   0.90174   0.00000  Uiso   1.00
C962   C     0.95764   0.21271   0.59825   0.00000  Uiso   1.00
C963   C     0.80667   0.18309   0.90935   0.00000  Uiso   1.00
C964   C     0.85999   0.15021   0.59066   0.00000  Uiso   1.00
C965   C     0.79591   0.16320   0.95255   0.00000  Uiso   1.00
C966   C     0.87076   0.17008   0.54745   0.00000  Uiso   1.00
C967   C     0.73418   0.13350   0.97275   0.00000  Uiso   1.00
C968   C     0.93249   0.19979   0.52724   0.00000  Uiso   1.00
C969   C     0.84279   0.17231   0.97695   0.00000  Uiso   1.00
C970   C     0.82388   0.16099   0.52304   0.00000  Uiso   1.00
Cu971  Cu    0.77404   0.16108   0.74516   0.00000  Uiso   1.00
Cu972  Cu    0.89263   0.17225   0.75483   0.00000  Uiso   1.00
H973   H     0.99940   0.10820   0.53492   0.00000  Uiso   1.00
H974   H     0.66727   0.22511   0.96508   0.00000  Uiso   1.00
H975   H     0.97821   0.08890   0.96336   0.00000  Uiso   1.00
H976   H     0.68846   0.24439   0.53663   0.00000  Uiso   1.00
H977   H     0.73991   0.14412   0.57887   0.00000  Uiso   1.00
H978   H     0.92675   0.18920   0.92113   0.00000  Uiso   1.00
H979   H     0.90231   0.01333   0.75508   0.00000  Uiso   1.00
H980   H     0.76437   0.32000   0.74490   0.00000  Uiso   1.00
H981   H     0.66786   0.20489   0.78448   0.00000  Uiso   1.00
H982   H     0.99881   0.12844   0.71552   0.00000  Uiso   1.00
N983   N     0.98173   0.18068   0.76212   0.00000  Uiso   1.00
N984   N     0.68494   0.15265   0.73788   0.00000  Uiso   1.00
O985   O     0.79482   0.23809   0.74686   0.00000  Uiso   1.00
O986   O     0.87185   0.09524   0.75314   0.00000  Uiso   1.00
O987   O     0.89496   0.24753   0.75502   0.00000  Uiso   1.00
O988   O     0.77171   0.08580   0.74497   0.00000  Uiso   1.00
O989   O     0.75518   0.15930   0.80854   0.00000  Uiso   1.00
O990   O     0.91149   0.17403   0.69145   0.00000  Uiso   1.00
O991   O     0.85532   0.16874   0.81671   0.00000  Uiso   1.00
O992   O     0.81134   0.16460   0.68329   0.00000  Uiso   1.00
C993   C     0.81961   0.09455   0.60469   0.00000  Uiso   1.00
C994   C     0.83811   0.05069   0.57146   0.00000  Uiso   1.00
C995   C     0.78685   0.02638   0.54746   0.00000  Uiso   1.00
H996   H     0.73812   0.02296   0.56946   0.00000  Uiso   1.00
H997   H     0.79227   0.05023   0.51816   0.00000  Uiso   1.00
H998   H     0.79196   0.31938   0.53593   0.00000  Uiso   1.00
H999   H     0.88432   0.06526   0.54679   0.00000  Uiso   1.00
H1000  H     0.84516   0.01829   0.58981   0.00000  Uiso   1.00
H1001  H     0.82772   0.08348   0.63589   0.00000  Uiso   1.00
H1002  H     0.76776   0.09268   0.61405   0.00000  Uiso   1.00
C1003  C     0.84703   0.23876   0.89534   0.00000  Uiso   1.00
C1004  C     0.82855   0.28259   0.92861   0.00000  Uiso   1.00
C1005  C     0.87992   0.30696   0.95250   0.00000  Uiso   1.00
H1006  H     0.87459   0.28316   0.98182   0.00000  Uiso   1.00
H1007  H     0.92862   0.31032   0.93046   0.00000  Uiso   1.00
H1008  H     0.87484   0.01397   0.96400   0.00000  Uiso   1.00
H1009  H     0.82131   0.31495   0.91033   0.00000  Uiso   1.00
H1010  H     0.78244   0.26796   0.95336   0.00000  Uiso   1.00
H1011  H     0.89888   0.24062   0.88594   0.00000  Uiso   1.00
H1012  H     0.83887   0.24985   0.86415   0.00000  Uiso   1.00
C1013  C     0.66979   0.24306   0.62408   0.00000  Uiso   1.00
C1014  C     0.97904   0.29062   0.64785   0.00000  Uiso   1.00
C1015  C     0.68795   0.31836   0.67722   0.00000  Uiso   1.00
H1016  H     0.68508   0.29143   0.70406   0.00000  Uiso   1.00
H1017  H     0.73838   0.33045   0.65762   0.00000  Uiso   1.00
H1018  H     0.67155   0.02083   0.69222   0.00000  Uiso   1.00
H1019  H     0.97858   0.31908   0.62314   0.00000  Uiso   1.00
H1020  H     0.92939   0.27795   0.66836   0.00000  Uiso   1.00
H1021  H     0.67821   0.21671   0.64717   0.00000  Uiso   1.00
H1022  H     0.71781   0.25811   0.60149   0.00000  Uiso   1.00
C1023  C     0.99689   0.09026   0.87590   0.00000  Uiso   1.00
C1024  C     0.68766   0.04271   0.85212   0.00000  Uiso   1.00
C1025  C     0.97874   0.01496   0.82276   0.00000  Uiso   1.00
H1026  H     0.92831   0.00285   0.84237   0.00000  Uiso   1.00
H1027  H     0.98159   0.04189   0.79592   0.00000  Uiso   1.00
H1028  H     0.99516   0.31251   0.80775   0.00000  Uiso   1.00
H1029  H     0.73730   0.05540   0.83160   0.00000  Uiso   1.00
H1030  H     0.68814   0.01425   0.87683   0.00000  Uiso   1.00
H1031  H     0.94887   0.07519   0.89849   0.00000  Uiso   1.00
H1032  H     0.98846   0.11661   0.85282   0.00000  Uiso   1.00
C1033  C     0.18150   0.60006   0.75172   0.00000  Uiso   1.00
C1034  C     0.15183   0.39994   0.74828   0.00000  Uiso   1.00
C1035  C     0.09172   0.47730   0.54354   0.00000  Uiso   1.00
C1036  C     0.24161   0.52267   0.95646   0.00000  Uiso   1.00
C1037  C     0.04846   0.45946   0.51840   0.00000  Uiso   1.00
C1038  C     0.28488   0.54050   0.98160   0.00000  Uiso   1.00
C1039  C     0.19015   0.65607   0.75198   0.00000  Uiso   1.00
C1040  C     0.14320   0.34393   0.74800   0.00000  Uiso   1.00
C1041  C     0.12713   0.49491   0.83344   0.00000  Uiso   1.00
C1042  C     0.20620   0.50508   0.66656   0.00000  Uiso   1.00
C1043  C     0.10147   0.48909   0.88205   0.00000  Uiso   1.00
C1044  C     0.23186   0.51089   0.61795   0.00000  Uiso   1.00
C1045  C     0.02465   0.44636   0.94750   0.00000  Uiso   1.00
C1046  C     0.30869   0.55360   0.55250   0.00000  Uiso   1.00
C1047  C     0.04237   0.45393   0.90174   0.00000  Uiso   1.00
C1048  C     0.29097   0.54604   0.59825   0.00000  Uiso   1.00
C1049  C     0.14000   0.51642   0.90935   0.00000  Uiso   1.00
C1050  C     0.19333   0.48355   0.59066   0.00000  Uiso   1.00
C1051  C     0.12924   0.49654   0.95255   0.00000  Uiso   1.00
C1052  C     0.20409   0.50342   0.54745   0.00000  Uiso   1.00
C1053  C     0.06751   0.46683   0.97275   0.00000  Uiso   1.00
C1054  C     0.26583   0.53312   0.52724   0.00000  Uiso   1.00
C1055  C     0.17613   0.50564   0.97695   0.00000  Uiso   1.00
C1056  C     0.15721   0.49432   0.52304   0.00000  Uiso   1.00
Cu1057 Cu    0.10737   0.49441   0.74516   0.00000  Uiso   1.00
Cu1058 Cu    0.22596   0.50559   0.75483   0.00000  Uiso   1.00
H1059  H     0.33273   0.44153   0.53492   0.00000  Uiso   1.00
H1060  H     0.00060   0.55844   0.96508   0.00000  Uiso   1.00
H1061  H     0.31154   0.42224   0.96336   0.00000  Uiso   1.00
H1062  H     0.02180   0.57772   0.53663   0.00000  Uiso   1.00
H1063  H     0.07325   0.47745   0.57887   0.00000  Uiso   1.00
H1064  H     0.26008   0.52253   0.92113   0.00000  Uiso   1.00
H1065  H     0.23564   0.34667   0.75508   0.00000  Uiso   1.00
H1066  H     0.09770   0.65334   0.74490   0.00000  Uiso   1.00
H1067  H     0.00119   0.53823   0.78448   0.00000  Uiso   1.00
H1068  H     0.33214   0.46177   0.71552   0.00000  Uiso   1.00
N1069  N     0.31506   0.51401   0.76212   0.00000  Uiso   1.00
N1070  N     0.01827   0.48599   0.73788   0.00000  Uiso   1.00
O1071  O     0.12815   0.57142   0.74686   0.00000  Uiso   1.00
O1072  O     0.20518   0.42858   0.75314   0.00000  Uiso   1.00
O1073  O     0.22829   0.58086   0.75502   0.00000  Uiso   1.00
O1074  O     0.10504   0.41914   0.74497   0.00000  Uiso   1.00
O1075  O     0.08851   0.49263   0.80854   0.00000  Uiso   1.00
O1076  O     0.24482   0.50737   0.69145   0.00000  Uiso   1.00
O1077  O     0.18866   0.50207   0.81671   0.00000  Uiso   1.00
O1078  O     0.14468   0.49793   0.68329   0.00000  Uiso   1.00
C1079  C     0.15294   0.42788   0.60469   0.00000  Uiso   1.00
C1080  C     0.17144   0.38402   0.57146   0.00000  Uiso   1.00
C1081  C     0.12019   0.35971   0.54746   0.00000  Uiso   1.00
H1082  H     0.07146   0.35629   0.56946   0.00000  Uiso   1.00
H1083  H     0.12560   0.38356   0.51816   0.00000  Uiso   1.00
H1084  H     0.12530   0.65272   0.53593   0.00000  Uiso   1.00
H1085  H     0.21766   0.39860   0.54679   0.00000  Uiso   1.00
H1086  H     0.17849   0.35163   0.58981   0.00000  Uiso   1.00
H1087  H     0.16106   0.41682   0.63589   0.00000  Uiso   1.00
H1088  H     0.10109   0.42602   0.61405   0.00000  Uiso   1.00
C1089  C     0.18036   0.57209   0.89534   0.00000  Uiso   1.00
C1090  C     0.16189   0.61593   0.92861   0.00000  Uiso   1.00
C1091  C     0.21326   0.64030   0.95250   0.00000  Uiso   1.00
H1092  H     0.20792   0.61649   0.98182   0.00000  Uiso   1.00
H1093  H     0.26195   0.64366   0.93046   0.00000  Uiso   1.00
H1094  H     0.20817   0.34731   0.96400   0.00000  Uiso   1.00
H1095  H     0.15465   0.64829   0.91033   0.00000  Uiso   1.00
H1096  H     0.11577   0.60130   0.95336   0.00000  Uiso   1.00
H1097  H     0.23221   0.57395   0.88594   0.00000  Uiso   1.00
H1098  H     0.17220   0.58318   0.86415   0.00000  Uiso   1.00
C1099  C     0.00312   0.57639   0.62408   0.00000  Uiso   1.00
C1100  C     0.31237   0.62396   0.64785   0.00000  Uiso   1.00
C1101  C     0.02129   0.65170   0.67722   0.00000  Uiso   1.00
H1102  H     0.01841   0.62477   0.70406   0.00000  Uiso   1.00
H1103  H     0.07172   0.66378   0.65762   0.00000  Uiso   1.00
H1104  H     0.00488   0.35417   0.69222   0.00000  Uiso   1.00
H1105  H     0.31191   0.65242   0.62314   0.00000  Uiso   1.00
H1106  H     0.26272   0.61128   0.66836   0.00000  Uiso   1.00
H1107  H     0.01154   0.55005   0.64717   0.00000  Uiso   1.00
H1108  H     0.05114   0.59144   0.60149   0.00000  Uiso   1.00
C1109  C     0.33022   0.42359   0.87590   0.00000  Uiso   1.00
C1110  C     0.02099   0.37604   0.85212   0.00000  Uiso   1.00
C1111  C     0.31207   0.34830   0.82276   0.00000  Uiso   1.00
H1112  H     0.26165   0.33619   0.84237   0.00000  Uiso   1.00
H1113  H     0.31492   0.37522   0.79592   0.00000  Uiso   1.00
H1114  H     0.32850   0.64584   0.80775   0.00000  Uiso   1.00
H1115  H     0.07063   0.38873   0.83160   0.00000  Uiso   1.00
H1116  H     0.02147   0.34758   0.87683   0.00000  Uiso   1.00
H1117  H     0.28220   0.40853   0.89849   0.00000  Uiso   1.00
H1118  H     0.32180   0.44995   0.85282   0.00000  Uiso   1.00
C1119  C     0.51484   0.60006   0.75172   0.00000  Uiso   1.00
C1120  C     0.48517   0.39994   0.74828   0.00000  Uiso   1.00
C1121  C     0.42506   0.47730   0.54354   0.00000  Uiso   1.00
C1122  C     0.57494   0.52267   0.95646   0.00000  Uiso   1.00
C1123  C     0.38179   0.45946   0.51840   0.00000  Uiso   1.00
C1124  C     0.61821   0.54050   0.98160   0.00000  Uiso   1.00
C1125  C     0.52348   0.65607   0.75198   0.00000  Uiso   1.00
C1126  C     0.47653   0.34393   0.74800   0.00000  Uiso   1.00
C1127  C     0.46046   0.49491   0.83344   0.00000  Uiso   1.00
C1128  C     0.53954   0.50508   0.66656   0.00000  Uiso   1.00
C1129  C     0.43481   0.48909   0.88205   0.00000  Uiso   1.00
C1130  C     0.56519   0.51089   0.61795   0.00000  Uiso   1.00
C1131  C     0.35799   0.44636   0.94750   0.00000  Uiso   1.00
C1132  C     0.64202   0.55360   0.55250   0.00000  Uiso   1.00
C1133  C     0.37570   0.45393   0.90174   0.00000  Uiso   1.00
C1134  C     0.62430   0.54604   0.59825   0.00000  Uiso   1.00
C1135  C     0.47334   0.51642   0.90935   0.00000  Uiso   1.00
C1136  C     0.52666   0.48355   0.59066   0.00000  Uiso   1.00
C1137  C     0.46258   0.49654   0.95255   0.00000  Uiso   1.00
C1138  C     0.53743   0.50342   0.54745   0.00000  Uiso   1.00
C1139  C     0.40085   0.46683   0.97275   0.00000  Uiso   1.00
C1140  C     0.59916   0.53312   0.52724   0.00000  Uiso   1.00
C1141  C     0.50946   0.50564   0.97695   0.00000  Uiso   1.00
C1142  C     0.49054   0.49432   0.52304   0.00000  Uiso   1.00
Cu1143 Cu    0.44071   0.49441   0.74516   0.00000  Uiso   1.00
Cu1144 Cu    0.55929   0.50559   0.75483   0.00000  Uiso   1.00
H1145  H     0.66606   0.44153   0.53492   0.00000  Uiso   1.00
H1146  H     0.33394   0.55844   0.96508   0.00000  Uiso   1.00
H1147  H     0.64488   0.42224   0.96336   0.00000  Uiso   1.00
H1148  H     0.35513   0.57772   0.53663   0.00000  Uiso   1.00
H1149  H     0.40658   0.47745   0.57887   0.00000  Uiso   1.00
H1150  H     0.59341   0.52253   0.92113   0.00000  Uiso   1.00
H1151  H     0.56898   0.34667   0.75508   0.00000  Uiso   1.00
H1152  H     0.43104   0.65334   0.74490   0.00000  Uiso   1.00
H1153  H     0.33452   0.53823   0.78448   0.00000  Uiso   1.00
H1154  H     0.66548   0.46177   0.71552   0.00000  Uiso   1.00
N1155  N     0.64839   0.51401   0.76212   0.00000  Uiso   1.00
N1156  N     0.35161   0.48599   0.73788   0.00000  Uiso   1.00
O1157  O     0.46148   0.57142   0.74686   0.00000  Uiso   1.00
O1158  O     0.53852   0.42858   0.75314   0.00000  Uiso   1.00
O1159  O     0.56163   0.58086   0.75502   0.00000  Uiso   1.00
O1160  O     0.43837   0.41914   0.74497   0.00000  Uiso   1.00
O1161  O     0.42185   0.49263   0.80854   0.00000  Uiso   1.00
O1162  O     0.57815   0.50737   0.69145   0.00000  Uiso   1.00
O1163  O     0.52199   0.50207   0.81671   0.00000  Uiso   1.00
O1164  O     0.47801   0.49793   0.68329   0.00000  Uiso   1.00
C1165  C     0.48628   0.42788   0.60469   0.00000  Uiso   1.00
C1166  C     0.50478   0.38402   0.57146   0.00000  Uiso   1.00
C1167  C     0.45352   0.35971   0.54746   0.00000  Uiso   1.00
H1168  H     0.40479   0.35629   0.56946   0.00000  Uiso   1.00
H1169  H     0.45894   0.38356   0.51816   0.00000  Uiso   1.00
H1170  H     0.45863   0.65272   0.53593   0.00000  Uiso   1.00
H1171  H     0.55099   0.39860   0.54679   0.00000  Uiso   1.00
H1172  H     0.51183   0.35163   0.58981   0.00000  Uiso   1.00
H1173  H     0.49439   0.41682   0.63589   0.00000  Uiso   1.00
H1174  H     0.43443   0.42602   0.61405   0.00000  Uiso   1.00
C1175  C     0.51370   0.57209   0.89534   0.00000  Uiso   1.00
C1176  C     0.49522   0.61593   0.92861   0.00000  Uiso   1.00
C1177  C     0.54659   0.64030   0.95250   0.00000  Uiso   1.00
H1178  H     0.54125   0.61649   0.98182   0.00000  Uiso   1.00
H1179  H     0.59529   0.64366   0.93046   0.00000  Uiso   1.00
H1180  H     0.54150   0.34731   0.96400   0.00000  Uiso   1.00
H1181  H     0.48798   0.64829   0.91033   0.00000  Uiso   1.00
H1182  H     0.44910   0.60130   0.95336   0.00000  Uiso   1.00
H1183  H     0.56554   0.57395   0.88594   0.00000  Uiso   1.00
H1184  H     0.50554   0.58318   0.86415   0.00000  Uiso   1.00
C1185  C     0.33645   0.57639   0.62408   0.00000  Uiso   1.00
C1186  C     0.64570   0.62396   0.64785   0.00000  Uiso   1.00
C1187  C     0.35462   0.65170   0.67722   0.00000  Uiso   1.00
H1188  H     0.35174   0.62477   0.70406   0.00000  Uiso   1.00
H1189  H     0.40505   0.66378   0.65762   0.00000  Uiso   1.00
H1190  H     0.33821   0.35417   0.69222   0.00000  Uiso   1.00
H1191  H     0.64524   0.65242   0.62314   0.00000  Uiso   1.00
H1192  H     0.59605   0.61128   0.66836   0.00000  Uiso   1.00
H1193  H     0.34487   0.55005   0.64717   0.00000  Uiso   1.00
H1194  H     0.38447   0.59144   0.60149   0.00000  Uiso   1.00
C1195  C     0.66355   0.42359   0.87590   0.00000  Uiso   1.00
C1196  C     0.35432   0.37604   0.85212   0.00000  Uiso   1.00
C1197  C     0.64540   0.34830   0.82276   0.00000  Uiso   1.00
H1198  H     0.59498   0.33619   0.84237   0.00000  Uiso   1.00
H1199  H     0.64825   0.37522   0.79592   0.00000  Uiso   1.00
H1200  H     0.66183   0.64584   0.80775   0.00000  Uiso   1.00
H1201  H     0.40397   0.38873   0.83160   0.00000  Uiso   1.00
H1202  H     0.35481   0.34758   0.87683   0.00000  Uiso   1.00
H1203  H     0.61554   0.40853   0.89849   0.00000  Uiso   1.00
H1204  H     0.65513   0.44995   0.85282   0.00000  Uiso   1.00
C1205  C     0.84817   0.60006   0.75172   0.00000  Uiso   1.00
C1206  C     0.81850   0.39994   0.74828   0.00000  Uiso   1.00
C1207  C     0.75839   0.47730   0.54354   0.00000  Uiso   1.00
C1208  C     0.90827   0.52267   0.95646   0.00000  Uiso   1.00
C1209  C     0.71512   0.45946   0.51840   0.00000  Uiso   1.00
C1210  C     0.95155   0.54050   0.98160   0.00000  Uiso   1.00
C1211  C     0.85681   0.65607   0.75198   0.00000  Uiso   1.00
C1212  C     0.80986   0.34393   0.74800   0.00000  Uiso   1.00
C1213  C     0.79380   0.49491   0.83344   0.00000  Uiso   1.00
C1214  C     0.87287   0.50508   0.66656   0.00000  Uiso   1.00
C1215  C     0.76814   0.48909   0.88205   0.00000  Uiso   1.00
C1216  C     0.89852   0.51089   0.61795   0.00000  Uiso   1.00
C1217  C     0.69132   0.44636   0.94750   0.00000  Uiso   1.00
C1218  C     0.97535   0.55360   0.55250   0.00000  Uiso   1.00
C1219  C     0.70903   0.45393   0.90174   0.00000  Uiso   1.00
C1220  C     0.95764   0.54604   0.59825   0.00000  Uiso   1.00
C1221  C     0.80667   0.51642   0.90935   0.00000  Uiso   1.00
C1222  C     0.85999   0.48355   0.59066   0.00000  Uiso   1.00
C1223  C     0.79591   0.49654   0.95255   0.00000  Uiso   1.00
C1224  C     0.87076   0.50342   0.54745   0.00000  Uiso   1.00
C1225  C     0.73418   0.46683   0.97275   0.00000  Uiso   1.00
C1226  C     0.93249   0.53312   0.52724   0.00000  Uiso   1.00
C1227  C     0.84279   0.50564   0.97695   0.00000  Uiso   1.00
C1228  C     0.82388   0.49432   0.52304   0.00000  Uiso   1.00
Cu1229 Cu    0.77404   0.49441   0.74516   0.00000  Uiso   1.00
Cu1230 Cu    0.89263   0.50559   0.75483   0.00000  Uiso   1.00
H1231  H     0.99940   0.44153   0.53492   0.00000  Uiso   1.00
H1232  H     0.66727   0.55844   0.96508   0.00000  Uiso   1.00
H1233  H     0.97821   0.42224   0.96336   0.00000  Uiso   1.00
H1234  H     0.68846   0.57772   0.53663   0.00000  Uiso   1.00
H1235  H     0.73991   0.47745   0.57887   0.00000  Uiso   1.00
H1236  H     0.92675   0.52253   0.92113   0.00000  Uiso   1.00
H1237  H     0.90231   0.34667   0.75508   0.00000  Uiso   1.00
H1238  H     0.76437   0.65334   0.74490   0.00000  Uiso   1.00
H1239  H     0.66786   0.53823   0.78448   0.00000  Uiso   1.00
H1240  H     0.99881   0.46177   0.71552   0.00000  Uiso   1.00
N1241  N     0.98173   0.51401   0.76212   0.00000  Uiso   1.00
N1242  N     0.68494   0.48599   0.73788   0.00000  Uiso   1.00
O1243  O     0.79482   0.57142   0.74686   0.00000  Uiso   1.00
O1244  O     0.87185   0.42858   0.75314   0.00000  Uiso   1.00
O1245  O     0.89496   0.58086   0.75502   0.00000  Uiso   1.00
O1246  O     0.77171   0.41914   0.74497   0.00000  Uiso   1.00
O1247  O     0.75518   0.49263   0.80854   0.00000  Uiso   1.00
O1248  O     0.91149   0.50737   0.69145   0.00000  Uiso   1.00
O1249  O     0.85532   0.50207   0.81671   0.00000  Uiso   1.00
O1250  O     0.81134   0.49793   0.68329   0.00000  Uiso   1.00
C1251  C     0.81961   0.42788   0.60469   0.00000  Uiso   1.00
C1252  C     0.83811   0.38402   0.57146   0.00000  Uiso   1.00
C1253  C     0.78685   0.35971   0.54746   0.00000  Uiso   1.00
H1254  H     0.73812   0.35629   0.56946   0.00000  Uiso   1.00
H1255  H     0.79227   0.38356   0.51816   0.00000  Uiso   1.00
H1256  H     0.79196   0.65272   0.53593   0.00000  Uiso   1.00
H1257  H     0.88432   0.39860   0.54679   0.00000  Uiso   1.00
H1258  H     0.84516   0.35163   0.58981   0.00000  Uiso   1.00
H1259  H     0.82772   0.41682   0.63589   0.00000  Uiso   1.00
H1260  H     0.76776   0.42602   0.61405   0.00000  Uiso   1.00
C1261  C     0.84703   0.57209   0.89534   0.00000  Uiso   1.00
C1262  C     0.82855   0.61593   0.92861   0.00000  Uiso   1.00
C1263  C     0.87992   0.64030   0.95250   0.00000  Uiso   1.00
H1264  H     0.87459   0.61649   0.98182   0.00000  Uiso   1.00
H1265  H     0.92862   0.64366   0.93046   0.00000  Uiso   1.00
H1266  H     0.87484   0.34731   0.96400   0.00000  Uiso   1.00
H1267  H     0.82131   0.64829   0.91033   0.00000  Uiso   1.00
H1268  H     0.78244   0.60130   0.95336   0.00000  Uiso   1.00
H1269  H     0.89888   0.57395   0.88594   0.00000  Uiso   1.00
H1270  H     0.83887   0.58318   0.86415   0.00000  Uiso   1.00
C1271  C     0.66979   0.57639   0.62408   0.00000  Uiso   1.00
C1272  C     0.97904   0.62396   0.64785   0.00000  Uiso   1.00
C1273  C     0.68795   0.65170   0.67722   0.00000  Uiso   1.00
H1274  H     0.68508   0.62477   0.70406   0.00000  Uiso   1.00
H1275  H     0.73838   0.66378   0.65762   0.00000  Uiso   1.00
H1276  H     0.67155   0.35417   0.69222   0.00000  Uiso   1.00
H1277  H     0.97858   0.65242   0.62314   0.00000  Uiso   1.00
H1278  H     0.92939   0.61128   0.66836   0.00000  Uiso   1.00
H1279  H     0.67821   0.55005   0.64717   0.00000  Uiso   1.00
H1280  H     0.71781   0.59144   0.60149   0.00000  Uiso   1.00
C1281  C     0.99689   0.42359   0.87590   0.00000  Uiso   1.00
C1282  C     0.68766   0.37604   0.85212   0.00000  Uiso   1.00
C1283  C     0.97874   0.34830   0.82276   0.00000  Uiso   1.00
H1284  H     0.92831   0.33619   0.84237   0.00000  Uiso   1.00
H1285  H     0.98159   0.37522   0.79592   0.00000  Uiso   1.00
H1286  H     0.99516   0.64584   0.80775   0.00000  Uiso   1.00
H1287  H     0.73730   0.38873   0.83160   0.00000  Uiso   1.00
H1288  H     0.68814   0.34758   0.87683   0.00000  Uiso   1.00
H1289  H     0.94887   0.40853   0.89849   0.00000  Uiso   1.00
H1290  H     0.98846   0.44995   0.85282   0.00000  Uiso   1.00
C1291  C     0.18150   0.93339   0.75172   0.00000  Uiso   1.00
C1292  C     0.15183   0.73328   0.74828   0.00000  Uiso   1.00
C1293  C     0.09172   0.81064   0.54354   0.00000  Uiso   1.00
C1294  C     0.24161   0.85600   0.95646   0.00000  Uiso   1.00
C1295  C     0.04846   0.79280   0.51840   0.00000  Uiso   1.00
C1296  C     0.28488   0.87383   0.98160   0.00000  Uiso   1.00
C1297  C     0.19015   0.98941   0.75198   0.00000  Uiso   1.00
C1298  C     0.14320   0.67726   0.74800   0.00000  Uiso   1.00
C1299  C     0.12713   0.82825   0.83344   0.00000  Uiso   1.00
C1300  C     0.20620   0.83842   0.66656   0.00000  Uiso   1.00
C1301  C     0.10147   0.82243   0.88205   0.00000  Uiso   1.00
C1302  C     0.23186   0.84422   0.61795   0.00000  Uiso   1.00
C1303  C     0.02465   0.77969   0.94750   0.00000  Uiso   1.00
C1304  C     0.30869   0.88693   0.55250   0.00000  Uiso   1.00
C1305  C     0.04237   0.78727   0.90174   0.00000  Uiso   1.00
C1306  C     0.29097   0.87937   0.59825   0.00000  Uiso   1.00
C1307  C     0.14000   0.84975   0.90935   0.00000  Uiso   1.00
C1308  C     0.19333   0.81688   0.59066   0.00000  Uiso   1.00
C1309  C     0.12924   0.82987   0.95255   0.00000  Uiso   1.00
C1310  C     0.20409   0.83675   0.54745   0.00000  Uiso   1.00
C1311  C     0.06751   0.80016   0.97275   0.00000  Uiso   1.00
C1312  C     0.26583   0.86645   0.52724   0.00000  Uiso   1.00
C1313  C     0.17613   0.83898   0.97695   0.00000  Uiso   1.00
C1314  C     0.15721   0.82766   0.52304   0.00000  Uiso   1.00
Cu1315 Cu    0.10737   0.82775   0.74516   0.00000  Uiso   1.00
Cu1316 Cu    0.22596   0.83892   0.75483   0.00000  Uiso   1.00
H1317  H     0.33273   0.77486   0.53492   0.00000  Uiso   1.00
H1318  H     0.00060   0.89177   0.96508   0.00000  Uiso   1.00
H1319  H     0.31154   0.75557   0.96336   0.00000  Uiso   1.00
H1320  H     0.02180   0.91105   0.53663   0.00000  Uiso   1.00
H1321  H     0.07325   0.81078   0.57887   0.00000  Uiso   1.00
H1322  H     0.26008   0.85587   0.92113   0.00000  Uiso   1.00
H1323  H     0.23564   0.68000   0.75508   0.00000  Uiso   1.00
H1324  H     0.09770   0.98667   0.74490   0.00000  Uiso   1.00
H1325  H     0.00119   0.87156   0.78448   0.00000  Uiso   1.00
H1326  H     0.33214   0.79511   0.71552   0.00000  Uiso   1.00
N1327  N     0.31506   0.84735   0.76212   0.00000  Uiso   1.00
N1328  N     0.01827   0.81932   0.73788   0.00000  Uiso   1.00
O1329  O     0.12815   0.90476   0.74686   0.00000  Uiso   1.00
O1330  O     0.20518   0.76191   0.75314   0.00000  Uiso   1.00
O1331  O     0.22829   0.91420   0.75502   0.00000  Uiso   1.00
O1332  O     0.10504   0.75247   0.74497   0.00000  Uiso   1.00
O1333  O     0.08851   0.82597   0.80854   0.00000  Uiso   1.00
O1334  O     0.24482   0.84070   0.69145   0.00000  Uiso   1.00
O1335  O     0.18866   0.83540   0.81671   0.00000  Uiso   1.00
O1336  O     0.14468   0.83126   0.68329   0.00000  Uiso   1.00
C1337  C     0.15294   0.76121   0.60469   0.00000  Uiso   1.00
C1338  C     0.17144   0.71736   0.57146   0.00000  Uiso   1.00
C1339  C     0.12019   0.69305   0.54746   0.00000  Uiso   1.00
H1340  H     0.07146   0.68963   0.56946   0.00000  Uiso   1.00
H1341  H     0.12560   0.71690   0.51816   0.00000  Uiso   1.00
H1342  H     0.12530   0.98605   0.53593   0.00000  Uiso   1.00
H1343  H     0.21766   0.73193   0.54679   0.00000  Uiso   1.00
H1344  H     0.17849   0.68496   0.58981   0.00000  Uiso   1.00
H1345  H     0.16106   0.75015   0.63589   0.00000  Uiso   1.00
H1346  H     0.10109   0.75935   0.61405   0.00000  Uiso   1.00
C1347  C     0.18036   0.90543   0.89534   0.00000  Uiso   1.00
C1348  C     0.16189   0.94926   0.92861   0.00000  Uiso   1.00
C1349  C     0.21326   0.97363   0.95250   0.00000  Uiso   1.00
H1350  H     0.20792   0.94982   0.98182   0.00000  Uiso   1.00
H1351  H     0.26195   0.97699   0.93046   0.00000  Uiso   1.00
H1352  H     0.20817   0.68064   0.96400   0.00000  Uiso   1.00
H1353  H     0.15465   0.98162   0.91033   0.00000  Uiso   1.00
H1354  H     0.11577   0.93463   0.95336   0.00000  Uiso   1.00
H1355  H     0.23221   0.90728   0.88594   0.00000  Uiso   1.00
H1356  H     0.17220   0.91652   0.86415   0.00000  Uiso   1.00
C1357  C     0.00312   0.90972   0.62408   0.00000  Uiso   1.00
C1358  C     0.31237   0.95729   0.64785   0.00000  Uiso   1.00
C1359  C     0.02129   0.98503   0.67722   0.00000  Uiso   1.00
H1360  H     0.01841   0.95810   0.70406   0.00000  Uiso   1.00
H1361  H     0.07172   0.99712   0.65762   0.00000  Uiso   1.00
H1362  H     0.00488   0.68750   0.69222   0.00000  Uiso   1.00
H1363  H     0.31191   0.98575   0.62314   0.00000  Uiso   1.00
H1364  H     0.26272   0.94461   0.66836   0.00000  Uiso   1.00
H1365  H     0.01154   0.88338   0.64717   0.00000  Uiso   1.00
H1366  H     0.05114   0.92477   0.60149   0.00000  Uiso   1.00
C1367  C     0.33022   0.75692   0.87590   0.00000  Uiso   1.00
C1368  C     0.02099   0.70937   0.85212   0.00000  Uiso   1.00
C1369  C     0.31207   0.68163   0.82276   0.00000  Uiso   1.00
H1370  H     0.26165   0.66952   0.84237   0.00000  Uiso   1.00
H1371  H     0.31492   0.70855   0.79592   0.00000  Uiso   1.00
H1372  H     0.32850   0.97918   0.80775   0.00000  Uiso   1.00
H1373  H     0.07063   0.72207   0.83160   0.00000  Uiso   1.00
H1374  H     0.02147   0.68092   0.87683   0.00000  Uiso   1.00
H1375  H     0.28220   0.74186   0.89849   0.00000  Uiso   1.00
H1376  H     0.32180   0.78328   0.85282   0.00000  Uiso   1.00
C1377  C     0.51484   0.93339   0.75172   0.00000  Uiso   1.00
C1378  C     0.48517   0.73328   0.74828   0.00000  Uiso   1.00
C1379  C     0.42506   0.81064   0.54354   0.00000  Uiso   1.00
C1380  C     0.57494   0.85600   0.95646   0.00000  Uiso   1.00
C1381  C     0.38179   0.79280   0.51840   0.00000  Uiso   1.00
C1382  C     0.61821   0.87383   0.98160   0.00000  Uiso   1.00
C1383  C     0.52348   0.98941   0.75198   0.00000  Uiso   1.00
C1384  C     0.47653   0.67726   0.74800   0.00000  Uiso   1.00
C1385  C     0.46046   0.82825   0.83344   0.00000  Uiso   1.00
C1386  C     0.53954   0.83842   0.66656   0.00000  Uiso   1.00
C1387  C     0.43481   0.82243   0.88205   0.00000  Uiso   1.00
C1388  C     0.56519   0.84422   0.61795   0.00000  Uiso   1.00
C1389  C     0.35799   0.77969   0.94750   0.00000  Uiso   1.00
C1390  C     0.64202   0.88693   0.55250   0.00000  Uiso   1.00
C1391  C     0.37570   0.78727   0.90174   0.00000  Uiso   1.00
C1392  C     0.62430   0.87937   0.59825   0.00000  Uiso   1.00
C1393  C     0.47334   0.84975   0.90935   0.00000  Uiso   1.00
C1394  C     0.52666   0.81688   0.59066   0.00000  Uiso   1.00
C1395  C     0.46258   0.82987   0.95255   0.00000  Uiso   1.00
C1396  C     0.53743   0.83675   0.54745   0.00000  Uiso   1.00
C1397  C     0.40085   0.80016   0.97275   0.00000  Uiso   1.00
C1398  C     0.59916   0.86645   0.52724   0.00000  Uiso   1.00
C1399  C     0.50946   0.83898   0.97695   0.00000  Uiso   1.00
C1400  C     0.49054   0.82766   0.52304   0.00000  Uiso   1.00
Cu1401 Cu    0.44071   0.82775   0.74516   0.00000  Uiso   1.00
Cu1402 Cu    0.55929   0.83892   0.75483   0.00000  Uiso   1.00
H1403  H     0.66606   0.77486   0.53492   0.00000  Uiso   1.00
H1404  H     0.33394   0.89177   0.96508   0.00000  Uiso   1.00
H1405  H     0.64488   0.75557   0.96336   0.00000  Uiso   1.00
H1406  H     0.35513   0.91105   0.53663   0.00000  Uiso   1.00
H1407  H     0.40658   0.81078   0.57887   0.00000  Uiso   1.00
H1408  H     0.59341   0.85587   0.92113   0.00000  Uiso   1.00
H1409  H     0.56898   0.68000   0.75508   0.00000  Uiso   1.00
H1410  H     0.43104   0.98667   0.74490   0.00000  Uiso   1.00
H1411  H     0.33452   0.87156   0.78448   0.00000  Uiso   1.00
H1412  H     0.66548   0.79511   0.71552   0.00000  Uiso   1.00
N1413  N     0.64839   0.84735   0.76212   0.00000  Uiso   1.00
N1414  N     0.35161   0.81932   0.73788   0.00000  Uiso   1.00
O1415  O     0.46148   0.90476   0.74686   0.00000  Uiso   1.00
O1416  O     0.53852   0.76191   0.75314   0.00000  Uiso   1.00
O1417  O     0.56163   0.91420   0.75502   0.00000  Uiso   1.00
O1418  O     0.43837   0.75247   0.74497   0.00000  Uiso   1.00
O1419  O     0.42185   0.82597   0.80854   0.00000  Uiso   1.00
O1420  O     0.57815   0.84070   0.69145   0.00000  Uiso   1.00
O1421  O     0.52199   0.83540   0.81671   0.00000  Uiso   1.00
O1422  O     0.47801   0.83126   0.68329   0.00000  Uiso   1.00
C1423  C     0.48628   0.76121   0.60469   0.00000  Uiso   1.00
C1424  C     0.50478   0.71736   0.57146   0.00000  Uiso   1.00
C1425  C     0.45352   0.69305   0.54746   0.00000  Uiso   1.00
H1426  H     0.40479   0.68963   0.56946   0.00000  Uiso   1.00
H1427  H     0.45894   0.71690   0.51816   0.00000  Uiso   1.00
H1428  H     0.45863   0.98605   0.53593   0.00000  Uiso   1.00
H1429  H     0.55099   0.73193   0.54679   0.00000  Uiso   1.00
H1430  H     0.51183   0.68496   0.58981   0.00000  Uiso   1.00
H1431  H     0.49439   0.75015   0.63589   0.00000  Uiso   1.00
H1432  H     0.43443   0.75935   0.61405   0.00000  Uiso   1.00
C1433  C     0.51370   0.90543   0.89534   0.00000  Uiso   1.00
C1434  C     0.49522   0.94926   0.92861   0.00000  Uiso   1.00
C1435  C     0.54659   0.97363   0.95250   0.00000  Uiso   1.00
H1436  H     0.54125   0.94982   0.98182   0.00000  Uiso   1.00
H1437  H     0.59529   0.97699   0.93046   0.00000  Uiso   1.00
H1438  H     0.54150   0.68064   0.96400   0.00000  Uiso   1.00
H1439  H     0.48798   0.98162   0.91033   0.00000  Uiso   1.00
H1440  H     0.44910   0.93463   0.95336   0.00000  Uiso   1.00
H1441  H     0.56554   0.90728   0.88594   0.00000  Uiso   1.00
H1442  H     0.50554   0.91652   0.86415   0.00000  Uiso   1.00
C1443  C     0.33645   0.90972   0.62408   0.00000  Uiso   1.00
C1444  C     0.64570   0.95729   0.64785   0.00000  Uiso   1.00
C1445  C     0.35462   0.98503   0.67722   0.00000  Uiso   1.00
H1446  H     0.35174   0.95810   0.70406   0.00000  Uiso   1.00
H1447  H     0.40505   0.99712   0.65762   0.00000  Uiso   1.00
H1448  H     0.33821   0.68750   0.69222   0.00000  Uiso   1.00
H1449  H     0.64524   0.98575   0.62314   0.00000  Uiso   1.00
H1450  H     0.59605   0.94461   0.66836   0.00000  Uiso   1.00
H1451  H     0.34487   0.88338   0.64717   0.00000  Uiso   1.00
H1452  H     0.38447   0.92477   0.60149   0.00000  Uiso   1.00
C1453  C     0.66355   0.75692   0.87590   0.00000  Uiso   1.00
C1454  C     0.35432   0.70937   0.85212   0.00000  Uiso   1.00
C1455  C     0.64540   0.68163   0.82276   0.00000  Uiso   1.00
H1456  H     0.59498   0.66952   0.84237   0.00000  Uiso   1.00
H1457  H     0.64825   0.70855   0.79592   0.00000  Uiso   1.00
H1458  H     0.66183   0.97918   0.80775   0.00000  Uiso   1.00
H1459  H     0.40397   0.72207   0.83160   0.00000  Uiso   1.00
H1460  H     0.35481   0.68092   0.87683   0.00000  Uiso   1.00
H1461  H     0.61554   0.74186   0.89849   0.00000  Uiso   1.00
H1462  H     0.65513   0.78328   0.85282   0.00000  Uiso   1.00
C1463  C     0.84817   0.93339   0.75172   0.00000  Uiso   1.00
C1464  C     0.81850   0.73328   0.74828   0.00000  Uiso   1.00
C1465  C     0.75839   0.81064   0.54354   0.00000  Uiso   1.00
C1466  C     0.90827   0.85600   0.95646   0.00000  Uiso   1.00
C1467  C     0.71512   0.79280   0.51840   0.00000  Uiso   1.00
C1468  C     0.95155   0.87383   0.98160   0.00000  Uiso   1.00
C1469  C     0.85681   0.98941   0.75198   0.00000  Uiso   1.00
C1470  C     0.80986   0.67726   0.74800   0.00000  Uiso   1.00
C1471  C     0.79380   0.82825   0.83344   0.00000  Uiso   1.00
C1472  C     0.87287   0.83842   0.66656   0.00000  Uiso   1.00
C1473  C     0.76814   0.82243   0.88205   0.00000  Uiso   1.00
C1474  C     0.89852   0.84422   0.61795   0.00000  Uiso   1.00
C1475  C     0.69132   0.77969   0.94750   0.00000  Uiso   1.00
C1476  C     0.97535   0.88693   0.55250   0.00000  Uiso   1.00
C1477  C     0.70903   0.78727   0.90174   0.00000  Uiso   1.00
C1478  C     0.95764   0.87937   0.59825   0.00000  Uiso   1.00
C1479  C     0.80667   0.84975   0.90935   0.00000  Uiso   1.00
C1480  C     0.85999   0.81688   0.59066   0.00000  Uiso   1.00
C1481  C     0.79591   0.82987   0.95255   0.00000  Uiso   1.00
C1482  C     0.87076   0.83675   0.54745   0.00000  Uiso   1.00
C1483  C     0.73418   0.80016   0.97275   0.00000  Uiso   1.00
C1484  C     0.93249   0.86645   0.52724   0.00000  Uiso   1.00
C1485  C     0.84279   0.83898   0.97695   0.00000  Uiso   1.00
C1486  C     0.82388   0.82766   0.52304   0.00000  Uiso   1.00
Cu1487 Cu    0.77404   0.82775   0.74516   0.00000  Uiso   1.00
Cu1488 Cu    0.89263   0.83892   0.75483   0.00000  Uiso   1.00
H1489  H     0.99940   0.77486   0.53492   0.00000  Uiso   1.00
H1490  H     0.66727   0.89177   0.96508   0.00000  Uiso   1.00
H1491  H     0.97821   0.75557   0.96336   0.00000  Uiso   1.00
H1492  H     0.68846   0.91105   0.53663   0.00000  Uiso   1.00
H1493  H     0.73991   0.81078   0.57887   0.00000  Uiso   1.00
H1494  H     0.92675   0.85587   0.92113   0.00000  Uiso   1.00
H1495  H     0.90231   0.68000   0.75508   0.00000  Uiso   1.00
H1496  H     0.76437   0.98667   0.74490   0.00000  Uiso   1.00
H1497  H     0.66786   0.87156   0.78448   0.00000  Uiso   1.00
H1498  H     0.99881   0.79511   0.71552   0.00000  Uiso   1.00
N1499  N     0.98173   0.84735   0.76212   0.00000  Uiso   1.00
N1500  N     0.68494   0.81932   0.73788   0.00000  Uiso   1.00
O1501  O     0.79482   0.90476   0.74686   0.00000  Uiso   1.00
O1502  O     0.87185   0.76191   0.75314   0.00000  Uiso   1.00
O1503  O     0.89496   0.91420   0.75502   0.00000  Uiso   1.00
O1504  O     0.77171   0.75247   0.74497   0.00000  Uiso   1.00
O1505  O     0.75518   0.82597   0.80854   0.00000  Uiso   1.00
O1506  O     0.91149   0.84070   0.69145   0.00000  Uiso   1.00
O1507  O     0.85532   0.83540   0.81671   0.00000  Uiso   1.00
O1508  O     0.81134   0.83126   0.68329   0.00000  Uiso   1.00
C1509  C     0.81961   0.76121   0.60469   0.00000  Uiso   1.00
C1510  C     0.83811   0.71736   0.57146   0.00000  Uiso   1.00
C1511  C     0.78685   0.69305   0.54746   0.00000  Uiso   1.00
H1512  H     0.73812   0.68963   0.56946   0.00000  Uiso   1.00
H1513  H     0.79227   0.71690   0.51816   0.00000  Uiso   1.00
H1514  H     0.79196   0.98605   0.53593   0.00000  Uiso   1.00
H1515  H     0.88432   0.73193   0.54679   0.00000  Uiso   1.00
H1516  H     0.84516   0.68496   0.58981   0.00000  Uiso   1.00
H1517  H     0.82772   0.75015   0.63589   0.00000  Uiso   1.00
H1518  H     0.76776   0.75935   0.61405   0.00000  Uiso   1.00
C1519  C     0.84703   0.90543   0.89534   0.00000  Uiso   1.00
C1520  C     0.82855   0.94926   0.92861   0.00000  Uiso   1.00
C1521  C     0.87992   0.97363   0.95250   0.00000  Uiso   1.00
H1522  H     0.87459   0.94982   0.98182   0.00000  Uiso   1.00
H1523  H     0.92862   0.97699   0.93046   0.00000  Uiso   1.00
H1524  H     0.87484   0.68064   0.96400   0.00000  Uiso   1.00
H1525  H     0.82131   0.98162   0.91033   0.00000  Uiso   1.00
H1526  H     0.78244   0.93463   0.95336   0.00000  Uiso   1.00
H1527  H     0.89888   0.90728   0.88594   0.00000  Uiso   1.00
H1528  H     0.83887   0.91652   0.86415   0.00000  Uiso   1.00
C1529  C     0.66979   0.90972   0.62408   0.00000  Uiso   1.00
C1530  C     0.97904   0.95729   0.64785   0.00000  Uiso   1.00
C1531  C     0.68795   0.98503   0.67722   0.00000  Uiso   1.00
H1532  H     0.68508   0.95810   0.70406   0.00000  Uiso   1.00
H1533  H     0.73838   0.99712   0.65762   0.00000  Uiso   1.00
H1534  H     0.67155   0.68750   0.69222   0.00000  Uiso   1.00
H1535  H     0.97858   0.98575   0.62314   0.00000  Uiso   1.00
H1536  H     0.92939   0.94461   0.66836   0.00000  Uiso   1.00
H1537  H     0.67821   0.88338   0.64717   0.00000  Uiso   1.00
H1538  H     0.71781   0.92477   0.60149   0.00000  Uiso   1.00
C1539  C     0.99689   0.75692   0.87590   0.00000  Uiso   1.00
C1540  C     0.68766   0.70937   0.85212   0.00000  Uiso   1.00
C1541  C     0.97874   0.68163   0.82276   0.00000  Uiso   1.00
H1542  H     0.92831   0.66952   0.84237   0.00000  Uiso   1.00
H1543  H     0.98159   0.70855   0.79592   0.00000  Uiso   1.00
H1544  H     0.99516   0.97918   0.80775   0.00000  Uiso   1.00
H1545  H     0.73730   0.72207   0.83160   0.00000  Uiso   1.00
H1546  H     0.68814   0.68092   0.87683   0.00000  Uiso   1.00
H1547  H     0.94887   0.74186   0.89849   0.00000  Uiso   1.00
H1548  H     0.98846   0.78328   0.85282   0.00000  Uiso   1.00
loop_
_geom_bond_atom_site_label_1
_geom_bond_atom_site_label_2
_geom_bond_distance
_geom_bond_site_symmetry_2
_ccdc_geom_bond_type
C1     O41     1.286   .     A
C1     C7      1.425   .     S
C1     O39     1.291   .     A
C2     O40     1.291   .     A
C2     C8      1.425   .     S
C2     O42     1.286   .     A
C3     C24     1.405   .     A
C3     H31     1.076   .     S
C3     C5      1.387   .     A
C4     C6      1.387   .     A
C4     C23     1.405   .     A
C4     H32     1.076   .     S
C5     C795    1.395   1_554 S
C5     H199    1.083   1_455 S
C6     C796    1.395   .     S
C6     H114    1.083   .     S
C7     C266    1.327   .     S
C7     H291    1.086   .     S
C8     C523    1.327   1_545 S
C8     H550    1.086   1_545 S
C9     O45     1.304   .     A
C9     O43     1.299   .     A
C9     C11     1.485   .     S
C10    O46     1.304   .     A
C10    O44     1.299   .     A
C10    C12     1.485   .     S
C11    C15     1.426   .     A
C11    C17     1.419   .     A
C12    C16     1.426   .     A
C12    C18     1.419   .     A
C13    C21     1.394   .     A
C13    C15     1.399   .     A
C13    H201    1.085   1_455 S
C14    C16     1.399   .     A
C14    C22     1.394   .     A
C14    H116    1.085   .     S
C15    C249    1.516   1_455 S
C16    C153    1.516   .     S
C17    C19     1.424   .     A
C17    C57     1.539   .     S
C18    C47     1.539   .     S
C18    C20     1.424   .     A
C19    C21     1.413   .     A
C19    C23     1.424   .     A
C20    C24     1.424   .     A
C20    C22     1.413   .     A
C21    C779    1.395   .     S
C22    C780    1.395   1_554 S
C23    C798    1.426   .     S
C24    C797    1.426   1_554 S
Cu25   O43     1.924   .     S
Cu25   N38     2.020   .     S
Cu25   O42     1.947   .     S
Cu25   Cu26    2.688   .     S
Cu25   O39     1.950   .     S
Cu25   O46     1.898   .     S
Cu26   O44     1.924   .     S
Cu26   O45     1.898   .     S
Cu26   N37     2.020   .     S
Cu26   O40     1.950   .     S
Cu26   O41     1.947   .     S
H27    C91     1.083   .     S
H28    C178    1.083   1_455 S
H29    C99     1.085   .     S
H30    C186    1.085   1_455 S
H33    C523    1.086   1_545 S
H34    C266    1.086   .     S
H35    N209    1.029   1_455 S
H36    N124    1.029   .     S
N37    H121    1.029   .     S
N37    N124    1.283   .     S
N38    H208    1.029   1_455 S
N38    N209    1.283   1_455 S
C47    C48     1.548   .     S
C47    H55     1.110   .     S
C47    H56     1.104   .     S
C48    H54     1.113   .     S
C48    H53     1.111   .     S
C48    C49     1.530   .     S
C49    H51     1.107   .     S
C49    H50     1.107   .     S
C49    H568    1.109   1_545 S
H52    C307    1.109   .     S
C57    H66     1.110   .     S
C57    H65     1.104   .     S
C57    C58     1.548   .     S
C58    H64     1.111   .     S
C58    C59     1.530   .     S
C58    H63     1.113   .     S
C59    H60     1.108   .     S
C59    H61     1.108   .     S
C59    H320    1.109   .     S
H62    C575    1.109   1_545 S
C67    H75     1.108   .     S
C67    H76     1.112   .     S
C67    C188    1.516   1_455 S
C67    C240    1.534   1_455 S
C68    H74     1.107   .     S
C68    H73     1.111   .     S
C68    C153    1.534   .     S
C68    C155    1.525   .     S
C69    H71     1.110   .     S
C69    H70     1.110   .     S
C69    C240    1.525   1_455 S
C69    H330    1.110   .     S
H72    C585    1.110   1_545 S
C77    H85     1.112   .     S
C77    H86     1.108   .     S
C77    C101    1.516   .     S
C77    C164    1.534   .     S
C78    H83     1.107   .     S
C78    H84     1.111   .     S
C78    C249    1.534   1_455 S
C78    C251    1.525   1_455 S
C79    H81     1.110   .     S
C79    H80     1.110   .     S
C79    C164    1.525   .     S
C79    H598    1.110   1_545 S
H82    C337    1.110   .     S
C87    O127    1.286   .     A
C87    C93     1.425   .     S
C87    O125    1.291   .     A
C88    O126    1.291   .     A
C88    C94     1.425   .     S
C88    O128    1.286   .     A
C89    C110    1.405   .     A
C89    H117    1.076   .     S
C89    C91     1.387   .     A
C90    C92     1.387   .     A
C90    C109    1.405   .     A
C90    H118    1.076   .     S
C91    C881    1.395   1_554 S
C92    C882    1.395   .     S
C92    H200    1.083   .     S
C93    C352    1.327   .     S
C93    H377    1.086   .     S
C94    C609    1.327   1_545 S
C94    H636    1.086   1_545 S
C95    O131    1.304   .     A
C95    O129    1.299   .     A
C95    C97     1.485   .     S
C96    O132    1.304   .     A
C96    O130    1.299   .     A
C96    C98     1.485   .     S
C97    C101    1.426   .     A
C97    C103    1.419   .     A
C98    C102    1.426   .     A
C98    C104    1.419   .     A
C99    C107    1.394   .     A
C99    C101    1.399   .     A
C100   C102    1.399   .     A
C100   C108    1.394   .     A
C100   H202    1.085   .     S
C102   C239    1.516   .     S
C103   C105    1.424   .     A
C103   C143    1.539   .     S
C104   C133    1.539   .     S
C104   C106    1.424   .     A
C105   C107    1.413   .     A
C105   C109    1.424   .     A
C106   C110    1.424   .     A
C106   C108    1.413   .     A
C107   C865    1.395   .     S
C108   C866    1.395   1_554 S
C109   C884    1.426   .     S
C110   C883    1.426   1_554 S
Cu111  O129    1.924   .     S
Cu111  N124    2.020   .     S
Cu111  O128    1.947   .     S
Cu111  Cu112   2.688   .     S
Cu111  O125    1.950   .     S
Cu111  O132    1.898   .     S
Cu112  O130    1.924   .     S
Cu112  O131    1.898   .     S
Cu112  N123    2.020   .     S
Cu112  O126    1.950   .     S
Cu112  O127    1.947   .     S
H113   C177    1.083   .     S
H115   C185    1.085   .     S
H119   C609    1.086   1_545 S
H120   C352    1.086   .     S
H122   N210    1.029   .     S
N123   H207    1.029   .     S
N123   N210    1.283   .     S
C133   C134    1.548   .     S
C133   H141    1.110   .     S
C133   H142    1.104   .     S
C134   H140    1.113   .     S
C134   H139    1.111   .     S
C134   C135    1.530   .     S
C135   H137    1.107   .     S
C135   H136    1.107   .     S
C135   H654    1.109   1_545 S
H138   C393    1.109   .     S
C143   H152    1.110   .     S
C143   H151    1.104   .     S
C143   C144    1.548   .     S
C144   H150    1.111   .     S
C144   C145    1.530   .     S
C144   H149    1.113   .     S
C145   H146    1.108   .     S
C145   H147    1.108   .     S
C145   H406    1.109   .     S
H148   C661    1.109   1_545 S
C153   H161    1.108   .     S
C153   H162    1.112   .     S
C154   H160    1.107   .     S
C154   H159    1.111   .     S
C154   C239    1.534   .     S
C154   C241    1.525   .     S
C155   H157    1.110   .     S
C155   H156    1.110   .     S
C155   H416    1.110   .     S
H158   C671    1.110   1_545 S
C163   H171    1.112   .     S
C163   H172    1.108   .     S
C163   C187    1.516   .     S
C163   C250    1.534   .     S
C164   H169    1.107   .     S
C164   H170    1.111   .     S
C165   H167    1.110   .     S
C165   H166    1.110   .     S
C165   C250    1.525   .     S
C165   H684    1.110   1_545 S
H168   C423    1.110   .     S
C173   O213    1.286   .     A
C173   C179    1.425   .     S
C173   O211    1.291   .     A
C174   O212    1.291   .     A
C174   C180    1.425   .     S
C174   O214    1.286   .     A
C175   C196    1.405   .     A
C175   H203    1.076   .     S
C175   C177    1.387   .     A
C176   C178    1.387   .     A
C176   C195    1.405   .     A
C176   H204    1.076   .     S
C177   C967    1.395   1_554 S
C178   C968    1.395   .     S
C178   H28     1.083   1_655 S
C179   C438    1.327   .     S
C179   H463    1.086   .     S
C180   C695    1.327   1_545 S
C180   H722    1.086   1_545 S
C181   O217    1.304   .     A
C181   O215    1.299   .     A
C181   C183    1.485   .     S
C182   O218    1.304   .     A
C182   O216    1.299   .     A
C182   C184    1.485   .     S
C183   C187    1.426   .     A
C183   C189    1.419   .     A
C184   C188    1.426   .     A
C184   C190    1.419   .     A
C185   C193    1.394   .     A
C185   C187    1.399   .     A
C186   C188    1.399   .     A
C186   C194    1.394   .     A
C186   H30     1.085   1_655 S
C188   C67     1.516   1_655 S
C189   C191    1.424   .     A
C189   C229    1.539   .     S
C190   C219    1.539   .     S
C190   C192    1.424   .     A
C191   C193    1.413   .     A
C191   C195    1.424   .     A
C192   C196    1.424   .     A
C192   C194    1.413   .     A
C193   C951    1.395   .     S
C194   C952    1.395   1_554 S
C195   C970    1.426   .     S
C196   C969    1.426   1_554 S
Cu197  O215    1.924   .     S
Cu197  N210    2.020   .     S
Cu197  O214    1.947   .     S
Cu197  Cu198   2.688   .     S
Cu197  O211    1.950   .     S
Cu197  O218    1.898   .     S
Cu198  O216    1.924   .     S
Cu198  O217    1.898   .     S
Cu198  N209    2.020   .     S
Cu198  O212    1.950   .     S
Cu198  O213    1.947   .     S
H199   C5      1.083   1_655 S
H201   C13     1.085   1_655 S
H205   C695    1.086   1_545 S
H206   C438    1.086   .     S
H208   N38     1.029   1_655 S
N209   H35     1.029   1_655 S
N209   N38     1.283   1_655 S
C219   C220    1.548   .     S
C219   H227    1.110   .     S
C219   H228    1.104   .     S
C220   H226    1.113   .     S
C220   H225    1.111   .     S
C220   C221    1.530   .     S
C221   H223    1.107   .     S
C221   H222    1.107   .     S
C221   H740    1.109   1_545 S
H224   C479    1.109   .     S
C229   H238    1.110   .     S
C229   H237    1.104   .     S
C229   C230    1.548   .     S
C230   H236    1.111   .     S
C230   C231    1.530   .     S
C230   H235    1.113   .     S
C231   H232    1.108   .     S
C231   H233    1.108   .     S
C231   H492    1.109   .     S
H234   C747    1.109   1_545 S
C239   H247    1.108   .     S
C239   H248    1.112   .     S
C240   H246    1.107   .     S
C240   H245    1.111   .     S
C240   C67     1.534   1_655 S
C240   C69     1.525   1_655 S
C241   H243    1.110   .     S
C241   H242    1.110   .     S
C241   H502    1.110   .     S
H244   C757    1.110   1_545 S
C249   H257    1.112   .     S
C249   H258    1.108   .     S
C249   C15     1.516   1_655 S
C249   C78     1.534   1_655 S
C250   H255    1.107   .     S
C250   H256    1.111   .     S
C251   H253    1.110   .     S
C251   H252    1.110   .     S
C251   C78     1.525   1_655 S
C251   H770    1.110   1_545 S
H254   C509    1.110   .     S
C259   O299    1.286   .     A
C259   C265    1.425   .     S
C259   O297    1.291   .     A
C260   O298    1.291   .     A
C260   C266    1.425   .     S
C260   O300    1.286   .     A
C261   C282    1.405   .     A
C261   H289    1.076   .     S
C261   C263    1.387   .     A
C262   C264    1.387   .     A
C262   C281    1.405   .     A
C262   H290    1.076   .     S
C263   C1053   1.395   1_554 S
C263   H457    1.083   1_455 S
C264   C1054   1.395   .     S
C264   H372    1.083   .     S
C265   C524    1.327   .     S
C265   H549    1.086   .     S
C267   O303    1.304   .     A
C267   O301    1.299   .     A
C267   C269    1.485   .     S
C268   O304    1.304   .     A
C268   O302    1.299   .     A
C268   C270    1.485   .     S
C269   C273    1.426   .     A
C269   C275    1.419   .     A
C270   C274    1.426   .     A
C270   C276    1.419   .     A
C271   C279    1.394   .     A
C271   C273    1.399   .     A
C271   H459    1.085   1_455 S
C272   C274    1.399   .     A
C272   C280    1.394   .     A
C272   H374    1.085   .     S
C273   C507    1.516   1_455 S
C274   C411    1.516   .     S
C275   C277    1.424   .     A
C275   C315    1.539   .     S
C276   C305    1.539   .     S
C276   C278    1.424   .     A
C277   C279    1.413   .     A
C277   C281    1.424   .     A
C278   C282    1.424   .     A
C278   C280    1.413   .     A
C279   C1037   1.395   .     S
C280   C1038   1.395   1_554 S
C281   C1056   1.426   .     S
C282   C1055   1.426   1_554 S
Cu283  O301    1.924   .     S
Cu283  N296    2.020   .     S
Cu283  O300    1.947   .     S
Cu283  Cu284   2.688   .     S
Cu283  O297    1.950   .     S
Cu283  O304    1.898   .     S
Cu284  O302    1.924   .     S
Cu284  O303    1.898   .     S
Cu284  N295    2.020   .     S
Cu284  O298    1.950   .     S
Cu284  O299    1.947   .     S
H285   C349    1.083   .     S
H286   C436    1.083   1_455 S
H287   C357    1.085   .     S
H288   C444    1.085   1_455 S
H292   C524    1.086   .     S
H293   N467    1.029   1_455 S
H294   N382    1.029   .     S
N295   H379    1.029   .     S
N295   N382    1.283   .     S
N296   H466    1.029   1_455 S
N296   N467    1.283   1_455 S
C305   C306    1.548   .     S
C305   H313    1.110   .     S
C305   H314    1.104   .     S
C306   H312    1.113   .     S
C306   H311    1.111   .     S
C306   C307    1.530   .     S
C307   H309    1.107   .     S
C307   H308    1.107   .     S
H310   C565    1.109   .     S
C315   H324    1.110   .     S
C315   H323    1.104   .     S
C315   C316    1.548   .     S
C316   H322    1.111   .     S
C316   C317    1.530   .     S
C316   H321    1.113   .     S
C317   H318    1.108   .     S
C317   H319    1.108   .     S
C317   H578    1.109   .     S
C325   H333    1.108   .     S
C325   H334    1.112   .     S
C325   C446    1.516   1_455 S
C325   C498    1.534   1_455 S
C326   H332    1.107   .     S
C326   H331    1.111   .     S
C326   C411    1.534   .     S
C326   C413    1.525   .     S
C327   H329    1.110   .     S
C327   H328    1.110   .     S
C327   C498    1.525   1_455 S
C327   H588    1.110   .     S
C335   H343    1.112   .     S
C335   H344    1.108   .     S
C335   C359    1.516   .     S
C335   C422    1.534   .     S
C336   H341    1.107   .     S
C336   H342    1.111   .     S
C336   C507    1.534   1_455 S
C336   C509    1.525   1_455 S
C337   H339    1.110   .     S
C337   H338    1.110   .     S
C337   C422    1.525   .     S
H340   C595    1.110   .     S
C345   O385    1.286   .     A
C345   C351    1.425   .     S
C345   O383    1.291   .     A
C346   O384    1.291   .     A
C346   C352    1.425   .     S
C346   O386    1.286   .     A
C347   C368    1.405   .     A
C347   H375    1.076   .     S
C347   C349    1.387   .     A
C348   C350    1.387   .     A
C348   C367    1.405   .     A
C348   H376    1.076   .     S
C349   C1139   1.395   1_554 S
C350   C1140   1.395   .     S
C350   H458    1.083   .     S
C351   C610    1.327   .     S
C351   H635    1.086   .     S
C353   O389    1.304   .     A
C353   O387    1.299   .     A
C353   C355    1.485   .     S
C354   O390    1.304   .     A
C354   O388    1.299   .     A
C354   C356    1.485   .     S
C355   C359    1.426   .     A
C355   C361    1.419   .     A
C356   C360    1.426   .     A
C356   C362    1.419   .     A
C357   C365    1.394   .     A
C357   C359    1.399   .     A
C358   C360    1.399   .     A
C358   C366    1.394   .     A
C358   H460    1.085   .     S
C360   C497    1.516   .     S
C361   C363    1.424   .     A
C361   C401    1.539   .     S
C362   C391    1.539   .     S
C362   C364    1.424   .     A
C363   C365    1.413   .     A
C363   C367    1.424   .     A
C364   C368    1.424   .     A
C364   C366    1.413   .     A
C365   C1123   1.395   .     S
C366   C1124   1.395   1_554 S
C367   C1142   1.426   .     S
C368   C1141   1.426   1_554 S
Cu369  O387    1.924   .     S
Cu369  N382    2.020   .     S
Cu369  O386    1.947   .     S
Cu369  Cu370   2.688   .     S
Cu369  O383    1.950   .     S
Cu369  O390    1.898   .     S
Cu370  O388    1.924   .     S
Cu370  O389    1.898   .     S
Cu370  N381    2.020   .     S
Cu370  O384    1.950   .     S
Cu370  O385    1.947   .     S
H371   C435    1.083   .     S
H373   C443    1.085   .     S
H378   C610    1.086   .     S
H380   N468    1.029   .     S
N381   H465    1.029   .     S
N381   N468    1.283   .     S
C391   C392    1.548   .     S
C391   H399    1.110   .     S
C391   H400    1.104   .     S
C392   H398    1.113   .     S
C392   H397    1.111   .     S
C392   C393    1.530   .     S
C393   H395    1.107   .     S
C393   H394    1.107   .     S
H396   C651    1.109   .     S
C401   H410    1.110   .     S
C401   H409    1.104   .     S
C401   C402    1.548   .     S
C402   H408    1.111   .     S
C402   C403    1.530   .     S
C402   H407    1.113   .     S
C403   H404    1.108   .     S
C403   H405    1.108   .     S
C403   H664    1.109   .     S
C411   H419    1.108   .     S
C411   H420    1.112   .     S
C412   H418    1.107   .     S
C412   H417    1.111   .     S
C412   C497    1.534   .     S
C412   C499    1.525   .     S
C413   H415    1.110   .     S
C413   H414    1.110   .     S
C413   H674    1.110   .     S
C421   H429    1.112   .     S
C421   H430    1.108   .     S
C421   C445    1.516   .     S
C421   C508    1.534   .     S
C422   H427    1.107   .     S
C422   H428    1.111   .     S
C423   H425    1.110   .     S
C423   H424    1.110   .     S
C423   C508    1.525   .     S
H426   C681    1.110   .     S
C431   O471    1.286   .     A
C431   C437    1.425   .     S
C431   O469    1.291   .     A
C432   O470    1.291   .     A
C432   C438    1.425   .     S
C432   O472    1.286   .     A
C433   C454    1.405   .     A
C433   H461    1.076   .     S
C433   C435    1.387   .     A
C434   C436    1.387   .     A
C434   C453    1.405   .     A
C434   H462    1.076   .     S
C435   C1225   1.395   1_554 S
C436   C1226   1.395   .     S
C436   H286    1.083   1_655 S
C437   C696    1.327   .     S
C437   H721    1.086   .     S
C439   O475    1.304   .     A
C439   O473    1.299   .     A
C439   C441    1.485   .     S
C440   O476    1.304   .     A
C440   O474    1.299   .     A
C440   C442    1.485   .     S
C441   C445    1.426   .     A
C441   C447    1.419   .     A
C442   C446    1.426   .     A
C442   C448    1.419   .     A
C443   C451    1.394   .     A
C443   C445    1.399   .     A
C444   C446    1.399   .     A
C444   C452    1.394   .     A
C444   H288    1.085   1_655 S
C446   C325    1.516   1_655 S
C447   C449    1.424   .     A
C447   C487    1.539   .     S
C448   C477    1.539   .     S
C448   C450    1.424   .     A
C449   C451    1.413   .     A
C449   C453    1.424   .     A
C450   C454    1.424   .     A
C450   C452    1.413   .     A
C451   C1209   1.395   .     S
C452   C1210   1.395   1_554 S
C453   C1228   1.426   .     S
C454   C1227   1.426   1_554 S
Cu455  O473    1.924   .     S
Cu455  N468    2.020   .     S
Cu455  O472    1.947   .     S
Cu455  Cu456   2.688   .     S
Cu455  O469    1.950   .     S
Cu455  O476    1.898   .     S
Cu456  O474    1.924   .     S
Cu456  O475    1.898   .     S
Cu456  N467    2.020   .     S
Cu456  O470    1.950   .     S
Cu456  O471    1.947   .     S
H457   C263    1.083   1_655 S
H459   C271    1.085   1_655 S
H464   C696    1.086   .     S
H466   N296    1.029   1_655 S
N467   H293    1.029   1_655 S
N467   N296    1.283   1_655 S
C477   C478    1.548   .     S
C477   H485    1.110   .     S
C477   H486    1.104   .     S
C478   H484    1.113   .     S
C478   H483    1.111   .     S
C478   C479    1.530   .     S
C479   H481    1.107   .     S
C479   H480    1.107   .     S
H482   C737    1.109   .     S
C487   H496    1.110   .     S
C487   H495    1.104   .     S
C487   C488    1.548   .     S
C488   H494    1.111   .     S
C488   C489    1.530   .     S
C488   H493    1.113   .     S
C489   H490    1.108   .     S
C489   H491    1.108   .     S
C489   H750    1.109   .     S
C497   H505    1.108   .     S
C497   H506    1.112   .     S
C498   H504    1.107   .     S
C498   H503    1.111   .     S
C498   C325    1.534   1_655 S
C498   C327    1.525   1_655 S
C499   H501    1.110   .     S
C499   H500    1.110   .     S
C499   H760    1.110   .     S
C507   H515    1.112   .     S
C507   H516    1.108   .     S
C507   C273    1.516   1_655 S
C507   C336    1.534   1_655 S
C508   H513    1.107   .     S
C508   H514    1.111   .     S
C509   H511    1.110   .     S
C509   H510    1.110   .     S
C509   C336    1.525   1_655 S
H512   C767    1.110   .     S
C517   O557    1.286   .     A
C517   C523    1.425   .     S
C517   O555    1.291   .     A
C518   O556    1.291   .     A
C518   C524    1.425   .     S
C518   O558    1.286   .     A
C519   C540    1.405   .     A
C519   H547    1.076   .     S
C519   C521    1.387   .     A
C520   C522    1.387   .     A
C520   C539    1.405   .     A
C520   H548    1.076   .     S
C521   C1311   1.395   1_554 S
C521   H715    1.083   1_455 S
C522   C1312   1.395   .     S
C522   H630    1.083   .     S
C523   C8      1.327   1_565 S
C523   H33     1.086   1_565 S
C525   O561    1.304   .     A
C525   O559    1.299   .     A
C525   C527    1.485   .     S
C526   O562    1.304   .     A
C526   O560    1.299   .     A
C526   C528    1.485   .     S
C527   C531    1.426   .     A
C527   C533    1.419   .     A
C528   C532    1.426   .     A
C528   C534    1.419   .     A
C529   C537    1.394   .     A
C529   C531    1.399   .     A
C529   H717    1.085   1_455 S
C530   C532    1.399   .     A
C530   C538    1.394   .     A
C530   H632    1.085   .     S
C531   C765    1.516   1_455 S
C532   C669    1.516   .     S
C533   C535    1.424   .     A
C533   C573    1.539   .     S
C534   C563    1.539   .     S
C534   C536    1.424   .     A
C535   C537    1.413   .     A
C535   C539    1.424   .     A
C536   C540    1.424   .     A
C536   C538    1.413   .     A
C537   C1295   1.395   .     S
C538   C1296   1.395   1_554 S
C539   C1314   1.426   .     S
C540   C1313   1.426   1_554 S
Cu541  O559    1.924   .     S
Cu541  N554    2.020   .     S
Cu541  O558    1.947   .     S
Cu541  Cu542   2.688   .     S
Cu541  O555    1.950   .     S
Cu541  O562    1.898   .     S
Cu542  O560    1.924   .     S
Cu542  O561    1.898   .     S
Cu542  N553    2.020   .     S
Cu542  O556    1.950   .     S
Cu542  O557    1.947   .     S
H543   C607    1.083   .     S
H544   C694    1.083   1_455 S
H545   C615    1.085   .     S
H546   C702    1.085   1_455 S
H550   C8      1.086   1_565 S
H551   N725    1.029   1_455 S
H552   N640    1.029   .     S
N553   H637    1.029   .     S
N553   N640    1.283   .     S
N554   H724    1.029   1_455 S
N554   N725    1.283   1_455 S
C563   C564    1.548   .     S
C563   H571    1.110   .     S
C563   H572    1.104   .     S
C564   H570    1.113   .     S
C564   H569    1.111   .     S
C564   C565    1.530   .     S
C565   H567    1.107   .     S
C565   H566    1.107   .     S
H568   C49     1.109   1_565 S
C573   H582    1.110   .     S
C573   H581    1.104   .     S
C573   C574    1.548   .     S
C574   H580    1.111   .     S
C574   C575    1.530   .     S
C574   H579    1.113   .     S
C575   H576    1.108   .     S
C575   H577    1.108   .     S
C575   H62     1.109   1_565 S
C583   H591    1.108   .     S
C583   H592    1.112   .     S
C583   C704    1.516   1_455 S
C583   C756    1.534   1_455 S
C584   H590    1.107   .     S
C584   H589    1.111   .     S
C584   C669    1.534   .     S
C584   C671    1.525   .     S
C585   H587    1.110   .     S
C585   H586    1.110   .     S
C585   C756    1.525   1_455 S
C585   H72     1.110   1_565 S
C593   H601    1.112   .     S
C593   H602    1.108   .     S
C593   C617    1.516   .     S
C593   C680    1.534   .     S
C594   H599    1.107   .     S
C594   H600    1.111   .     S
C594   C765    1.534   1_455 S
C594   C767    1.525   1_455 S
C595   H597    1.110   .     S
C595   H596    1.110   .     S
C595   C680    1.525   .     S
H598   C79     1.110   1_565 S
C603   O643    1.286   .     A
C603   C609    1.425   .     S
C603   O641    1.291   .     A
C604   O642    1.291   .     A
C604   C610    1.425   .     S
C604   O644    1.286   .     A
C605   C626    1.405   .     A
C605   H633    1.076   .     S
C605   C607    1.387   .     A
C606   C608    1.387   .     A
C606   C625    1.405   .     A
C606   H634    1.076   .     S
C607   C1397   1.395   1_554 S
C608   C1398   1.395   .     S
C608   H716    1.083   .     S
C609   C94     1.327   1_565 S
C609   H119    1.086   1_565 S
C611   O647    1.304   .     A
C611   O645    1.299   .     A
C611   C613    1.485   .     S
C612   O648    1.304   .     A
C612   O646    1.299   .     A
C612   C614    1.485   .     S
C613   C617    1.426   .     A
C613   C619    1.419   .     A
C614   C618    1.426   .     A
C614   C620    1.419   .     A
C615   C623    1.394   .     A
C615   C617    1.399   .     A
C616   C618    1.399   .     A
C616   C624    1.394   .     A
C616   H718    1.085   .     S
C618   C755    1.516   .     S
C619   C621    1.424   .     A
C619   C659    1.539   .     S
C620   C649    1.539   .     S
C620   C622    1.424   .     A
C621   C623    1.413   .     A
C621   C625    1.424   .     A
C622   C626    1.424   .     A
C622   C624    1.413   .     A
C623   C1381   1.395   .     S
C624   C1382   1.395   1_554 S
C625   C1400   1.426   .     S
C626   C1399   1.426   1_554 S
Cu627  O645    1.924   .     S
Cu627  N640    2.020   .     S
Cu627  O644    1.947   .     S
Cu627  Cu628   2.688   .     S
Cu627  O641    1.950   .     S
Cu627  O648    1.898   .     S
Cu628  O646    1.924   .     S
Cu628  O647    1.898   .     S
Cu628  N639    2.020   .     S
Cu628  O642    1.950   .     S
Cu628  O643    1.947   .     S
H629   C693    1.083   .     S
H631   C701    1.085   .     S
H636   C94     1.086   1_565 S
H638   N726    1.029   .     S
N639   H723    1.029   .     S
N639   N726    1.283   .     S
C649   C650    1.548   .     S
C649   H657    1.110   .     S
C649   H658    1.104   .     S
C650   H656    1.113   .     S
C650   H655    1.111   .     S
C650   C651    1.530   .     S
C651   H653    1.107   .     S
C651   H652    1.107   .     S
H654   C135    1.109   1_565 S
C659   H668    1.110   .     S
C659   H667    1.104   .     S
C659   C660    1.548   .     S
C660   H666    1.111   .     S
C660   C661    1.530   .     S
C660   H665    1.113   .     S
C661   H662    1.108   .     S
C661   H663    1.108   .     S
C661   H148    1.109   1_565 S
C669   H677    1.108   .     S
C669   H678    1.112   .     S
C670   H676    1.107   .     S
C670   H675    1.111   .     S
C670   C755    1.534   .     S
C670   C757    1.525   .     S
C671   H673    1.110   .     S
C671   H672    1.110   .     S
C671   H158    1.110   1_565 S
C679   H687    1.112   .     S
C679   H688    1.108   .     S
C679   C703    1.516   .     S
C679   C766    1.534   .     S
C680   H685    1.107   .     S
C680   H686    1.111   .     S
C681   H683    1.110   .     S
C681   H682    1.110   .     S
C681   C766    1.525   .     S
H684   C165    1.110   1_565 S
C689   O729    1.286   .     A
C689   C695    1.425   .     S
C689   O727    1.291   .     A
C690   O728    1.291   .     A
C690   C696    1.425   .     S
C690   O730    1.286   .     A
C691   C712    1.405   .     A
C691   H719    1.076   .     S
C691   C693    1.387   .     A
C692   C694    1.387   .     A
C692   C711    1.405   .     A
C692   H720    1.076   .     S
C693   C1483   1.395   1_554 S
C694   C1484   1.395   .     S
C694   H544    1.083   1_655 S
C695   C180    1.327   1_565 S
C695   H205    1.086   1_565 S
C697   O733    1.304   .     A
C697   O731    1.299   .     A
C697   C699    1.485   .     S
C698   O734    1.304   .     A
C698   O732    1.299   .     A
C698   C700    1.485   .     S
C699   C703    1.426   .     A
C699   C705    1.419   .     A
C700   C704    1.426   .     A
C700   C706    1.419   .     A
C701   C709    1.394   .     A
C701   C703    1.399   .     A
C702   C704    1.399   .     A
C702   C710    1.394   .     A
C702   H546    1.085   1_655 S
C704   C583    1.516   1_655 S
C705   C707    1.424   .     A
C705   C745    1.539   .     S
C706   C735    1.539   .     S
C706   C708    1.424   .     A
C707   C709    1.413   .     A
C707   C711    1.424   .     A
C708   C712    1.424   .     A
C708   C710    1.413   .     A
C709   C1467   1.395   .     S
C710   C1468   1.395   1_554 S
C711   C1486   1.426   .     S
C712   C1485   1.426   1_554 S
Cu713  O731    1.924   .     S
Cu713  N726    2.020   .     S
Cu713  O730    1.947   .     S
Cu713  Cu714   2.688   .     S
Cu713  O727    1.950   .     S
Cu713  O734    1.898   .     S
Cu714  O732    1.924   .     S
Cu714  O733    1.898   .     S
Cu714  N725    2.020   .     S
Cu714  O728    1.950   .     S
Cu714  O729    1.947   .     S
H715   C521    1.083   1_655 S
H717   C529    1.085   1_655 S
H722   C180    1.086   1_565 S
H724   N554    1.029   1_655 S
N725   H551    1.029   1_655 S
N725   N554    1.283   1_655 S
C735   C736    1.548   .     S
C735   H743    1.110   .     S
C735   H744    1.104   .     S
C736   H742    1.113   .     S
C736   H741    1.111   .     S
C736   C737    1.530   .     S
C737   H739    1.107   .     S
C737   H738    1.107   .     S
H740   C221    1.109   1_565 S
C745   H754    1.110   .     S
C745   H753    1.104   .     S
C745   C746    1.548   .     S
C746   H752    1.111   .     S
C746   C747    1.530   .     S
C746   H751    1.113   .     S
C747   H748    1.108   .     S
C747   H749    1.108   .     S
C747   H234    1.109   1_565 S
C755   H763    1.108   .     S
C755   H764    1.112   .     S
C756   H762    1.107   .     S
C756   H761    1.111   .     S
C756   C583    1.534   1_655 S
C756   C585    1.525   1_655 S
C757   H759    1.110   .     S
C757   H758    1.110   .     S
C757   H244    1.110   1_565 S
C765   H773    1.112   .     S
C765   H774    1.108   .     S
C765   C531    1.516   1_655 S
C765   C594    1.534   1_655 S
C766   H771    1.107   .     S
C766   H772    1.111   .     S
C767   H769    1.110   .     S
C767   H768    1.110   .     S
C767   C594    1.525   1_655 S
H770   C251    1.110   1_565 S
C775   O815    1.286   .     A
C775   C781    1.425   .     S
C775   O813    1.291   .     A
C776   O814    1.291   .     A
C776   C782    1.425   .     S
C776   O816    1.286   .     A
C777   C798    1.405   .     A
C777   H805    1.076   .     S
C777   C779    1.387   .     A
C778   C780    1.387   .     A
C778   C797    1.405   .     A
C778   H806    1.076   .     S
C779   H973    1.083   1_455 S
C780   C22     1.395   1_556 S
C780   H888    1.083   .     S
C781   C1040   1.327   .     S
C781   H1065   1.086   .     S
C782   C1297   1.327   1_545 S
C782   H1324   1.086   1_545 S
C783   O819    1.304   .     A
C783   O817    1.299   .     A
C783   C785    1.485   .     S
C784   O820    1.304   .     A
C784   O818    1.299   .     A
C784   C786    1.485   .     S
C785   C789    1.426   .     A
C785   C791    1.419   .     A
C786   C790    1.426   .     A
C786   C792    1.419   .     A
C787   C795    1.394   .     A
C787   C789    1.399   .     A
C787   H975    1.085   1_455 S
C788   C790    1.399   .     A
C788   C796    1.394   .     A
C788   H890    1.085   .     S
C789   C1023   1.516   1_455 S
C790   C927    1.516   .     S
C791   C793    1.424   .     A
C791   C831    1.539   .     S
C792   C821    1.539   .     S
C792   C794    1.424   .     A
C793   C795    1.413   .     A
C793   C797    1.424   .     A
C794   C798    1.424   .     A
C794   C796    1.413   .     A
C795   C5      1.395   1_556 S
C797   C24     1.426   1_556 S
Cu799  O817    1.924   .     S
Cu799  N812    2.020   .     S
Cu799  O816    1.947   .     S
Cu799  Cu800   2.688   .     S
Cu799  O813    1.950   .     S
Cu799  O820    1.898   .     S
Cu800  O818    1.924   .     S
Cu800  O819    1.898   .     S
Cu800  N811    2.020   .     S
Cu800  O814    1.950   .     S
Cu800  O815    1.947   .     S
H801   C865    1.083   .     S
H802   C952    1.083   1_455 S
H803   C873    1.085   .     S
H804   C960    1.085   1_455 S
H807   C1297   1.086   1_545 S
H808   C1040   1.086   .     S
H809   N983    1.029   1_455 S
H810   N898    1.029   .     S
N811   H895    1.029   .     S
N811   N898    1.283   .     S
N812   H982    1.029   1_455 S
N812   N983    1.283   1_455 S
C821   C822    1.548   .     S
C821   H829    1.110   .     S
C821   H830    1.104   .     S
C822   H828    1.113   .     S
C822   H827    1.111   .     S
C822   C823    1.530   .     S
C823   H825    1.107   .     S
C823   H824    1.107   .     S
C823   H1342   1.109   1_545 S
H826   C1081   1.109   .     S
C831   H840    1.110   .     S
C831   H839    1.104   .     S
C831   C832    1.548   .     S
C832   H838    1.111   .     S
C832   C833    1.530   .     S
C832   H837    1.113   .     S
C833   H834    1.108   .     S
C833   H835    1.108   .     S
C833   H1094   1.109   .     S
H836   C1349   1.109   1_545 S
C841   H849    1.108   .     S
C841   H850    1.112   .     S
C841   C962    1.516   1_455 S
C841   C1014   1.534   1_455 S
C842   H848    1.107   .     S
C842   H847    1.111   .     S
C842   C927    1.534   .     S
C842   C929    1.525   .     S
C843   H845    1.110   .     S
C843   H844    1.110   .     S
C843   C1014   1.525   1_455 S
C843   H1104   1.110   .     S
H846   C1359   1.110   1_545 S
C851   H859    1.112   .     S
C851   H860    1.108   .     S
C851   C875    1.516   .     S
C851   C938    1.534   .     S
C852   H857    1.107   .     S
C852   H858    1.111   .     S
C852   C1023   1.534   1_455 S
C852   C1025   1.525   1_455 S
C853   H855    1.110   .     S
C853   H854    1.110   .     S
C853   C938    1.525   .     S
C853   H1372   1.110   1_545 S
H856   C1111   1.110   .     S
C861   O901    1.286   .     A
C861   C867    1.425   .     S
C861   O899    1.291   .     A
C862   O900    1.291   .     A
C862   C868    1.425   .     S
C862   O902    1.286   .     A
C863   C884    1.405   .     A
C863   H891    1.076   .     S
C863   C865    1.387   .     A
C864   C866    1.387   .     A
C864   C883    1.405   .     A
C864   H892    1.076   .     S
C866   C108    1.395   1_556 S
C866   H974    1.083   .     S
C867   C1126   1.327   .     S
C867   H1151   1.086   .     S
C868   C1383   1.327   1_545 S
C868   H1410   1.086   1_545 S
C869   O905    1.304   .     A
C869   O903    1.299   .     A
C869   C871    1.485   .     S
C870   O906    1.304   .     A
C870   O904    1.299   .     A
C870   C872    1.485   .     S
C871   C875    1.426   .     A
C871   C877    1.419   .     A
C872   C876    1.426   .     A
C872   C878    1.419   .     A
C873   C881    1.394   .     A
C873   C875    1.399   .     A
C874   C876    1.399   .     A
C874   C882    1.394   .     A
C874   H976    1.085   .     S
C876   C1013   1.516   .     S
C877   C879    1.424   .     A
C877   C917    1.539   .     S
C878   C907    1.539   .     S
C878   C880    1.424   .     A
C879   C881    1.413   .     A
C879   C883    1.424   .     A
C880   C884    1.424   .     A
C880   C882    1.413   .     A
C881   C91     1.395   1_556 S
C883   C110    1.426   1_556 S
Cu885  O903    1.924   .     S
Cu885  N898    2.020   .     S
Cu885  O902    1.947   .     S
Cu885  Cu886   2.688   .     S
Cu885  O899    1.950   .     S
Cu885  O906    1.898   .     S
Cu886  O904    1.924   .     S
Cu886  O905    1.898   .     S
Cu886  N897    2.020   .     S
Cu886  O900    1.950   .     S
Cu886  O901    1.947   .     S
H887   C951    1.083   .     S
H889   C959    1.085   .     S
H893   C1383   1.086   1_545 S
H894   C1126   1.086   .     S
H896   N984    1.029   .     S
N897   H981    1.029   .     S
N897   N984    1.283   .     S
C907   C908    1.548   .     S
C907   H915    1.110   .     S
C907   H916    1.104   .     S
C908   H914    1.113   .     S
C908   H913    1.111   .     S
C908   C909    1.530   .     S
C909   H911    1.107   .     S
C909   H910    1.107   .     S
C909   H1428   1.109   1_545 S
H912   C1167   1.109   .     S
C917   H926    1.110   .     S
C917   H925    1.104   .     S
C917   C918    1.548   .     S
C918   H924    1.111   .     S
C918   C919    1.530   .     S
C918   H923    1.113   .     S
C919   H920    1.108   .     S
C919   H921    1.108   .     S
C919   H1180   1.109   .     S
H922   C1435   1.109   1_545 S
C927   H935    1.108   .     S
C927   H936    1.112   .     S
C928   H934    1.107   .     S
C928   H933    1.111   .     S
C928   C1013   1.534   .     S
C928   C1015   1.525   .     S
C929   H931    1.110   .     S
C929   H930    1.110   .     S
C929   H1190   1.110   .     S
H932   C1445   1.110   1_545 S
C937   H945    1.112   .     S
C937   H946    1.108   .     S
C937   C961    1.516   .     S
C937   C1024   1.534   .     S
C938   H943    1.107   .     S
C938   H944    1.111   .     S
C939   H941    1.110   .     S
C939   H940    1.110   .     S
C939   C1024   1.525   .     S
C939   H1458   1.110   1_545 S
H942   C1197   1.110   .     S
C947   O987    1.286   .     A
C947   C953    1.425   .     S
C947   O985    1.291   .     A
C948   O986    1.291   .     A
C948   C954    1.425   .     S
C948   O988    1.286   .     A
C949   C970    1.405   .     A
C949   H977    1.076   .     S
C949   C951    1.387   .     A
C950   C952    1.387   .     A
C950   C969    1.405   .     A
C950   H978    1.076   .     S
C952   C194    1.395   1_556 S
C952   H802    1.083   1_655 S
C953   C1212   1.327   .     S
C953   H1237   1.086   .     S
C954   C1469   1.327   1_545 S
C954   H1496   1.086   1_545 S
C955   O991    1.304   .     A
C955   O989    1.299   .     A
C955   C957    1.485   .     S
C956   O992    1.304   .     A
C956   O990    1.299   .     A
C956   C958    1.485   .     S
C957   C961    1.426   .     A
C957   C963    1.419   .     A
C958   C962    1.426   .     A
C958   C964    1.419   .     A
C959   C967    1.394   .     A
C959   C961    1.399   .     A
C960   C962    1.399   .     A
C960   C968    1.394   .     A
C960   H804    1.085   1_655 S
C962   C841    1.516   1_655 S
C963   C965    1.424   .     A
C963   C1003   1.539   .     S
C964   C993    1.539   .     S
C964   C966    1.424   .     A
C965   C967    1.413   .     A
C965   C969    1.424   .     A
C966   C970    1.424   .     A
C966   C968    1.413   .     A
C967   C177    1.395   1_556 S
C969   C196    1.426   1_556 S
Cu971  O989    1.924   .     S
Cu971  N984    2.020   .     S
Cu971  O988    1.947   .     S
Cu971  Cu972   2.688   .     S
Cu971  O985    1.950   .     S
Cu971  O992    1.898   .     S
Cu972  O990    1.924   .     S
Cu972  O991    1.898   .     S
Cu972  N983    2.020   .     S
Cu972  O986    1.950   .     S
Cu972  O987    1.947   .     S
H973   C779    1.083   1_655 S
H975   C787    1.085   1_655 S
H979   C1469   1.086   1_545 S
H980   C1212   1.086   .     S
H982   N812    1.029   1_655 S
N983   H809    1.029   1_655 S
N983   N812    1.283   1_655 S
C993   C994    1.548   .     S
C993   H1001   1.110   .     S
C993   H1002   1.104   .     S
C994   H1000   1.113   .     S
C994   H999    1.111   .     S
C994   C995    1.530   .     S
C995   H997    1.107   .     S
C995   H996    1.107   .     S
C995   H1514   1.109   1_545 S
H998   C1253   1.109   .     S
C1003  H1012   1.110   .     S
C1003  H1011   1.104   .     S
C1003  C1004   1.548   .     S
C1004  H1010   1.111   .     S
C1004  C1005   1.530   .     S
C1004  H1009   1.113   .     S
C1005  H1006   1.108   .     S
C1005  H1007   1.108   .     S
C1005  H1266   1.109   .     S
H1008  C1521   1.109   1_545 S
C1013  H1021   1.108   .     S
C1013  H1022   1.112   .     S
C1014  H1020   1.107   .     S
C1014  H1019   1.111   .     S
C1014  C841    1.534   1_655 S
C1014  C843    1.525   1_655 S
C1015  H1017   1.110   .     S
C1015  H1016   1.110   .     S
C1015  H1276   1.110   .     S
H1018  C1531   1.110   1_545 S
C1023  H1031   1.112   .     S
C1023  H1032   1.108   .     S
C1023  C789    1.516   1_655 S
C1023  C852    1.534   1_655 S
C1024  H1029   1.107   .     S
C1024  H1030   1.111   .     S
C1025  H1027   1.110   .     S
C1025  H1026   1.110   .     S
C1025  C852    1.525   1_655 S
C1025  H1544   1.110   1_545 S
H1028  C1283   1.110   .     S
C1033  O1073   1.286   .     A
C1033  C1039   1.425   .     S
C1033  O1071   1.291   .     A
C1034  O1072   1.291   .     A
C1034  C1040   1.425   .     S
C1034  O1074   1.286   .     A
C1035  C1056   1.405   .     A
C1035  H1063   1.076   .     S
C1035  C1037   1.387   .     A
C1036  C1038   1.387   .     A
C1036  C1055   1.405   .     A
C1036  H1064   1.076   .     S
C1037  H1231   1.083   1_455 S
C1038  C280    1.395   1_556 S
C1038  H1146   1.083   .     S
C1039  C1298   1.327   .     S
C1039  H1323   1.086   .     S
C1041  O1077   1.304   .     A
C1041  O1075   1.299   .     A
C1041  C1043   1.485   .     S
C1042  O1078   1.304   .     A
C1042  O1076   1.299   .     A
C1042  C1044   1.485   .     S
C1043  C1047   1.426   .     A
C1043  C1049   1.419   .     A
C1044  C1048   1.426   .     A
C1044  C1050   1.419   .     A
C1045  C1053   1.394   .     A
C1045  C1047   1.399   .     A
C1045  H1233   1.085   1_455 S
C1046  C1048   1.399   .     A
C1046  C1054   1.394   .     A
C1046  H1148   1.085   .     S
C1047  C1281   1.516   1_455 S
C1048  C1185   1.516   .     S
C1049  C1051   1.424   .     A
C1049  C1089   1.539   .     S
C1050  C1079   1.539   .     S
C1050  C1052   1.424   .     A
C1051  C1053   1.413   .     A
C1051  C1055   1.424   .     A
C1052  C1056   1.424   .     A
C1052  C1054   1.413   .     A
C1053  C263    1.395   1_556 S
C1055  C282    1.426   1_556 S
Cu1057 O1075   1.924   .     S
Cu1057 N1070   2.020   .     S
Cu1057 O1074   1.947   .     S
Cu1057 Cu1058  2.688   .     S
Cu1057 O1071   1.950   .     S
Cu1057 O1078   1.898   .     S
Cu1058 O1076   1.924   .     S
Cu1058 O1077   1.898   .     S
Cu1058 N1069   2.020   .     S
Cu1058 O1072   1.950   .     S
Cu1058 O1073   1.947   .     S
H1059  C1123   1.083   .     S
H1060  C1210   1.083   1_455 S
H1061  C1131   1.085   .     S
H1062  C1218   1.085   1_455 S
H1066  C1298   1.086   .     S
H1067  N1241   1.029   1_455 S
H1068  N1156   1.029   .     S
N1069  H1153   1.029   .     S
N1069  N1156   1.283   .     S
N1070  H1240   1.029   1_455 S
N1070  N1241   1.283   1_455 S
C1079  C1080   1.548   .     S
C1079  H1087   1.110   .     S
C1079  H1088   1.104   .     S
C1080  H1086   1.113   .     S
C1080  H1085   1.111   .     S
C1080  C1081   1.530   .     S
C1081  H1083   1.107   .     S
C1081  H1082   1.107   .     S
H1084  C1339   1.109   .     S
C1089  H1098   1.110   .     S
C1089  H1097   1.104   .     S
C1089  C1090   1.548   .     S
C1090  H1096   1.111   .     S
C1090  C1091   1.530   .     S
C1090  H1095   1.113   .     S
C1091  H1092   1.108   .     S
C1091  H1093   1.108   .     S
C1091  H1352   1.109   .     S
C1099  H1107   1.108   .     S
C1099  H1108   1.112   .     S
C1099  C1220   1.516   1_455 S
C1099  C1272   1.534   1_455 S
C1100  H1106   1.107   .     S
C1100  H1105   1.111   .     S
C1100  C1185   1.534   .     S
C1100  C1187   1.525   .     S
C1101  H1103   1.110   .     S
C1101  H1102   1.110   .     S
C1101  C1272   1.525   1_455 S
C1101  H1362   1.110   .     S
C1109  H1117   1.112   .     S
C1109  H1118   1.108   .     S
C1109  C1133   1.516   .     S
C1109  C1196   1.534   .     S
C1110  H1115   1.107   .     S
C1110  H1116   1.111   .     S
C1110  C1281   1.534   1_455 S
C1110  C1283   1.525   1_455 S
C1111  H1113   1.110   .     S
C1111  H1112   1.110   .     S
C1111  C1196   1.525   .     S
H1114  C1369   1.110   .     S
C1119  O1159   1.286   .     A
C1119  C1125   1.425   .     S
C1119  O1157   1.291   .     A
C1120  O1158   1.291   .     A
C1120  C1126   1.425   .     S
C1120  O1160   1.286   .     A
C1121  C1142   1.405   .     A
C1121  H1149   1.076   .     S
C1121  C1123   1.387   .     A
C1122  C1124   1.387   .     A
C1122  C1141   1.405   .     A
C1122  H1150   1.076   .     S
C1124  C366    1.395   1_556 S
C1124  H1232   1.083   .     S
C1125  C1384   1.327   .     S
C1125  H1409   1.086   .     S
C1127  O1163   1.304   .     A
C1127  O1161   1.299   .     A
C1127  C1129   1.485   .     S
C1128  O1164   1.304   .     A
C1128  O1162   1.299   .     A
C1128  C1130   1.485   .     S
C1129  C1133   1.426   .     A
C1129  C1135   1.419   .     A
C1130  C1134   1.426   .     A
C1130  C1136   1.419   .     A
C1131  C1139   1.394   .     A
C1131  C1133   1.399   .     A
C1132  C1134   1.399   .     A
C1132  C1140   1.394   .     A
C1132  H1234   1.085   .     S
C1134  C1271   1.516   .     S
C1135  C1137   1.424   .     A
C1135  C1175   1.539   .     S
C1136  C1165   1.539   .     S
C1136  C1138   1.424   .     A
C1137  C1139   1.413   .     A
C1137  C1141   1.424   .     A
C1138  C1142   1.424   .     A
C1138  C1140   1.413   .     A
C1139  C349    1.395   1_556 S
C1141  C368    1.426   1_556 S
Cu1143 O1161   1.924   .     S
Cu1143 N1156   2.020   .     S
Cu1143 O1160   1.947   .     S
Cu1143 Cu1144  2.688   .     S
Cu1143 O1157   1.950   .     S
Cu1143 O1164   1.898   .     S
Cu1144 O1162   1.924   .     S
Cu1144 O1163   1.898   .     S
Cu1144 N1155   2.020   .     S
Cu1144 O1158   1.950   .     S
Cu1144 O1159   1.947   .     S
H1145  C1209   1.083   .     S
H1147  C1217   1.085   .     S
H1152  C1384   1.086   .     S
H1154  N1242   1.029   .     S
N1155  H1239   1.029   .     S
N1155  N1242   1.283   .     S
C1165  C1166   1.548   .     S
C1165  H1173   1.110   .     S
C1165  H1174   1.104   .     S
C1166  H1172   1.113   .     S
C1166  H1171   1.111   .     S
C1166  C1167   1.530   .     S
C1167  H1169   1.107   .     S
C1167  H1168   1.107   .     S
H1170  C1425   1.109   .     S
C1175  H1184   1.110   .     S
C1175  H1183   1.104   .     S
C1175  C1176   1.548   .     S
C1176  H1182   1.111   .     S
C1176  C1177   1.530   .     S
C1176  H1181   1.113   .     S
C1177  H1178   1.108   .     S
C1177  H1179   1.108   .     S
C1177  H1438   1.109   .     S
C1185  H1193   1.108   .     S
C1185  H1194   1.112   .     S
C1186  H1192   1.107   .     S
C1186  H1191   1.111   .     S
C1186  C1271   1.534   .     S
C1186  C1273   1.525   .     S
C1187  H1189   1.110   .     S
C1187  H1188   1.110   .     S
C1187  H1448   1.110   .     S
C1195  H1203   1.112   .     S
C1195  H1204   1.108   .     S
C1195  C1219   1.516   .     S
C1195  C1282   1.534   .     S
C1196  H1201   1.107   .     S
C1196  H1202   1.111   .     S
C1197  H1199   1.110   .     S
C1197  H1198   1.110   .     S
C1197  C1282   1.525   .     S
H1200  C1455   1.110   .     S
C1205  O1245   1.286   .     A
C1205  C1211   1.425   .     S
C1205  O1243   1.291   .     A
C1206  O1244   1.291   .     A
C1206  C1212   1.425   .     S
C1206  O1246   1.286   .     A
C1207  C1228   1.405   .     A
C1207  H1235   1.076   .     S
C1207  C1209   1.387   .     A
C1208  C1210   1.387   .     A
C1208  C1227   1.405   .     A
C1208  H1236   1.076   .     S
C1210  C452    1.395   1_556 S
C1210  H1060   1.083   1_655 S
C1211  C1470   1.327   .     S
C1211  H1495   1.086   .     S
C1213  O1249   1.304   .     A
C1213  O1247   1.299   .     A
C1213  C1215   1.485   .     S
C1214  O1250   1.304   .     A
C1214  O1248   1.299   .     A
C1214  C1216   1.485   .     S
C1215  C1219   1.426   .     A
C1215  C1221   1.419   .     A
C1216  C1220   1.426   .     A
C1216  C1222   1.419   .     A
C1217  C1225   1.394   .     A
C1217  C1219   1.399   .     A
C1218  C1220   1.399   .     A
C1218  C1226   1.394   .     A
C1218  H1062   1.085   1_655 S
C1220  C1099   1.516   1_655 S
C1221  C1223   1.424   .     A
C1221  C1261   1.539   .     S
C1222  C1251   1.539   .     S
C1222  C1224   1.424   .     A
C1223  C1225   1.413   .     A
C1223  C1227   1.424   .     A
C1224  C1228   1.424   .     A
C1224  C1226   1.413   .     A
C1225  C435    1.395   1_556 S
C1227  C454    1.426   1_556 S
Cu1229 O1247   1.924   .     S
Cu1229 N1242   2.020   .     S
Cu1229 O1246   1.947   .     S
Cu1229 Cu1230  2.688   .     S
Cu1229 O1243   1.950   .     S
Cu1229 O1250   1.898   .     S
Cu1230 O1248   1.924   .     S
Cu1230 O1249   1.898   .     S
Cu1230 N1241   2.020   .     S
Cu1230 O1244   1.950   .     S
Cu1230 O1245   1.947   .     S
H1231  C1037   1.083   1_655 S
H1233  C1045   1.085   1_655 S
H1238  C1470   1.086   .     S
H1240  N1070   1.029   1_655 S
N1241  H1067   1.029   1_655 S
N1241  N1070   1.283   1_655 S
C1251  C1252   1.548   .     S
C1251  H1259   1.110   .     S
C1251  H1260   1.104   .     S
C1252  H1258   1.113   .     S
C1252  H1257   1.111   .     S
C1252  C1253   1.530   .     S
C1253  H1255   1.107   .     S
C1253  H1254   1.107   .     S
H1256  C1511   1.109   .     S
C1261  H1270   1.110   .     S
C1261  H1269   1.104   .     S
C1261  C1262   1.548   .     S
C1262  H1268   1.111   .     S
C1262  C1263   1.530   .     S
C1262  H1267   1.113   .     S
C1263  H1264   1.108   .     S
C1263  H1265   1.108   .     S
C1263  H1524   1.109   .     S
C1271  H1279   1.108   .     S
C1271  H1280   1.112   .     S
C1272  H1278   1.107   .     S
C1272  H1277   1.111   .     S
C1272  C1099   1.534   1_655 S
C1272  C1101   1.525   1_655 S
C1273  H1275   1.110   .     S
C1273  H1274   1.110   .     S
C1273  H1534   1.110   .     S
C1281  H1289   1.112   .     S
C1281  H1290   1.108   .     S
C1281  C1047   1.516   1_655 S
C1281  C1110   1.534   1_655 S
C1282  H1287   1.107   .     S
C1282  H1288   1.111   .     S
C1283  H1285   1.110   .     S
C1283  H1284   1.110   .     S
C1283  C1110   1.525   1_655 S
H1286  C1541   1.110   .     S
C1291  O1331   1.286   .     A
C1291  C1297   1.425   .     S
C1291  O1329   1.291   .     A
C1292  O1330   1.291   .     A
C1292  C1298   1.425   .     S
C1292  O1332   1.286   .     A
C1293  C1314   1.405   .     A
C1293  H1321   1.076   .     S
C1293  C1295   1.387   .     A
C1294  C1296   1.387   .     A
C1294  C1313   1.405   .     A
C1294  H1322   1.076   .     S
C1295  H1489   1.083   1_455 S
C1296  C538    1.395   1_556 S
C1296  H1404   1.083   .     S
C1297  C782    1.327   1_565 S
C1297  H807    1.086   1_565 S
C1299  O1335   1.304   .     A
C1299  O1333   1.299   .     A
C1299  C1301   1.485   .     S
C1300  O1336   1.304   .     A
C1300  O1334   1.299   .     A
C1300  C1302   1.485   .     S
C1301  C1305   1.426   .     A
C1301  C1307   1.419   .     A
C1302  C1306   1.426   .     A
C1302  C1308   1.419   .     A
C1303  C1311   1.394   .     A
C1303  C1305   1.399   .     A
C1303  H1491   1.085   1_455 S
C1304  C1306   1.399   .     A
C1304  C1312   1.394   .     A
C1304  H1406   1.085   .     S
C1305  C1539   1.516   1_455 S
C1306  C1443   1.516   .     S
C1307  C1309   1.424   .     A
C1307  C1347   1.539   .     S
C1308  C1337   1.539   .     S
C1308  C1310   1.424   .     A
C1309  C1311   1.413   .     A
C1309  C1313   1.424   .     A
C1310  C1314   1.424   .     A
C1310  C1312   1.413   .     A
C1311  C521    1.395   1_556 S
C1313  C540    1.426   1_556 S
Cu1315 O1333   1.924   .     S
Cu1315 N1328   2.020   .     S
Cu1315 O1332   1.947   .     S
Cu1315 Cu1316  2.688   .     S
Cu1315 O1329   1.950   .     S
Cu1315 O1336   1.898   .     S
Cu1316 O1334   1.924   .     S
Cu1316 O1335   1.898   .     S
Cu1316 N1327   2.020   .     S
Cu1316 O1330   1.950   .     S
Cu1316 O1331   1.947   .     S
H1317  C1381   1.083   .     S
H1318  C1468   1.083   1_455 S
H1319  C1389   1.085   .     S
H1320  C1476   1.085   1_455 S
H1324  C782    1.086   1_565 S
H1325  N1499   1.029   1_455 S
H1326  N1414   1.029   .     S
N1327  H1411   1.029   .     S
N1327  N1414   1.283   .     S
N1328  H1498   1.029   1_455 S
N1328  N1499   1.283   1_455 S
C1337  C1338   1.548   .     S
C1337  H1345   1.110   .     S
C1337  H1346   1.104   .     S
C1338  H1344   1.113   .     S
C1338  H1343   1.111   .     S
C1338  C1339   1.530   .     S
C1339  H1341   1.107   .     S
C1339  H1340   1.107   .     S
H1342  C823    1.109   1_565 S
C1347  H1356   1.110   .     S
C1347  H1355   1.104   .     S
C1347  C1348   1.548   .     S
C1348  H1354   1.111   .     S
C1348  C1349   1.530   .     S
C1348  H1353   1.113   .     S
C1349  H1350   1.108   .     S
C1349  H1351   1.108   .     S
C1349  H836    1.109   1_565 S
C1357  H1365   1.108   .     S
C1357  H1366   1.112   .     S
C1357  C1478   1.516   1_455 S
C1357  C1530   1.534   1_455 S
C1358  H1364   1.107   .     S
C1358  H1363   1.111   .     S
C1358  C1443   1.534   .     S
C1358  C1445   1.525   .     S
C1359  H1361   1.110   .     S
C1359  H1360   1.110   .     S
C1359  C1530   1.525   1_455 S
C1359  H846    1.110   1_565 S
C1367  H1375   1.112   .     S
C1367  H1376   1.108   .     S
C1367  C1391   1.516   .     S
C1367  C1454   1.534   .     S
C1368  H1373   1.107   .     S
C1368  H1374   1.111   .     S
C1368  C1539   1.534   1_455 S
C1368  C1541   1.525   1_455 S
C1369  H1371   1.110   .     S
C1369  H1370   1.110   .     S
C1369  C1454   1.525   .     S
H1372  C853    1.110   1_565 S
C1377  O1417   1.286   .     A
C1377  C1383   1.425   .     S
C1377  O1415   1.291   .     A
C1378  O1416   1.291   .     A
C1378  C1384   1.425   .     S
C1378  O1418   1.286   .     A
C1379  C1400   1.405   .     A
C1379  H1407   1.076   .     S
C1379  C1381   1.387   .     A
C1380  C1382   1.387   .     A
C1380  C1399   1.405   .     A
C1380  H1408   1.076   .     S
C1382  C624    1.395   1_556 S
C1382  H1490   1.083   .     S
C1383  C868    1.327   1_565 S
C1383  H893    1.086   1_565 S
C1385  O1421   1.304   .     A
C1385  O1419   1.299   .     A
C1385  C1387   1.485   .     S
C1386  O1422   1.304   .     A
C1386  O1420   1.299   .     A
C1386  C1388   1.485   .     S
C1387  C1391   1.426   .     A
C1387  C1393   1.419   .     A
C1388  C1392   1.426   .     A
C1388  C1394   1.419   .     A
C1389  C1397   1.394   .     A
C1389  C1391   1.399   .     A
C1390  C1392   1.399   .     A
C1390  C1398   1.394   .     A
C1390  H1492   1.085   .     S
C1392  C1529   1.516   .     S
C1393  C1395   1.424   .     A
C1393  C1433   1.539   .     S
C1394  C1423   1.539   .     S
C1394  C1396   1.424   .     A
C1395  C1397   1.413   .     A
C1395  C1399   1.424   .     A
C1396  C1400   1.424   .     A
C1396  C1398   1.413   .     A
C1397  C607    1.395   1_556 S
C1399  C626    1.426   1_556 S
Cu1401 O1419   1.924   .     S
Cu1401 N1414   2.020   .     S
Cu1401 O1418   1.947   .     S
Cu1401 Cu1402  2.688   .     S
Cu1401 O1415   1.950   .     S
Cu1401 O1422   1.898   .     S
Cu1402 O1420   1.924   .     S
Cu1402 O1421   1.898   .     S
Cu1402 N1413   2.020   .     S
Cu1402 O1416   1.950   .     S
Cu1402 O1417   1.947   .     S
H1403  C1467   1.083   .     S
H1405  C1475   1.085   .     S
H1410  C868    1.086   1_565 S
H1412  N1500   1.029   .     S
N1413  H1497   1.029   .     S
N1413  N1500   1.283   .     S
C1423  C1424   1.548   .     S
C1423  H1431   1.110   .     S
C1423  H1432   1.104   .     S
C1424  H1430   1.113   .     S
C1424  H1429   1.111   .     S
C1424  C1425   1.530   .     S
C1425  H1427   1.107   .     S
C1425  H1426   1.107   .     S
H1428  C909    1.109   1_565 S
C1433  H1442   1.110   .     S
C1433  H1441   1.104   .     S
C1433  C1434   1.548   .     S
C1434  H1440   1.111   .     S
C1434  C1435   1.530   .     S
C1434  H1439   1.113   .     S
C1435  H1436   1.108   .     S
C1435  H1437   1.108   .     S
C1435  H922    1.109   1_565 S
C1443  H1451   1.108   .     S
C1443  H1452   1.112   .     S
C1444  H1450   1.107   .     S
C1444  H1449   1.111   .     S
C1444  C1529   1.534   .     S
C1444  C1531   1.525   .     S
C1445  H1447   1.110   .     S
C1445  H1446   1.110   .     S
C1445  H932    1.110   1_565 S
C1453  H1461   1.112   .     S
C1453  H1462   1.108   .     S
C1453  C1477   1.516   .     S
C1453  C1540   1.534   .     S
C1454  H1459   1.107   .     S
C1454  H1460   1.111   .     S
C1455  H1457   1.110   .     S
C1455  H1456   1.110   .     S
C1455  C1540   1.525   .     S
H1458  C939    1.110   1_565 S
C1463  O1503   1.286   .     A
C1463  C1469   1.425   .     S
C1463  O1501   1.291   .     A
C1464  O1502   1.291   .     A
C1464  C1470   1.425   .     S
C1464  O1504   1.286   .     A
C1465  C1486   1.405   .     A
C1465  H1493   1.076   .     S
C1465  C1467   1.387   .     A
C1466  C1468   1.387   .     A
C1466  C1485   1.405   .     A
C1466  H1494   1.076   .     S
C1468  C710    1.395   1_556 S
C1468  H1318   1.083   1_655 S
C1469  C954    1.327   1_565 S
C1469  H979    1.086   1_565 S
C1471  O1507   1.304   .     A
C1471  O1505   1.299   .     A
C1471  C1473   1.485   .     S
C1472  O1508   1.304   .     A
C1472  O1506   1.299   .     A
C1472  C1474   1.485   .     S
C1473  C1477   1.426   .     A
C1473  C1479   1.419   .     A
C1474  C1478   1.426   .     A
C1474  C1480   1.419   .     A
C1475  C1483   1.394   .     A
C1475  C1477   1.399   .     A
C1476  C1478   1.399   .     A
C1476  C1484   1.394   .     A
C1476  H1320   1.085   1_655 S
C1478  C1357   1.516   1_655 S
C1479  C1481   1.424   .     A
C1479  C1519   1.539   .     S
C1480  C1509   1.539   .     S
C1480  C1482   1.424   .     A
C1481  C1483   1.413   .     A
C1481  C1485   1.424   .     A
C1482  C1486   1.424   .     A
C1482  C1484   1.413   .     A
C1483  C693    1.395   1_556 S
C1485  C712    1.426   1_556 S
Cu1487 O1505   1.924   .     S
Cu1487 N1500   2.020   .     S
Cu1487 O1504   1.947   .     S
Cu1487 Cu1488  2.688   .     S
Cu1487 O1501   1.950   .     S
Cu1487 O1508   1.898   .     S
Cu1488 O1506   1.924   .     S
Cu1488 O1507   1.898   .     S
Cu1488 N1499   2.020   .     S
Cu1488 O1502   1.950   .     S
Cu1488 O1503   1.947   .     S
H1489  C1295   1.083   1_655 S
H1491  C1303   1.085   1_655 S
H1496  C954    1.086   1_565 S
H1498  N1328   1.029   1_655 S
N1499  H1325   1.029   1_655 S
N1499  N1328   1.283   1_655 S
C1509  C1510   1.548   .     S
C1509  H1517   1.110   .     S
C1509  H1518   1.104   .     S
C1510  H1516   1.113   .     S
C1510  H1515   1.111   .     S
C1510  C1511   1.530   .     S
C1511  H1513   1.107   .     S
C1511  H1512   1.107   .     S
H1514  C995    1.109   1_565 S
C1519  H1528   1.110   .     S
C1519  H1527   1.104   .     S
C1519  C1520   1.548   .     S
C1520  H1526   1.111   .     S
C1520  C1521   1.530   .     S
C1520  H1525   1.113   .     S
C1521  H1522   1.108   .     S
C1521  H1523   1.108   .     S
C1521  H1008   1.109   1_565 S
C1529  H1537   1.108   .     S
C1529  H1538   1.112   .     S
C1530  H1536   1.107   .     S
C1530  H1535   1.111   .     S
C1530  C1357   1.534   1_655 S
C1530  C1359   1.525   1_655 S
C1531  H1533   1.110   .     S
C1531  H1532   1.110   .     S
C1531  H1018   1.110   1_565 S
C1539  H1547   1.112   .     S
C1539  H1548   1.108   .     S
C1539  C1305   1.516   1_655 S
C1539  C1368   1.534   1_655 S
C1540  H1545   1.107   .     S
C1540  H1546   1.111   .     S
C1541  H1543   1.110   .     S
C1541  H1542   1.110   .     S
C1541  C1368   1.525   1_655 S
H1544  C1025   1.110   1_565 S
