data_str_m2_o10_o16_pcu_sym.130
_audit_creation_date              2020-01-03
_audit_creation_method            'Materials Studio'
_symmetry_space_group_name_H-M    'P1'
_symmetry_Int_Tables_number       1
_symmetry_cell_setting            triclinic
loop_
_symmetry_equiv_pos_as_xyz
  x,y,z
_cell_length_a                    22.4557
_cell_length_b                    26.1123
_cell_length_c                    26.9461
_cell_angle_alpha                 92.6343
_cell_angle_beta                  78.5305
_cell_angle_gamma                 101.3971
loop_
_atom_site_label
_atom_site_type_symbol
_atom_site_fract_x
_atom_site_fract_y
_atom_site_fract_z
_atom_site_U_iso_or_equiv
_atom_site_adp_type
_atom_site_occupancy
C1     C     0.17888   0.26594   0.25650   0.00000  Uiso   1.00
C2     C     0.14630   0.14588   0.48577   0.00000  Uiso   1.00
C3     C     0.16518   0.15166   0.43253   0.00000  Uiso   1.00
C4     C     0.19029   0.16780   0.01656   0.00000  Uiso   1.00
C5     C     0.25347   0.18541   0.49410   0.00000  Uiso   1.00
C6     C     0.27236   0.18161   0.44228   0.00000  Uiso   1.00
C7     C     0.22987   0.15932   0.41298   0.00000  Uiso   1.00
C8     C     0.17405   0.17226   0.06902   0.00000  Uiso   1.00
C9     C     0.28182   0.19544   0.07645   0.00000  Uiso   1.00
C10    C     0.11991   0.13996   0.40078   0.00000  Uiso   1.00
C11    C     0.17968   0.32084   0.26802   0.00000  Uiso   1.00
C12    C     0.13422   0.15752   0.34650   0.00000  Uiso   1.00
C13    C     0.14866   0.01160   0.24228   0.00000  Uiso   1.00
C14    C     0.15273   0.06693   0.24763   0.00000  Uiso   1.00
C15    C     0.20002   0.17294   0.15362   0.00000  Uiso   1.00
C16    C     0.29850   0.20015   0.02416   0.00000  Uiso   1.00
C17    C     0.21937   0.18049   0.09902   0.00000  Uiso   1.00
C18    C     0.06710   0.10258   0.41885   0.00000  Uiso   1.00
C19    C     0.05102   0.08852   0.47006   0.00000  Uiso   1.00
C20    C     0.08900   0.11111   0.00405   0.00000  Uiso   1.00
Cu21   Cu    0.10710   0.16105   0.24435   0.00000  Uiso   1.00
Cu22   Cu    0.22623   0.17228   0.25564   0.00000  Uiso   1.00
H23    H     0.31749   0.20361   0.09906   0.00000  Uiso   1.00
H24    H     0.12334   0.32466   0.21437   0.00000  Uiso   1.00
H25    H     0.32958   0.12747   0.21130   0.00000  Uiso   1.00
H26    H     0.32141   0.18805   0.42577   0.00000  Uiso   1.00
H27    H     0.01371   0.21190   0.00706   0.00000  Uiso   1.00
H28    H     0.12606   0.16898   0.08691   0.00000  Uiso   1.00
N29    N     0.31574   0.18074   0.26416   0.00000  Uiso   1.00
N30    N     0.01759   0.15259   0.23584   0.00000  Uiso   1.00
O31    O     0.12797   0.23807   0.24633   0.00000  Uiso   1.00
O32    O     0.22858   0.24755   0.25586   0.00000  Uiso   1.00
O33    O     0.09181   0.15960   0.31840   0.00000  Uiso   1.00
O34    O     0.19242   0.16908   0.32793   0.00000  Uiso   1.00
O35    O     0.10476   0.08578   0.24414   0.00000  Uiso   1.00
O36    O     0.20536   0.09526   0.25367   0.00000  Uiso   1.00
O37    O     0.14092   0.16425   0.17207   0.00000  Uiso   1.00
O38    O     0.24152   0.17373   0.18160   0.00000  Uiso   1.00
Cl39   Cl    0.01076   0.22505   0.30731   0.00000  Uiso   1.00
Cl40   Cl    0.03652   0.05855   0.37566   0.00000  Uiso   1.00
Cl41   Cl    0.07098   0.08055   0.06408   0.00000  Uiso   1.00
O42    O     0.00605   0.04450   0.48461   0.00000  Uiso   1.00
C43    C     0.28114   0.05916   0.49806   0.00000  Uiso   1.00
H44    H     0.26973   0.07734   0.46556   0.00000  Uiso   1.00
H45    H     0.28006   0.08663   0.03092   0.00000  Uiso   1.00
C46    C     0.23164   0.01069   0.01305   0.00000  Uiso   1.00
H47    H     0.23110   0.31600   0.48075   0.00000  Uiso   1.00
H48    H     0.24113   0.32482   0.04582   0.00000  Uiso   1.00
H49    H     0.18550   0.02182   0.02374   0.00000  Uiso   1.00
Cl50   Cl    0.25962   0.11631   0.36698   0.00000  Uiso   1.00
O51    O     0.20047   0.01292   0.31003   0.00000  Uiso   1.00
C52    C     0.25098   0.32858   0.32254   0.00000  Uiso   1.00
H53    H     0.24081   0.28641   0.33147   0.00000  Uiso   1.00
H54    H     0.25817   0.01302   0.35933   0.00000  Uiso   1.00
C55    C     0.30985   0.01252   0.28258   0.00000  Uiso   1.00
H56    H     0.32098   0.05575   0.28119   0.00000  Uiso   1.00
H57    H     0.01580   0.33128   0.29225   0.00000  Uiso   1.00
H58    H     0.30431   0.33121   0.24420   0.00000  Uiso   1.00
C59    C     0.51222   0.26594   0.25650   0.00000  Uiso   1.00
C60    C     0.47963   0.14588   0.48577   0.00000  Uiso   1.00
C61    C     0.49852   0.15166   0.43253   0.00000  Uiso   1.00
C62    C     0.52362   0.16780   0.01656   0.00000  Uiso   1.00
C63    C     0.58680   0.18541   0.49410   0.00000  Uiso   1.00
C64    C     0.60570   0.18161   0.44228   0.00000  Uiso   1.00
C65    C     0.56320   0.15932   0.41298   0.00000  Uiso   1.00
C66    C     0.50738   0.17226   0.06902   0.00000  Uiso   1.00
C67    C     0.61515   0.19544   0.07645   0.00000  Uiso   1.00
C68    C     0.45324   0.13996   0.40078   0.00000  Uiso   1.00
C69    C     0.51301   0.32084   0.26802   0.00000  Uiso   1.00
C70    C     0.46755   0.15752   0.34650   0.00000  Uiso   1.00
C71    C     0.48200   0.01160   0.24228   0.00000  Uiso   1.00
C72    C     0.48606   0.06693   0.24763   0.00000  Uiso   1.00
C73    C     0.53335   0.17294   0.15362   0.00000  Uiso   1.00
C74    C     0.63183   0.20015   0.02416   0.00000  Uiso   1.00
C75    C     0.55271   0.18049   0.09902   0.00000  Uiso   1.00
C76    C     0.40043   0.10258   0.41885   0.00000  Uiso   1.00
C77    C     0.38435   0.08852   0.47006   0.00000  Uiso   1.00
C78    C     0.42233   0.11111   0.00405   0.00000  Uiso   1.00
Cu79   Cu    0.44043   0.16105   0.24435   0.00000  Uiso   1.00
Cu80   Cu    0.55957   0.17228   0.25564   0.00000  Uiso   1.00
H81    H     0.65083   0.20361   0.09906   0.00000  Uiso   1.00
H82    H     0.45667   0.32466   0.21437   0.00000  Uiso   1.00
H83    H     0.66292   0.12747   0.21130   0.00000  Uiso   1.00
H84    H     0.65474   0.18805   0.42577   0.00000  Uiso   1.00
H85    H     0.34705   0.21190   0.00706   0.00000  Uiso   1.00
H86    H     0.45939   0.16898   0.08691   0.00000  Uiso   1.00
N87    N     0.64908   0.18074   0.26416   0.00000  Uiso   1.00
N88    N     0.35092   0.15259   0.23584   0.00000  Uiso   1.00
O89    O     0.46131   0.23807   0.24633   0.00000  Uiso   1.00
O90    O     0.56191   0.24755   0.25586   0.00000  Uiso   1.00
O91    O     0.42515   0.15960   0.31840   0.00000  Uiso   1.00
O92    O     0.52575   0.16908   0.32793   0.00000  Uiso   1.00
O93    O     0.43809   0.08578   0.24414   0.00000  Uiso   1.00
O94    O     0.53869   0.09526   0.25367   0.00000  Uiso   1.00
O95    O     0.47425   0.16425   0.17207   0.00000  Uiso   1.00
O96    O     0.57485   0.17373   0.18160   0.00000  Uiso   1.00
Cl97   Cl    0.34409   0.22505   0.30731   0.00000  Uiso   1.00
Cl98   Cl    0.36986   0.05855   0.37566   0.00000  Uiso   1.00
Cl99   Cl    0.40432   0.08055   0.06408   0.00000  Uiso   1.00
O100   O     0.33939   0.04450   0.48461   0.00000  Uiso   1.00
C101   C     0.61448   0.05916   0.49806   0.00000  Uiso   1.00
H102   H     0.60306   0.07734   0.46556   0.00000  Uiso   1.00
H103   H     0.61339   0.08663   0.03092   0.00000  Uiso   1.00
C104   C     0.56497   0.01069   0.01305   0.00000  Uiso   1.00
H105   H     0.56444   0.31600   0.48075   0.00000  Uiso   1.00
H106   H     0.57447   0.32482   0.04582   0.00000  Uiso   1.00
H107   H     0.51883   0.02182   0.02374   0.00000  Uiso   1.00
Cl108  Cl    0.59295   0.11631   0.36698   0.00000  Uiso   1.00
O109   O     0.53380   0.01292   0.31003   0.00000  Uiso   1.00
C110   C     0.58431   0.32858   0.32254   0.00000  Uiso   1.00
H111   H     0.57414   0.28641   0.33147   0.00000  Uiso   1.00
H112   H     0.59150   0.01302   0.35933   0.00000  Uiso   1.00
C113   C     0.64318   0.01252   0.28258   0.00000  Uiso   1.00
H114   H     0.65431   0.05575   0.28119   0.00000  Uiso   1.00
H115   H     0.34913   0.33128   0.29225   0.00000  Uiso   1.00
H116   H     0.63764   0.33121   0.24420   0.00000  Uiso   1.00
C117   C     0.84555   0.26594   0.25650   0.00000  Uiso   1.00
C118   C     0.81297   0.14588   0.48577   0.00000  Uiso   1.00
C119   C     0.83185   0.15166   0.43253   0.00000  Uiso   1.00
C120   C     0.85695   0.16780   0.01656   0.00000  Uiso   1.00
C121   C     0.92014   0.18541   0.49410   0.00000  Uiso   1.00
C122   C     0.93903   0.18161   0.44228   0.00000  Uiso   1.00
C123   C     0.89654   0.15932   0.41298   0.00000  Uiso   1.00
C124   C     0.84071   0.17226   0.06902   0.00000  Uiso   1.00
C125   C     0.94848   0.19544   0.07645   0.00000  Uiso   1.00
C126   C     0.78657   0.13996   0.40078   0.00000  Uiso   1.00
C127   C     0.84635   0.32084   0.26802   0.00000  Uiso   1.00
C128   C     0.80089   0.15752   0.34650   0.00000  Uiso   1.00
C129   C     0.81533   0.01160   0.24228   0.00000  Uiso   1.00
C130   C     0.81939   0.06693   0.24763   0.00000  Uiso   1.00
C131   C     0.86669   0.17294   0.15362   0.00000  Uiso   1.00
C132   C     0.96517   0.20015   0.02416   0.00000  Uiso   1.00
C133   C     0.88604   0.18049   0.09902   0.00000  Uiso   1.00
C134   C     0.73377   0.10258   0.41885   0.00000  Uiso   1.00
C135   C     0.71769   0.08852   0.47006   0.00000  Uiso   1.00
C136   C     0.75566   0.11111   0.00405   0.00000  Uiso   1.00
Cu137  Cu    0.77377   0.16105   0.24435   0.00000  Uiso   1.00
Cu138  Cu    0.89290   0.17228   0.25564   0.00000  Uiso   1.00
H139   H     0.98416   0.20361   0.09906   0.00000  Uiso   1.00
H140   H     0.79000   0.32466   0.21437   0.00000  Uiso   1.00
H141   H     0.99625   0.12747   0.21130   0.00000  Uiso   1.00
H142   H     0.98807   0.18805   0.42577   0.00000  Uiso   1.00
H143   H     0.68038   0.21190   0.00706   0.00000  Uiso   1.00
H144   H     0.79273   0.16898   0.08691   0.00000  Uiso   1.00
N145   N     0.98241   0.18074   0.26416   0.00000  Uiso   1.00
N146   N     0.68426   0.15259   0.23584   0.00000  Uiso   1.00
O147   O     0.79464   0.23807   0.24633   0.00000  Uiso   1.00
O148   O     0.89524   0.24755   0.25586   0.00000  Uiso   1.00
O149   O     0.75848   0.15960   0.31840   0.00000  Uiso   1.00
O150   O     0.85908   0.16908   0.32793   0.00000  Uiso   1.00
O151   O     0.77142   0.08578   0.24414   0.00000  Uiso   1.00
O152   O     0.87203   0.09526   0.25367   0.00000  Uiso   1.00
O153   O     0.80758   0.16425   0.17207   0.00000  Uiso   1.00
O154   O     0.90819   0.17373   0.18160   0.00000  Uiso   1.00
Cl155  Cl    0.67743   0.22505   0.30731   0.00000  Uiso   1.00
Cl156  Cl    0.70319   0.05855   0.37566   0.00000  Uiso   1.00
Cl157  Cl    0.73765   0.08055   0.06408   0.00000  Uiso   1.00
O158   O     0.67272   0.04450   0.48461   0.00000  Uiso   1.00
C159   C     0.94781   0.05916   0.49806   0.00000  Uiso   1.00
H160   H     0.93640   0.07734   0.46556   0.00000  Uiso   1.00
H161   H     0.94672   0.08663   0.03092   0.00000  Uiso   1.00
C162   C     0.89831   0.01069   0.01305   0.00000  Uiso   1.00
H163   H     0.89777   0.31600   0.48075   0.00000  Uiso   1.00
H164   H     0.90780   0.32482   0.04582   0.00000  Uiso   1.00
H165   H     0.85217   0.02182   0.02374   0.00000  Uiso   1.00
Cl166  Cl    0.92629   0.11631   0.36698   0.00000  Uiso   1.00
O167   O     0.86714   0.01292   0.31003   0.00000  Uiso   1.00
C168   C     0.91764   0.32858   0.32254   0.00000  Uiso   1.00
H169   H     0.90748   0.28641   0.33147   0.00000  Uiso   1.00
H170   H     0.92483   0.01302   0.35933   0.00000  Uiso   1.00
C171   C     0.97651   0.01252   0.28258   0.00000  Uiso   1.00
H172   H     0.98764   0.05575   0.28119   0.00000  Uiso   1.00
H173   H     0.68246   0.33128   0.29225   0.00000  Uiso   1.00
H174   H     0.97097   0.33121   0.24420   0.00000  Uiso   1.00
C175   C     0.17888   0.59928   0.25650   0.00000  Uiso   1.00
C176   C     0.14630   0.47921   0.48577   0.00000  Uiso   1.00
C177   C     0.16518   0.48499   0.43253   0.00000  Uiso   1.00
C178   C     0.19029   0.50113   0.01656   0.00000  Uiso   1.00
C179   C     0.25347   0.51874   0.49410   0.00000  Uiso   1.00
C180   C     0.27236   0.51495   0.44228   0.00000  Uiso   1.00
C181   C     0.22987   0.49266   0.41298   0.00000  Uiso   1.00
C182   C     0.17405   0.50559   0.06902   0.00000  Uiso   1.00
C183   C     0.28182   0.52877   0.07645   0.00000  Uiso   1.00
C184   C     0.11991   0.47329   0.40078   0.00000  Uiso   1.00
C185   C     0.17968   0.65417   0.26802   0.00000  Uiso   1.00
C186   C     0.13422   0.49085   0.34650   0.00000  Uiso   1.00
C187   C     0.14866   0.34493   0.24228   0.00000  Uiso   1.00
C188   C     0.15273   0.40027   0.24763   0.00000  Uiso   1.00
C189   C     0.20002   0.50627   0.15362   0.00000  Uiso   1.00
C190   C     0.29850   0.53348   0.02416   0.00000  Uiso   1.00
C191   C     0.21937   0.51382   0.09902   0.00000  Uiso   1.00
C192   C     0.06710   0.43591   0.41885   0.00000  Uiso   1.00
C193   C     0.05102   0.42185   0.47006   0.00000  Uiso   1.00
C194   C     0.08900   0.44444   0.00405   0.00000  Uiso   1.00
Cu195  Cu    0.10710   0.49439   0.24435   0.00000  Uiso   1.00
Cu196  Cu    0.22623   0.50561   0.25564   0.00000  Uiso   1.00
H197   H     0.31749   0.53694   0.09906   0.00000  Uiso   1.00
H198   H     0.12334   0.65799   0.21437   0.00000  Uiso   1.00
H199   H     0.32958   0.46080   0.21130   0.00000  Uiso   1.00
H200   H     0.32141   0.52139   0.42577   0.00000  Uiso   1.00
H201   H     0.01371   0.54523   0.00706   0.00000  Uiso   1.00
H202   H     0.12606   0.50232   0.08691   0.00000  Uiso   1.00
N203   N     0.31574   0.51407   0.26416   0.00000  Uiso   1.00
N204   N     0.01759   0.48593   0.23584   0.00000  Uiso   1.00
O205   O     0.12797   0.57141   0.24633   0.00000  Uiso   1.00
O206   O     0.22858   0.58089   0.25586   0.00000  Uiso   1.00
O207   O     0.09181   0.49293   0.31840   0.00000  Uiso   1.00
O208   O     0.19242   0.50241   0.32793   0.00000  Uiso   1.00
O209   O     0.10476   0.41911   0.24414   0.00000  Uiso   1.00
O210   O     0.20536   0.42859   0.25367   0.00000  Uiso   1.00
O211   O     0.14092   0.49759   0.17207   0.00000  Uiso   1.00
O212   O     0.24152   0.50707   0.18160   0.00000  Uiso   1.00
Cl213  Cl    0.01076   0.55838   0.30731   0.00000  Uiso   1.00
Cl214  Cl    0.03652   0.39188   0.37566   0.00000  Uiso   1.00
Cl215  Cl    0.07098   0.41388   0.06408   0.00000  Uiso   1.00
O216   O     0.00605   0.37783   0.48461   0.00000  Uiso   1.00
C217   C     0.28114   0.39249   0.49806   0.00000  Uiso   1.00
H218   H     0.26973   0.41067   0.46556   0.00000  Uiso   1.00
H219   H     0.28006   0.41996   0.03092   0.00000  Uiso   1.00
C220   C     0.23164   0.34402   0.01305   0.00000  Uiso   1.00
H221   H     0.23110   0.64934   0.48075   0.00000  Uiso   1.00
H222   H     0.24113   0.65815   0.04582   0.00000  Uiso   1.00
H223   H     0.18550   0.35515   0.02374   0.00000  Uiso   1.00
Cl224  Cl    0.25962   0.44964   0.36698   0.00000  Uiso   1.00
O225   O     0.20047   0.34625   0.31003   0.00000  Uiso   1.00
C226   C     0.25098   0.66191   0.32254   0.00000  Uiso   1.00
H227   H     0.24081   0.61974   0.33147   0.00000  Uiso   1.00
H228   H     0.25817   0.34636   0.35933   0.00000  Uiso   1.00
C229   C     0.30985   0.34586   0.28258   0.00000  Uiso   1.00
H230   H     0.32098   0.38908   0.28119   0.00000  Uiso   1.00
H231   H     0.01580   0.66462   0.29225   0.00000  Uiso   1.00
H232   H     0.30431   0.66454   0.24420   0.00000  Uiso   1.00
C233   C     0.51222   0.59928   0.25650   0.00000  Uiso   1.00
C234   C     0.47963   0.47921   0.48577   0.00000  Uiso   1.00
C235   C     0.49852   0.48499   0.43253   0.00000  Uiso   1.00
C236   C     0.52362   0.50113   0.01656   0.00000  Uiso   1.00
C237   C     0.58680   0.51874   0.49410   0.00000  Uiso   1.00
C238   C     0.60570   0.51495   0.44228   0.00000  Uiso   1.00
C239   C     0.56320   0.49266   0.41298   0.00000  Uiso   1.00
C240   C     0.50738   0.50559   0.06902   0.00000  Uiso   1.00
C241   C     0.61515   0.52877   0.07645   0.00000  Uiso   1.00
C242   C     0.45324   0.47329   0.40078   0.00000  Uiso   1.00
C243   C     0.51301   0.65417   0.26802   0.00000  Uiso   1.00
C244   C     0.46755   0.49085   0.34650   0.00000  Uiso   1.00
C245   C     0.48200   0.34493   0.24228   0.00000  Uiso   1.00
C246   C     0.48606   0.40027   0.24763   0.00000  Uiso   1.00
C247   C     0.53335   0.50627   0.15362   0.00000  Uiso   1.00
C248   C     0.63183   0.53348   0.02416   0.00000  Uiso   1.00
C249   C     0.55271   0.51382   0.09902   0.00000  Uiso   1.00
C250   C     0.40043   0.43591   0.41885   0.00000  Uiso   1.00
C251   C     0.38435   0.42185   0.47006   0.00000  Uiso   1.00
C252   C     0.42233   0.44444   0.00405   0.00000  Uiso   1.00
Cu253  Cu    0.44043   0.49439   0.24435   0.00000  Uiso   1.00
Cu254  Cu    0.55957   0.50561   0.25564   0.00000  Uiso   1.00
H255   H     0.65083   0.53694   0.09906   0.00000  Uiso   1.00
H256   H     0.45667   0.65799   0.21437   0.00000  Uiso   1.00
H257   H     0.66292   0.46080   0.21130   0.00000  Uiso   1.00
H258   H     0.65474   0.52139   0.42577   0.00000  Uiso   1.00
H259   H     0.34705   0.54523   0.00706   0.00000  Uiso   1.00
H260   H     0.45939   0.50232   0.08691   0.00000  Uiso   1.00
N261   N     0.64908   0.51407   0.26416   0.00000  Uiso   1.00
N262   N     0.35092   0.48593   0.23584   0.00000  Uiso   1.00
O263   O     0.46131   0.57141   0.24633   0.00000  Uiso   1.00
O264   O     0.56191   0.58089   0.25586   0.00000  Uiso   1.00
O265   O     0.42515   0.49293   0.31840   0.00000  Uiso   1.00
O266   O     0.52575   0.50241   0.32793   0.00000  Uiso   1.00
O267   O     0.43809   0.41911   0.24414   0.00000  Uiso   1.00
O268   O     0.53869   0.42859   0.25367   0.00000  Uiso   1.00
O269   O     0.47425   0.49759   0.17207   0.00000  Uiso   1.00
O270   O     0.57485   0.50707   0.18160   0.00000  Uiso   1.00
Cl271  Cl    0.34409   0.55838   0.30731   0.00000  Uiso   1.00
Cl272  Cl    0.36986   0.39188   0.37566   0.00000  Uiso   1.00
Cl273  Cl    0.40432   0.41388   0.06408   0.00000  Uiso   1.00
O274   O     0.33939   0.37783   0.48461   0.00000  Uiso   1.00
C275   C     0.61448   0.39249   0.49806   0.00000  Uiso   1.00
H276   H     0.60306   0.41067   0.46556   0.00000  Uiso   1.00
H277   H     0.61339   0.41996   0.03092   0.00000  Uiso   1.00
C278   C     0.56497   0.34402   0.01305   0.00000  Uiso   1.00
H279   H     0.56444   0.64934   0.48075   0.00000  Uiso   1.00
H280   H     0.57447   0.65815   0.04582   0.00000  Uiso   1.00
H281   H     0.51883   0.35515   0.02374   0.00000  Uiso   1.00
Cl282  Cl    0.59295   0.44964   0.36698   0.00000  Uiso   1.00
O283   O     0.53380   0.34625   0.31003   0.00000  Uiso   1.00
C284   C     0.58431   0.66191   0.32254   0.00000  Uiso   1.00
H285   H     0.57414   0.61974   0.33147   0.00000  Uiso   1.00
H286   H     0.59150   0.34636   0.35933   0.00000  Uiso   1.00
C287   C     0.64318   0.34586   0.28258   0.00000  Uiso   1.00
H288   H     0.65431   0.38908   0.28119   0.00000  Uiso   1.00
H289   H     0.34913   0.66462   0.29225   0.00000  Uiso   1.00
H290   H     0.63764   0.66454   0.24420   0.00000  Uiso   1.00
C291   C     0.84555   0.59928   0.25650   0.00000  Uiso   1.00
C292   C     0.81297   0.47921   0.48577   0.00000  Uiso   1.00
C293   C     0.83185   0.48499   0.43253   0.00000  Uiso   1.00
C294   C     0.85695   0.50113   0.01656   0.00000  Uiso   1.00
C295   C     0.92014   0.51874   0.49410   0.00000  Uiso   1.00
C296   C     0.93903   0.51495   0.44228   0.00000  Uiso   1.00
C297   C     0.89654   0.49266   0.41298   0.00000  Uiso   1.00
C298   C     0.84071   0.50559   0.06902   0.00000  Uiso   1.00
C299   C     0.94848   0.52877   0.07645   0.00000  Uiso   1.00
C300   C     0.78657   0.47329   0.40078   0.00000  Uiso   1.00
C301   C     0.84635   0.65417   0.26802   0.00000  Uiso   1.00
C302   C     0.80089   0.49085   0.34650   0.00000  Uiso   1.00
C303   C     0.81533   0.34493   0.24228   0.00000  Uiso   1.00
C304   C     0.81939   0.40027   0.24763   0.00000  Uiso   1.00
C305   C     0.86669   0.50627   0.15362   0.00000  Uiso   1.00
C306   C     0.96517   0.53348   0.02416   0.00000  Uiso   1.00
C307   C     0.88604   0.51382   0.09902   0.00000  Uiso   1.00
C308   C     0.73377   0.43591   0.41885   0.00000  Uiso   1.00
C309   C     0.71769   0.42185   0.47006   0.00000  Uiso   1.00
C310   C     0.75566   0.44444   0.00405   0.00000  Uiso   1.00
Cu311  Cu    0.77377   0.49439   0.24435   0.00000  Uiso   1.00
Cu312  Cu    0.89290   0.50561   0.25564   0.00000  Uiso   1.00
H313   H     0.98416   0.53694   0.09906   0.00000  Uiso   1.00
H314   H     0.79000   0.65799   0.21437   0.00000  Uiso   1.00
H315   H     0.99625   0.46080   0.21130   0.00000  Uiso   1.00
H316   H     0.98807   0.52139   0.42577   0.00000  Uiso   1.00
H317   H     0.68038   0.54523   0.00706   0.00000  Uiso   1.00
H318   H     0.79273   0.50232   0.08691   0.00000  Uiso   1.00
N319   N     0.98241   0.51407   0.26416   0.00000  Uiso   1.00
N320   N     0.68426   0.48593   0.23584   0.00000  Uiso   1.00
O321   O     0.79464   0.57141   0.24633   0.00000  Uiso   1.00
O322   O     0.89524   0.58089   0.25586   0.00000  Uiso   1.00
O323   O     0.75848   0.49293   0.31840   0.00000  Uiso   1.00
O324   O     0.85908   0.50241   0.32793   0.00000  Uiso   1.00
O325   O     0.77142   0.41911   0.24414   0.00000  Uiso   1.00
O326   O     0.87203   0.42859   0.25367   0.00000  Uiso   1.00
O327   O     0.80758   0.49759   0.17207   0.00000  Uiso   1.00
O328   O     0.90819   0.50707   0.18160   0.00000  Uiso   1.00
Cl329  Cl    0.67743   0.55838   0.30731   0.00000  Uiso   1.00
Cl330  Cl    0.70319   0.39188   0.37566   0.00000  Uiso   1.00
Cl331  Cl    0.73765   0.41388   0.06408   0.00000  Uiso   1.00
O332   O     0.67272   0.37783   0.48461   0.00000  Uiso   1.00
C333   C     0.94781   0.39249   0.49806   0.00000  Uiso   1.00
H334   H     0.93640   0.41067   0.46556   0.00000  Uiso   1.00
H335   H     0.94672   0.41996   0.03092   0.00000  Uiso   1.00
C336   C     0.89831   0.34402   0.01305   0.00000  Uiso   1.00
H337   H     0.89777   0.64934   0.48075   0.00000  Uiso   1.00
H338   H     0.90780   0.65815   0.04582   0.00000  Uiso   1.00
H339   H     0.85217   0.35515   0.02374   0.00000  Uiso   1.00
Cl340  Cl    0.92629   0.44964   0.36698   0.00000  Uiso   1.00
O341   O     0.86714   0.34625   0.31003   0.00000  Uiso   1.00
C342   C     0.91764   0.66191   0.32254   0.00000  Uiso   1.00
H343   H     0.90748   0.61974   0.33147   0.00000  Uiso   1.00
H344   H     0.92483   0.34636   0.35933   0.00000  Uiso   1.00
C345   C     0.97651   0.34586   0.28258   0.00000  Uiso   1.00
H346   H     0.98764   0.38908   0.28119   0.00000  Uiso   1.00
H347   H     0.68246   0.66462   0.29225   0.00000  Uiso   1.00
H348   H     0.97097   0.66454   0.24420   0.00000  Uiso   1.00
C349   C     0.17888   0.93261   0.25650   0.00000  Uiso   1.00
C350   C     0.14630   0.81254   0.48577   0.00000  Uiso   1.00
C351   C     0.16518   0.81833   0.43253   0.00000  Uiso   1.00
C352   C     0.19029   0.83447   0.01656   0.00000  Uiso   1.00
C353   C     0.25347   0.85207   0.49410   0.00000  Uiso   1.00
C354   C     0.27236   0.84828   0.44228   0.00000  Uiso   1.00
C355   C     0.22987   0.82599   0.41298   0.00000  Uiso   1.00
C356   C     0.17405   0.83893   0.06902   0.00000  Uiso   1.00
C357   C     0.28182   0.86211   0.07645   0.00000  Uiso   1.00
C358   C     0.11991   0.80663   0.40078   0.00000  Uiso   1.00
C359   C     0.17968   0.98750   0.26802   0.00000  Uiso   1.00
C360   C     0.13422   0.82419   0.34650   0.00000  Uiso   1.00
C361   C     0.14866   0.67827   0.24228   0.00000  Uiso   1.00
C362   C     0.15273   0.73360   0.24763   0.00000  Uiso   1.00
C363   C     0.20002   0.83960   0.15362   0.00000  Uiso   1.00
C364   C     0.29850   0.86682   0.02416   0.00000  Uiso   1.00
C365   C     0.21937   0.84716   0.09902   0.00000  Uiso   1.00
C366   C     0.06710   0.76925   0.41885   0.00000  Uiso   1.00
C367   C     0.05102   0.75519   0.47006   0.00000  Uiso   1.00
C368   C     0.08900   0.77778   0.00405   0.00000  Uiso   1.00
Cu369  Cu    0.10710   0.82772   0.24435   0.00000  Uiso   1.00
Cu370  Cu    0.22623   0.83895   0.25564   0.00000  Uiso   1.00
H371   H     0.31749   0.87028   0.09906   0.00000  Uiso   1.00
H372   H     0.12334   0.99133   0.21437   0.00000  Uiso   1.00
H373   H     0.32958   0.79414   0.21130   0.00000  Uiso   1.00
H374   H     0.32141   0.85472   0.42577   0.00000  Uiso   1.00
H375   H     0.01371   0.87857   0.00706   0.00000  Uiso   1.00
H376   H     0.12606   0.83565   0.08691   0.00000  Uiso   1.00
N377   N     0.31574   0.84741   0.26416   0.00000  Uiso   1.00
N378   N     0.01759   0.81926   0.23584   0.00000  Uiso   1.00
O379   O     0.12797   0.90474   0.24633   0.00000  Uiso   1.00
O380   O     0.22858   0.91422   0.25586   0.00000  Uiso   1.00
O381   O     0.09181   0.82627   0.31840   0.00000  Uiso   1.00
O382   O     0.19242   0.83575   0.32793   0.00000  Uiso   1.00
O383   O     0.10476   0.75245   0.24414   0.00000  Uiso   1.00
O384   O     0.20536   0.76193   0.25367   0.00000  Uiso   1.00
O385   O     0.14092   0.83092   0.17207   0.00000  Uiso   1.00
O386   O     0.24152   0.84040   0.18160   0.00000  Uiso   1.00
Cl387  Cl    0.01076   0.89172   0.30731   0.00000  Uiso   1.00
Cl388  Cl    0.03652   0.72521   0.37566   0.00000  Uiso   1.00
Cl389  Cl    0.07098   0.74722   0.06408   0.00000  Uiso   1.00
O390   O     0.00605   0.71117   0.48461   0.00000  Uiso   1.00
C391   C     0.28114   0.72583   0.49806   0.00000  Uiso   1.00
H392   H     0.26973   0.74400   0.46556   0.00000  Uiso   1.00
H393   H     0.28006   0.75329   0.03092   0.00000  Uiso   1.00
C394   C     0.23164   0.67735   0.01305   0.00000  Uiso   1.00
H395   H     0.23110   0.98267   0.48075   0.00000  Uiso   1.00
H396   H     0.24113   0.99149   0.04582   0.00000  Uiso   1.00
H397   H     0.18550   0.68849   0.02374   0.00000  Uiso   1.00
Cl398  Cl    0.25962   0.78297   0.36698   0.00000  Uiso   1.00
O399   O     0.20047   0.67958   0.31003   0.00000  Uiso   1.00
C400   C     0.25098   0.99525   0.32254   0.00000  Uiso   1.00
H401   H     0.24081   0.95307   0.33147   0.00000  Uiso   1.00
H402   H     0.25817   0.67969   0.35933   0.00000  Uiso   1.00
C403   C     0.30985   0.67919   0.28258   0.00000  Uiso   1.00
H404   H     0.32098   0.72242   0.28119   0.00000  Uiso   1.00
H405   H     0.01580   0.99795   0.29225   0.00000  Uiso   1.00
H406   H     0.30431   0.99788   0.24420   0.00000  Uiso   1.00
C407   C     0.51222   0.93261   0.25650   0.00000  Uiso   1.00
C408   C     0.47963   0.81254   0.48577   0.00000  Uiso   1.00
C409   C     0.49852   0.81833   0.43253   0.00000  Uiso   1.00
C410   C     0.52362   0.83447   0.01656   0.00000  Uiso   1.00
C411   C     0.58680   0.85207   0.49410   0.00000  Uiso   1.00
C412   C     0.60570   0.84828   0.44228   0.00000  Uiso   1.00
C413   C     0.56320   0.82599   0.41298   0.00000  Uiso   1.00
C414   C     0.50738   0.83893   0.06902   0.00000  Uiso   1.00
C415   C     0.61515   0.86211   0.07645   0.00000  Uiso   1.00
C416   C     0.45324   0.80663   0.40078   0.00000  Uiso   1.00
C417   C     0.51301   0.98750   0.26802   0.00000  Uiso   1.00
C418   C     0.46755   0.82419   0.34650   0.00000  Uiso   1.00
C419   C     0.48200   0.67827   0.24228   0.00000  Uiso   1.00
C420   C     0.48606   0.73360   0.24763   0.00000  Uiso   1.00
C421   C     0.53335   0.83960   0.15362   0.00000  Uiso   1.00
C422   C     0.63183   0.86682   0.02416   0.00000  Uiso   1.00
C423   C     0.55271   0.84716   0.09902   0.00000  Uiso   1.00
C424   C     0.40043   0.76925   0.41885   0.00000  Uiso   1.00
C425   C     0.38435   0.75519   0.47006   0.00000  Uiso   1.00
C426   C     0.42233   0.77778   0.00405   0.00000  Uiso   1.00
Cu427  Cu    0.44043   0.82772   0.24435   0.00000  Uiso   1.00
Cu428  Cu    0.55957   0.83895   0.25564   0.00000  Uiso   1.00
H429   H     0.65083   0.87028   0.09906   0.00000  Uiso   1.00
H430   H     0.45667   0.99133   0.21437   0.00000  Uiso   1.00
H431   H     0.66292   0.79414   0.21130   0.00000  Uiso   1.00
H432   H     0.65474   0.85472   0.42577   0.00000  Uiso   1.00
H433   H     0.34705   0.87857   0.00706   0.00000  Uiso   1.00
H434   H     0.45939   0.83565   0.08691   0.00000  Uiso   1.00
N435   N     0.64908   0.84741   0.26416   0.00000  Uiso   1.00
N436   N     0.35092   0.81926   0.23584   0.00000  Uiso   1.00
O437   O     0.46131   0.90474   0.24633   0.00000  Uiso   1.00
O438   O     0.56191   0.91422   0.25586   0.00000  Uiso   1.00
O439   O     0.42515   0.82627   0.31840   0.00000  Uiso   1.00
O440   O     0.52575   0.83575   0.32793   0.00000  Uiso   1.00
O441   O     0.43809   0.75245   0.24414   0.00000  Uiso   1.00
O442   O     0.53869   0.76193   0.25367   0.00000  Uiso   1.00
O443   O     0.47425   0.83092   0.17207   0.00000  Uiso   1.00
O444   O     0.57485   0.84040   0.18160   0.00000  Uiso   1.00
Cl445  Cl    0.34409   0.89172   0.30731   0.00000  Uiso   1.00
Cl446  Cl    0.36986   0.72521   0.37566   0.00000  Uiso   1.00
Cl447  Cl    0.40432   0.74722   0.06408   0.00000  Uiso   1.00
O448   O     0.33939   0.71117   0.48461   0.00000  Uiso   1.00
C449   C     0.61448   0.72583   0.49806   0.00000  Uiso   1.00
H450   H     0.60306   0.74400   0.46556   0.00000  Uiso   1.00
H451   H     0.61339   0.75329   0.03092   0.00000  Uiso   1.00
C452   C     0.56497   0.67735   0.01305   0.00000  Uiso   1.00
H453   H     0.56444   0.98267   0.48075   0.00000  Uiso   1.00
H454   H     0.57447   0.99149   0.04582   0.00000  Uiso   1.00
H455   H     0.51883   0.68849   0.02374   0.00000  Uiso   1.00
Cl456  Cl    0.59295   0.78297   0.36698   0.00000  Uiso   1.00
O457   O     0.53380   0.67958   0.31003   0.00000  Uiso   1.00
C458   C     0.58431   0.99525   0.32254   0.00000  Uiso   1.00
H459   H     0.57414   0.95307   0.33147   0.00000  Uiso   1.00
H460   H     0.59150   0.67969   0.35933   0.00000  Uiso   1.00
C461   C     0.64318   0.67919   0.28258   0.00000  Uiso   1.00
H462   H     0.65431   0.72242   0.28119   0.00000  Uiso   1.00
H463   H     0.34913   0.99795   0.29225   0.00000  Uiso   1.00
H464   H     0.63764   0.99788   0.24420   0.00000  Uiso   1.00
C465   C     0.84555   0.93261   0.25650   0.00000  Uiso   1.00
C466   C     0.81297   0.81254   0.48577   0.00000  Uiso   1.00
C467   C     0.83185   0.81833   0.43253   0.00000  Uiso   1.00
C468   C     0.85695   0.83447   0.01656   0.00000  Uiso   1.00
C469   C     0.92014   0.85207   0.49410   0.00000  Uiso   1.00
C470   C     0.93903   0.84828   0.44228   0.00000  Uiso   1.00
C471   C     0.89654   0.82599   0.41298   0.00000  Uiso   1.00
C472   C     0.84071   0.83893   0.06902   0.00000  Uiso   1.00
C473   C     0.94848   0.86211   0.07645   0.00000  Uiso   1.00
C474   C     0.78657   0.80663   0.40078   0.00000  Uiso   1.00
C475   C     0.84635   0.98750   0.26802   0.00000  Uiso   1.00
C476   C     0.80089   0.82419   0.34650   0.00000  Uiso   1.00
C477   C     0.81533   0.67827   0.24228   0.00000  Uiso   1.00
C478   C     0.81939   0.73360   0.24763   0.00000  Uiso   1.00
C479   C     0.86669   0.83960   0.15362   0.00000  Uiso   1.00
C480   C     0.96517   0.86682   0.02416   0.00000  Uiso   1.00
C481   C     0.88604   0.84716   0.09902   0.00000  Uiso   1.00
C482   C     0.73377   0.76925   0.41885   0.00000  Uiso   1.00
C483   C     0.71769   0.75519   0.47006   0.00000  Uiso   1.00
C484   C     0.75566   0.77778   0.00405   0.00000  Uiso   1.00
Cu485  Cu    0.77377   0.82772   0.24435   0.00000  Uiso   1.00
Cu486  Cu    0.89290   0.83895   0.25564   0.00000  Uiso   1.00
H487   H     0.98416   0.87028   0.09906   0.00000  Uiso   1.00
H488   H     0.79000   0.99133   0.21437   0.00000  Uiso   1.00
H489   H     0.99625   0.79414   0.21130   0.00000  Uiso   1.00
H490   H     0.98807   0.85472   0.42577   0.00000  Uiso   1.00
H491   H     0.68038   0.87857   0.00706   0.00000  Uiso   1.00
H492   H     0.79273   0.83565   0.08691   0.00000  Uiso   1.00
N493   N     0.98241   0.84741   0.26416   0.00000  Uiso   1.00
N494   N     0.68426   0.81926   0.23584   0.00000  Uiso   1.00
O495   O     0.79464   0.90474   0.24633   0.00000  Uiso   1.00
O496   O     0.89524   0.91422   0.25586   0.00000  Uiso   1.00
O497   O     0.75848   0.82627   0.31840   0.00000  Uiso   1.00
O498   O     0.85908   0.83575   0.32793   0.00000  Uiso   1.00
O499   O     0.77142   0.75245   0.24414   0.00000  Uiso   1.00
O500   O     0.87203   0.76193   0.25367   0.00000  Uiso   1.00
O501   O     0.80758   0.83092   0.17207   0.00000  Uiso   1.00
O502   O     0.90819   0.84040   0.18160   0.00000  Uiso   1.00
Cl503  Cl    0.67743   0.89172   0.30731   0.00000  Uiso   1.00
Cl504  Cl    0.70319   0.72521   0.37566   0.00000  Uiso   1.00
Cl505  Cl    0.73765   0.74722   0.06408   0.00000  Uiso   1.00
O506   O     0.67272   0.71117   0.48461   0.00000  Uiso   1.00
C507   C     0.94781   0.72583   0.49806   0.00000  Uiso   1.00
H508   H     0.93640   0.74400   0.46556   0.00000  Uiso   1.00
H509   H     0.94672   0.75329   0.03092   0.00000  Uiso   1.00
C510   C     0.89831   0.67735   0.01305   0.00000  Uiso   1.00
H511   H     0.89777   0.98267   0.48075   0.00000  Uiso   1.00
H512   H     0.90780   0.99149   0.04582   0.00000  Uiso   1.00
H513   H     0.85217   0.68849   0.02374   0.00000  Uiso   1.00
Cl514  Cl    0.92629   0.78297   0.36698   0.00000  Uiso   1.00
O515   O     0.86714   0.67958   0.31003   0.00000  Uiso   1.00
C516   C     0.91764   0.99525   0.32254   0.00000  Uiso   1.00
H517   H     0.90748   0.95307   0.33147   0.00000  Uiso   1.00
H518   H     0.92483   0.67969   0.35933   0.00000  Uiso   1.00
C519   C     0.97651   0.67919   0.28258   0.00000  Uiso   1.00
H520   H     0.98764   0.72242   0.28119   0.00000  Uiso   1.00
H521   H     0.68246   0.99795   0.29225   0.00000  Uiso   1.00
H522   H     0.97097   0.99788   0.24420   0.00000  Uiso   1.00
C523   C     0.17888   0.26594   0.75650   0.00000  Uiso   1.00
C524   C     0.14630   0.14588   0.98577   0.00000  Uiso   1.00
C525   C     0.16518   0.15166   0.93253   0.00000  Uiso   1.00
C526   C     0.19029   0.16780   0.51656   0.00000  Uiso   1.00
C527   C     0.25347   0.18541   0.99410   0.00000  Uiso   1.00
C528   C     0.27236   0.18161   0.94228   0.00000  Uiso   1.00
C529   C     0.22987   0.15932   0.91298   0.00000  Uiso   1.00
C530   C     0.17405   0.17226   0.56902   0.00000  Uiso   1.00
C531   C     0.28182   0.19544   0.57645   0.00000  Uiso   1.00
C532   C     0.11991   0.13996   0.90078   0.00000  Uiso   1.00
C533   C     0.17968   0.32084   0.76802   0.00000  Uiso   1.00
C534   C     0.13422   0.15752   0.84650   0.00000  Uiso   1.00
C535   C     0.14866   0.01160   0.74228   0.00000  Uiso   1.00
C536   C     0.15273   0.06693   0.74763   0.00000  Uiso   1.00
C537   C     0.20002   0.17294   0.65362   0.00000  Uiso   1.00
C538   C     0.29850   0.20015   0.52416   0.00000  Uiso   1.00
C539   C     0.21937   0.18049   0.59902   0.00000  Uiso   1.00
C540   C     0.06710   0.10258   0.91885   0.00000  Uiso   1.00
C541   C     0.05102   0.08852   0.97006   0.00000  Uiso   1.00
C542   C     0.08900   0.11111   0.50405   0.00000  Uiso   1.00
Cu543  Cu    0.10710   0.16105   0.74435   0.00000  Uiso   1.00
Cu544  Cu    0.22623   0.17228   0.75564   0.00000  Uiso   1.00
H545   H     0.31749   0.20361   0.59906   0.00000  Uiso   1.00
H546   H     0.12334   0.32466   0.71437   0.00000  Uiso   1.00
H547   H     0.32958   0.12747   0.71130   0.00000  Uiso   1.00
H548   H     0.32141   0.18805   0.92577   0.00000  Uiso   1.00
H549   H     0.01371   0.21190   0.50706   0.00000  Uiso   1.00
H550   H     0.12606   0.16898   0.58691   0.00000  Uiso   1.00
N551   N     0.31574   0.18074   0.76416   0.00000  Uiso   1.00
N552   N     0.01759   0.15259   0.73584   0.00000  Uiso   1.00
O553   O     0.12797   0.23807   0.74633   0.00000  Uiso   1.00
O554   O     0.22858   0.24755   0.75586   0.00000  Uiso   1.00
O555   O     0.09181   0.15960   0.81840   0.00000  Uiso   1.00
O556   O     0.19242   0.16908   0.82793   0.00000  Uiso   1.00
O557   O     0.10476   0.08578   0.74414   0.00000  Uiso   1.00
O558   O     0.20536   0.09526   0.75367   0.00000  Uiso   1.00
O559   O     0.14092   0.16425   0.67207   0.00000  Uiso   1.00
O560   O     0.24152   0.17373   0.68160   0.00000  Uiso   1.00
Cl561  Cl    0.01076   0.22505   0.80731   0.00000  Uiso   1.00
Cl562  Cl    0.03652   0.05855   0.87566   0.00000  Uiso   1.00
Cl563  Cl    0.07098   0.08055   0.56408   0.00000  Uiso   1.00
O564   O     0.00605   0.04450   0.98461   0.00000  Uiso   1.00
C565   C     0.28114   0.05916   0.99806   0.00000  Uiso   1.00
H566   H     0.26973   0.07734   0.96556   0.00000  Uiso   1.00
H567   H     0.28006   0.08663   0.53092   0.00000  Uiso   1.00
C568   C     0.23164   0.01069   0.51305   0.00000  Uiso   1.00
H569   H     0.23110   0.31600   0.98075   0.00000  Uiso   1.00
H570   H     0.24113   0.32482   0.54582   0.00000  Uiso   1.00
H571   H     0.18550   0.02182   0.52374   0.00000  Uiso   1.00
Cl572  Cl    0.25962   0.11631   0.86698   0.00000  Uiso   1.00
O573   O     0.20047   0.01292   0.81003   0.00000  Uiso   1.00
C574   C     0.25098   0.32858   0.82254   0.00000  Uiso   1.00
H575   H     0.24081   0.28641   0.83147   0.00000  Uiso   1.00
H576   H     0.25817   0.01302   0.85933   0.00000  Uiso   1.00
C577   C     0.30985   0.01252   0.78258   0.00000  Uiso   1.00
H578   H     0.32098   0.05575   0.78119   0.00000  Uiso   1.00
H579   H     0.01580   0.33128   0.79225   0.00000  Uiso   1.00
H580   H     0.30431   0.33121   0.74420   0.00000  Uiso   1.00
C581   C     0.51222   0.26594   0.75650   0.00000  Uiso   1.00
C582   C     0.47963   0.14588   0.98577   0.00000  Uiso   1.00
C583   C     0.49852   0.15166   0.93253   0.00000  Uiso   1.00
C584   C     0.52362   0.16780   0.51656   0.00000  Uiso   1.00
C585   C     0.58680   0.18541   0.99410   0.00000  Uiso   1.00
C586   C     0.60570   0.18161   0.94228   0.00000  Uiso   1.00
C587   C     0.56320   0.15932   0.91298   0.00000  Uiso   1.00
C588   C     0.50738   0.17226   0.56902   0.00000  Uiso   1.00
C589   C     0.61515   0.19544   0.57645   0.00000  Uiso   1.00
C590   C     0.45324   0.13996   0.90078   0.00000  Uiso   1.00
C591   C     0.51301   0.32084   0.76802   0.00000  Uiso   1.00
C592   C     0.46755   0.15752   0.84650   0.00000  Uiso   1.00
C593   C     0.48200   0.01160   0.74228   0.00000  Uiso   1.00
C594   C     0.48606   0.06693   0.74763   0.00000  Uiso   1.00
C595   C     0.53335   0.17294   0.65362   0.00000  Uiso   1.00
C596   C     0.63183   0.20015   0.52416   0.00000  Uiso   1.00
C597   C     0.55271   0.18049   0.59902   0.00000  Uiso   1.00
C598   C     0.40043   0.10258   0.91885   0.00000  Uiso   1.00
C599   C     0.38435   0.08852   0.97006   0.00000  Uiso   1.00
C600   C     0.42233   0.11111   0.50405   0.00000  Uiso   1.00
Cu601  Cu    0.44043   0.16105   0.74435   0.00000  Uiso   1.00
Cu602  Cu    0.55957   0.17228   0.75564   0.00000  Uiso   1.00
H603   H     0.65083   0.20361   0.59906   0.00000  Uiso   1.00
H604   H     0.45667   0.32466   0.71437   0.00000  Uiso   1.00
H605   H     0.66292   0.12747   0.71130   0.00000  Uiso   1.00
H606   H     0.65474   0.18805   0.92577   0.00000  Uiso   1.00
H607   H     0.34705   0.21190   0.50706   0.00000  Uiso   1.00
H608   H     0.45939   0.16898   0.58691   0.00000  Uiso   1.00
N609   N     0.64908   0.18074   0.76416   0.00000  Uiso   1.00
N610   N     0.35092   0.15259   0.73584   0.00000  Uiso   1.00
O611   O     0.46131   0.23807   0.74633   0.00000  Uiso   1.00
O612   O     0.56191   0.24755   0.75586   0.00000  Uiso   1.00
O613   O     0.42515   0.15960   0.81840   0.00000  Uiso   1.00
O614   O     0.52575   0.16908   0.82793   0.00000  Uiso   1.00
O615   O     0.43809   0.08578   0.74414   0.00000  Uiso   1.00
O616   O     0.53869   0.09526   0.75367   0.00000  Uiso   1.00
O617   O     0.47425   0.16425   0.67207   0.00000  Uiso   1.00
O618   O     0.57485   0.17373   0.68160   0.00000  Uiso   1.00
Cl619  Cl    0.34409   0.22505   0.80731   0.00000  Uiso   1.00
Cl620  Cl    0.36986   0.05855   0.87566   0.00000  Uiso   1.00
Cl621  Cl    0.40432   0.08055   0.56408   0.00000  Uiso   1.00
O622   O     0.33939   0.04450   0.98461   0.00000  Uiso   1.00
C623   C     0.61448   0.05916   0.99806   0.00000  Uiso   1.00
H624   H     0.60306   0.07734   0.96556   0.00000  Uiso   1.00
H625   H     0.61339   0.08663   0.53092   0.00000  Uiso   1.00
C626   C     0.56497   0.01069   0.51305   0.00000  Uiso   1.00
H627   H     0.56444   0.31600   0.98075   0.00000  Uiso   1.00
H628   H     0.57447   0.32482   0.54582   0.00000  Uiso   1.00
H629   H     0.51883   0.02182   0.52374   0.00000  Uiso   1.00
Cl630  Cl    0.59295   0.11631   0.86698   0.00000  Uiso   1.00
O631   O     0.53380   0.01292   0.81003   0.00000  Uiso   1.00
C632   C     0.58431   0.32858   0.82254   0.00000  Uiso   1.00
H633   H     0.57414   0.28641   0.83147   0.00000  Uiso   1.00
H634   H     0.59150   0.01302   0.85933   0.00000  Uiso   1.00
C635   C     0.64318   0.01252   0.78258   0.00000  Uiso   1.00
H636   H     0.65431   0.05575   0.78119   0.00000  Uiso   1.00
H637   H     0.34913   0.33128   0.79225   0.00000  Uiso   1.00
H638   H     0.63764   0.33121   0.74420   0.00000  Uiso   1.00
C639   C     0.84555   0.26594   0.75650   0.00000  Uiso   1.00
C640   C     0.81297   0.14588   0.98577   0.00000  Uiso   1.00
C641   C     0.83185   0.15166   0.93253   0.00000  Uiso   1.00
C642   C     0.85695   0.16780   0.51656   0.00000  Uiso   1.00
C643   C     0.92014   0.18541   0.99410   0.00000  Uiso   1.00
C644   C     0.93903   0.18161   0.94228   0.00000  Uiso   1.00
C645   C     0.89654   0.15932   0.91298   0.00000  Uiso   1.00
C646   C     0.84071   0.17226   0.56902   0.00000  Uiso   1.00
C647   C     0.94848   0.19544   0.57645   0.00000  Uiso   1.00
C648   C     0.78657   0.13996   0.90078   0.00000  Uiso   1.00
C649   C     0.84635   0.32084   0.76802   0.00000  Uiso   1.00
C650   C     0.80089   0.15752   0.84650   0.00000  Uiso   1.00
C651   C     0.81533   0.01160   0.74228   0.00000  Uiso   1.00
C652   C     0.81939   0.06693   0.74763   0.00000  Uiso   1.00
C653   C     0.86669   0.17294   0.65362   0.00000  Uiso   1.00
C654   C     0.96517   0.20015   0.52416   0.00000  Uiso   1.00
C655   C     0.88604   0.18049   0.59902   0.00000  Uiso   1.00
C656   C     0.73377   0.10258   0.91885   0.00000  Uiso   1.00
C657   C     0.71769   0.08852   0.97006   0.00000  Uiso   1.00
C658   C     0.75566   0.11111   0.50405   0.00000  Uiso   1.00
Cu659  Cu    0.77377   0.16105   0.74435   0.00000  Uiso   1.00
Cu660  Cu    0.89290   0.17228   0.75564   0.00000  Uiso   1.00
H661   H     0.98416   0.20361   0.59906   0.00000  Uiso   1.00
H662   H     0.79000   0.32466   0.71437   0.00000  Uiso   1.00
H663   H     0.99625   0.12747   0.71130   0.00000  Uiso   1.00
H664   H     0.98807   0.18805   0.92577   0.00000  Uiso   1.00
H665   H     0.68038   0.21190   0.50706   0.00000  Uiso   1.00
H666   H     0.79273   0.16898   0.58691   0.00000  Uiso   1.00
N667   N     0.98241   0.18074   0.76416   0.00000  Uiso   1.00
N668   N     0.68426   0.15259   0.73584   0.00000  Uiso   1.00
O669   O     0.79464   0.23807   0.74633   0.00000  Uiso   1.00
O670   O     0.89524   0.24755   0.75586   0.00000  Uiso   1.00
O671   O     0.75848   0.15960   0.81840   0.00000  Uiso   1.00
O672   O     0.85908   0.16908   0.82793   0.00000  Uiso   1.00
O673   O     0.77142   0.08578   0.74414   0.00000  Uiso   1.00
O674   O     0.87203   0.09526   0.75367   0.00000  Uiso   1.00
O675   O     0.80758   0.16425   0.67207   0.00000  Uiso   1.00
O676   O     0.90819   0.17373   0.68160   0.00000  Uiso   1.00
Cl677  Cl    0.67743   0.22505   0.80731   0.00000  Uiso   1.00
Cl678  Cl    0.70319   0.05855   0.87566   0.00000  Uiso   1.00
Cl679  Cl    0.73765   0.08055   0.56408   0.00000  Uiso   1.00
O680   O     0.67272   0.04450   0.98461   0.00000  Uiso   1.00
C681   C     0.94781   0.05916   0.99806   0.00000  Uiso   1.00
H682   H     0.93640   0.07734   0.96556   0.00000  Uiso   1.00
H683   H     0.94672   0.08663   0.53092   0.00000  Uiso   1.00
C684   C     0.89831   0.01069   0.51305   0.00000  Uiso   1.00
H685   H     0.89777   0.31600   0.98075   0.00000  Uiso   1.00
H686   H     0.90780   0.32482   0.54582   0.00000  Uiso   1.00
H687   H     0.85217   0.02182   0.52374   0.00000  Uiso   1.00
Cl688  Cl    0.92629   0.11631   0.86698   0.00000  Uiso   1.00
O689   O     0.86714   0.01292   0.81003   0.00000  Uiso   1.00
C690   C     0.91764   0.32858   0.82254   0.00000  Uiso   1.00
H691   H     0.90748   0.28641   0.83147   0.00000  Uiso   1.00
H692   H     0.92483   0.01302   0.85933   0.00000  Uiso   1.00
C693   C     0.97651   0.01252   0.78258   0.00000  Uiso   1.00
H694   H     0.98764   0.05575   0.78119   0.00000  Uiso   1.00
H695   H     0.68246   0.33128   0.79225   0.00000  Uiso   1.00
H696   H     0.97097   0.33121   0.74420   0.00000  Uiso   1.00
C697   C     0.17888   0.59928   0.75650   0.00000  Uiso   1.00
C698   C     0.14630   0.47921   0.98577   0.00000  Uiso   1.00
C699   C     0.16518   0.48499   0.93253   0.00000  Uiso   1.00
C700   C     0.19029   0.50113   0.51656   0.00000  Uiso   1.00
C701   C     0.25347   0.51874   0.99410   0.00000  Uiso   1.00
C702   C     0.27236   0.51495   0.94228   0.00000  Uiso   1.00
C703   C     0.22987   0.49266   0.91298   0.00000  Uiso   1.00
C704   C     0.17405   0.50559   0.56902   0.00000  Uiso   1.00
C705   C     0.28182   0.52877   0.57645   0.00000  Uiso   1.00
C706   C     0.11991   0.47329   0.90078   0.00000  Uiso   1.00
C707   C     0.17968   0.65417   0.76802   0.00000  Uiso   1.00
C708   C     0.13422   0.49085   0.84650   0.00000  Uiso   1.00
C709   C     0.14866   0.34493   0.74228   0.00000  Uiso   1.00
C710   C     0.15273   0.40027   0.74763   0.00000  Uiso   1.00
C711   C     0.20002   0.50627   0.65362   0.00000  Uiso   1.00
C712   C     0.29850   0.53348   0.52416   0.00000  Uiso   1.00
C713   C     0.21937   0.51382   0.59902   0.00000  Uiso   1.00
C714   C     0.06710   0.43591   0.91885   0.00000  Uiso   1.00
C715   C     0.05102   0.42185   0.97006   0.00000  Uiso   1.00
C716   C     0.08900   0.44444   0.50405   0.00000  Uiso   1.00
Cu717  Cu    0.10710   0.49439   0.74435   0.00000  Uiso   1.00
Cu718  Cu    0.22623   0.50561   0.75564   0.00000  Uiso   1.00
H719   H     0.31749   0.53694   0.59906   0.00000  Uiso   1.00
H720   H     0.12334   0.65799   0.71437   0.00000  Uiso   1.00
H721   H     0.32958   0.46080   0.71130   0.00000  Uiso   1.00
H722   H     0.32141   0.52139   0.92577   0.00000  Uiso   1.00
H723   H     0.01371   0.54523   0.50706   0.00000  Uiso   1.00
H724   H     0.12606   0.50232   0.58691   0.00000  Uiso   1.00
N725   N     0.31574   0.51407   0.76416   0.00000  Uiso   1.00
N726   N     0.01759   0.48593   0.73584   0.00000  Uiso   1.00
O727   O     0.12797   0.57141   0.74633   0.00000  Uiso   1.00
O728   O     0.22858   0.58089   0.75586   0.00000  Uiso   1.00
O729   O     0.09181   0.49293   0.81840   0.00000  Uiso   1.00
O730   O     0.19242   0.50241   0.82793   0.00000  Uiso   1.00
O731   O     0.10476   0.41911   0.74414   0.00000  Uiso   1.00
O732   O     0.20536   0.42859   0.75367   0.00000  Uiso   1.00
O733   O     0.14092   0.49759   0.67207   0.00000  Uiso   1.00
O734   O     0.24152   0.50707   0.68160   0.00000  Uiso   1.00
Cl735  Cl    0.01076   0.55838   0.80731   0.00000  Uiso   1.00
Cl736  Cl    0.03652   0.39188   0.87566   0.00000  Uiso   1.00
Cl737  Cl    0.07098   0.41388   0.56408   0.00000  Uiso   1.00
O738   O     0.00605   0.37783   0.98461   0.00000  Uiso   1.00
C739   C     0.28114   0.39249   0.99806   0.00000  Uiso   1.00
H740   H     0.26973   0.41067   0.96556   0.00000  Uiso   1.00
H741   H     0.28006   0.41996   0.53092   0.00000  Uiso   1.00
C742   C     0.23164   0.34402   0.51305   0.00000  Uiso   1.00
H743   H     0.23110   0.64934   0.98075   0.00000  Uiso   1.00
H744   H     0.24113   0.65815   0.54582   0.00000  Uiso   1.00
H745   H     0.18550   0.35515   0.52374   0.00000  Uiso   1.00
Cl746  Cl    0.25962   0.44964   0.86698   0.00000  Uiso   1.00
O747   O     0.20047   0.34625   0.81003   0.00000  Uiso   1.00
C748   C     0.25098   0.66191   0.82254   0.00000  Uiso   1.00
H749   H     0.24081   0.61974   0.83147   0.00000  Uiso   1.00
H750   H     0.25817   0.34636   0.85933   0.00000  Uiso   1.00
C751   C     0.30985   0.34586   0.78258   0.00000  Uiso   1.00
H752   H     0.32098   0.38908   0.78119   0.00000  Uiso   1.00
H753   H     0.01580   0.66462   0.79225   0.00000  Uiso   1.00
H754   H     0.30431   0.66454   0.74420   0.00000  Uiso   1.00
C755   C     0.51222   0.59928   0.75650   0.00000  Uiso   1.00
C756   C     0.47963   0.47921   0.98577   0.00000  Uiso   1.00
C757   C     0.49852   0.48499   0.93253   0.00000  Uiso   1.00
C758   C     0.52362   0.50113   0.51656   0.00000  Uiso   1.00
C759   C     0.58680   0.51874   0.99410   0.00000  Uiso   1.00
C760   C     0.60570   0.51495   0.94228   0.00000  Uiso   1.00
C761   C     0.56320   0.49266   0.91298   0.00000  Uiso   1.00
C762   C     0.50738   0.50559   0.56902   0.00000  Uiso   1.00
C763   C     0.61515   0.52877   0.57645   0.00000  Uiso   1.00
C764   C     0.45324   0.47329   0.90078   0.00000  Uiso   1.00
C765   C     0.51301   0.65417   0.76802   0.00000  Uiso   1.00
C766   C     0.46755   0.49085   0.84650   0.00000  Uiso   1.00
C767   C     0.48200   0.34493   0.74228   0.00000  Uiso   1.00
C768   C     0.48606   0.40027   0.74763   0.00000  Uiso   1.00
C769   C     0.53335   0.50627   0.65362   0.00000  Uiso   1.00
C770   C     0.63183   0.53348   0.52416   0.00000  Uiso   1.00
C771   C     0.55271   0.51382   0.59902   0.00000  Uiso   1.00
C772   C     0.40043   0.43591   0.91885   0.00000  Uiso   1.00
C773   C     0.38435   0.42185   0.97006   0.00000  Uiso   1.00
C774   C     0.42233   0.44444   0.50405   0.00000  Uiso   1.00
Cu775  Cu    0.44043   0.49439   0.74435   0.00000  Uiso   1.00
Cu776  Cu    0.55957   0.50561   0.75564   0.00000  Uiso   1.00
H777   H     0.65083   0.53694   0.59906   0.00000  Uiso   1.00
H778   H     0.45667   0.65799   0.71437   0.00000  Uiso   1.00
H779   H     0.66292   0.46080   0.71130   0.00000  Uiso   1.00
H780   H     0.65474   0.52139   0.92577   0.00000  Uiso   1.00
H781   H     0.34705   0.54523   0.50706   0.00000  Uiso   1.00
H782   H     0.45939   0.50232   0.58691   0.00000  Uiso   1.00
N783   N     0.64908   0.51407   0.76416   0.00000  Uiso   1.00
N784   N     0.35092   0.48593   0.73584   0.00000  Uiso   1.00
O785   O     0.46131   0.57141   0.74633   0.00000  Uiso   1.00
O786   O     0.56191   0.58089   0.75586   0.00000  Uiso   1.00
O787   O     0.42515   0.49293   0.81840   0.00000  Uiso   1.00
O788   O     0.52575   0.50241   0.82793   0.00000  Uiso   1.00
O789   O     0.43809   0.41911   0.74414   0.00000  Uiso   1.00
O790   O     0.53869   0.42859   0.75367   0.00000  Uiso   1.00
O791   O     0.47425   0.49759   0.67207   0.00000  Uiso   1.00
O792   O     0.57485   0.50707   0.68160   0.00000  Uiso   1.00
Cl793  Cl    0.34409   0.55838   0.80731   0.00000  Uiso   1.00
Cl794  Cl    0.36986   0.39188   0.87566   0.00000  Uiso   1.00
Cl795  Cl    0.40432   0.41388   0.56408   0.00000  Uiso   1.00
O796   O     0.33939   0.37783   0.98461   0.00000  Uiso   1.00
C797   C     0.61448   0.39249   0.99806   0.00000  Uiso   1.00
H798   H     0.60306   0.41067   0.96556   0.00000  Uiso   1.00
H799   H     0.61339   0.41996   0.53092   0.00000  Uiso   1.00
C800   C     0.56497   0.34402   0.51305   0.00000  Uiso   1.00
H801   H     0.56444   0.64934   0.98075   0.00000  Uiso   1.00
H802   H     0.57447   0.65815   0.54582   0.00000  Uiso   1.00
H803   H     0.51883   0.35515   0.52374   0.00000  Uiso   1.00
Cl804  Cl    0.59295   0.44964   0.86698   0.00000  Uiso   1.00
O805   O     0.53380   0.34625   0.81003   0.00000  Uiso   1.00
C806   C     0.58431   0.66191   0.82254   0.00000  Uiso   1.00
H807   H     0.57414   0.61974   0.83147   0.00000  Uiso   1.00
H808   H     0.59150   0.34636   0.85933   0.00000  Uiso   1.00
C809   C     0.64318   0.34586   0.78258   0.00000  Uiso   1.00
H810   H     0.65431   0.38908   0.78119   0.00000  Uiso   1.00
H811   H     0.34913   0.66462   0.79225   0.00000  Uiso   1.00
H812   H     0.63764   0.66454   0.74420   0.00000  Uiso   1.00
C813   C     0.84555   0.59928   0.75650   0.00000  Uiso   1.00
C814   C     0.81297   0.47921   0.98577   0.00000  Uiso   1.00
C815   C     0.83185   0.48499   0.93253   0.00000  Uiso   1.00
C816   C     0.85695   0.50113   0.51656   0.00000  Uiso   1.00
C817   C     0.92014   0.51874   0.99410   0.00000  Uiso   1.00
C818   C     0.93903   0.51495   0.94228   0.00000  Uiso   1.00
C819   C     0.89654   0.49266   0.91298   0.00000  Uiso   1.00
C820   C     0.84071   0.50559   0.56902   0.00000  Uiso   1.00
C821   C     0.94848   0.52877   0.57645   0.00000  Uiso   1.00
C822   C     0.78657   0.47329   0.90078   0.00000  Uiso   1.00
C823   C     0.84635   0.65417   0.76802   0.00000  Uiso   1.00
C824   C     0.80089   0.49085   0.84650   0.00000  Uiso   1.00
C825   C     0.81533   0.34493   0.74228   0.00000  Uiso   1.00
C826   C     0.81939   0.40027   0.74763   0.00000  Uiso   1.00
C827   C     0.86669   0.50627   0.65362   0.00000  Uiso   1.00
C828   C     0.96517   0.53348   0.52416   0.00000  Uiso   1.00
C829   C     0.88604   0.51382   0.59902   0.00000  Uiso   1.00
C830   C     0.73377   0.43591   0.91885   0.00000  Uiso   1.00
C831   C     0.71769   0.42185   0.97006   0.00000  Uiso   1.00
C832   C     0.75566   0.44444   0.50405   0.00000  Uiso   1.00
Cu833  Cu    0.77377   0.49439   0.74435   0.00000  Uiso   1.00
Cu834  Cu    0.89290   0.50561   0.75564   0.00000  Uiso   1.00
H835   H     0.98416   0.53694   0.59906   0.00000  Uiso   1.00
H836   H     0.79000   0.65799   0.71437   0.00000  Uiso   1.00
H837   H     0.99625   0.46080   0.71130   0.00000  Uiso   1.00
H838   H     0.98807   0.52139   0.92577   0.00000  Uiso   1.00
H839   H     0.68038   0.54523   0.50706   0.00000  Uiso   1.00
H840   H     0.79273   0.50232   0.58691   0.00000  Uiso   1.00
N841   N     0.98241   0.51407   0.76416   0.00000  Uiso   1.00
N842   N     0.68426   0.48593   0.73584   0.00000  Uiso   1.00
O843   O     0.79464   0.57141   0.74633   0.00000  Uiso   1.00
O844   O     0.89524   0.58089   0.75586   0.00000  Uiso   1.00
O845   O     0.75848   0.49293   0.81840   0.00000  Uiso   1.00
O846   O     0.85908   0.50241   0.82793   0.00000  Uiso   1.00
O847   O     0.77142   0.41911   0.74414   0.00000  Uiso   1.00
O848   O     0.87203   0.42859   0.75367   0.00000  Uiso   1.00
O849   O     0.80758   0.49759   0.67207   0.00000  Uiso   1.00
O850   O     0.90819   0.50707   0.68160   0.00000  Uiso   1.00
Cl851  Cl    0.67743   0.55838   0.80731   0.00000  Uiso   1.00
Cl852  Cl    0.70319   0.39188   0.87566   0.00000  Uiso   1.00
Cl853  Cl    0.73765   0.41388   0.56408   0.00000  Uiso   1.00
O854   O     0.67272   0.37783   0.98461   0.00000  Uiso   1.00
C855   C     0.94781   0.39249   0.99806   0.00000  Uiso   1.00
H856   H     0.93640   0.41067   0.96556   0.00000  Uiso   1.00
H857   H     0.94672   0.41996   0.53092   0.00000  Uiso   1.00
C858   C     0.89831   0.34402   0.51305   0.00000  Uiso   1.00
H859   H     0.89777   0.64934   0.98075   0.00000  Uiso   1.00
H860   H     0.90780   0.65815   0.54582   0.00000  Uiso   1.00
H861   H     0.85217   0.35515   0.52374   0.00000  Uiso   1.00
Cl862  Cl    0.92629   0.44964   0.86698   0.00000  Uiso   1.00
O863   O     0.86714   0.34625   0.81003   0.00000  Uiso   1.00
C864   C     0.91764   0.66191   0.82254   0.00000  Uiso   1.00
H865   H     0.90748   0.61974   0.83147   0.00000  Uiso   1.00
H866   H     0.92483   0.34636   0.85933   0.00000  Uiso   1.00
C867   C     0.97651   0.34586   0.78258   0.00000  Uiso   1.00
H868   H     0.98764   0.38908   0.78119   0.00000  Uiso   1.00
H869   H     0.68246   0.66462   0.79225   0.00000  Uiso   1.00
H870   H     0.97097   0.66454   0.74420   0.00000  Uiso   1.00
C871   C     0.17888   0.93261   0.75650   0.00000  Uiso   1.00
C872   C     0.14630   0.81254   0.98577   0.00000  Uiso   1.00
C873   C     0.16518   0.81833   0.93253   0.00000  Uiso   1.00
C874   C     0.19029   0.83447   0.51656   0.00000  Uiso   1.00
C875   C     0.25347   0.85207   0.99410   0.00000  Uiso   1.00
C876   C     0.27236   0.84828   0.94228   0.00000  Uiso   1.00
C877   C     0.22987   0.82599   0.91298   0.00000  Uiso   1.00
C878   C     0.17405   0.83893   0.56902   0.00000  Uiso   1.00
C879   C     0.28182   0.86211   0.57645   0.00000  Uiso   1.00
C880   C     0.11991   0.80663   0.90078   0.00000  Uiso   1.00
C881   C     0.17968   0.98750   0.76802   0.00000  Uiso   1.00
C882   C     0.13422   0.82419   0.84650   0.00000  Uiso   1.00
C883   C     0.14866   0.67827   0.74228   0.00000  Uiso   1.00
C884   C     0.15273   0.73360   0.74763   0.00000  Uiso   1.00
C885   C     0.20002   0.83960   0.65362   0.00000  Uiso   1.00
C886   C     0.29850   0.86682   0.52416   0.00000  Uiso   1.00
C887   C     0.21937   0.84716   0.59902   0.00000  Uiso   1.00
C888   C     0.06710   0.76925   0.91885   0.00000  Uiso   1.00
C889   C     0.05102   0.75519   0.97006   0.00000  Uiso   1.00
C890   C     0.08900   0.77778   0.50405   0.00000  Uiso   1.00
Cu891  Cu    0.10710   0.82772   0.74435   0.00000  Uiso   1.00
Cu892  Cu    0.22623   0.83895   0.75564   0.00000  Uiso   1.00
H893   H     0.31749   0.87028   0.59906   0.00000  Uiso   1.00
H894   H     0.12334   0.99133   0.71437   0.00000  Uiso   1.00
H895   H     0.32958   0.79414   0.71130   0.00000  Uiso   1.00
H896   H     0.32141   0.85472   0.92577   0.00000  Uiso   1.00
H897   H     0.01371   0.87857   0.50706   0.00000  Uiso   1.00
H898   H     0.12606   0.83565   0.58691   0.00000  Uiso   1.00
N899   N     0.31574   0.84741   0.76416   0.00000  Uiso   1.00
N900   N     0.01759   0.81926   0.73584   0.00000  Uiso   1.00
O901   O     0.12797   0.90474   0.74633   0.00000  Uiso   1.00
O902   O     0.22858   0.91422   0.75586   0.00000  Uiso   1.00
O903   O     0.09181   0.82627   0.81840   0.00000  Uiso   1.00
O904   O     0.19242   0.83575   0.82793   0.00000  Uiso   1.00
O905   O     0.10476   0.75245   0.74414   0.00000  Uiso   1.00
O906   O     0.20536   0.76193   0.75367   0.00000  Uiso   1.00
O907   O     0.14092   0.83092   0.67207   0.00000  Uiso   1.00
O908   O     0.24152   0.84040   0.68160   0.00000  Uiso   1.00
Cl909  Cl    0.01076   0.89172   0.80731   0.00000  Uiso   1.00
Cl910  Cl    0.03652   0.72521   0.87566   0.00000  Uiso   1.00
Cl911  Cl    0.07098   0.74722   0.56408   0.00000  Uiso   1.00
O912   O     0.00605   0.71117   0.98461   0.00000  Uiso   1.00
C913   C     0.28114   0.72583   0.99806   0.00000  Uiso   1.00
H914   H     0.26973   0.74400   0.96556   0.00000  Uiso   1.00
H915   H     0.28006   0.75329   0.53092   0.00000  Uiso   1.00
C916   C     0.23164   0.67735   0.51305   0.00000  Uiso   1.00
H917   H     0.23110   0.98267   0.98075   0.00000  Uiso   1.00
H918   H     0.24113   0.99149   0.54582   0.00000  Uiso   1.00
H919   H     0.18550   0.68849   0.52374   0.00000  Uiso   1.00
Cl920  Cl    0.25962   0.78297   0.86698   0.00000  Uiso   1.00
O921   O     0.20047   0.67958   0.81003   0.00000  Uiso   1.00
C922   C     0.25098   0.99525   0.82254   0.00000  Uiso   1.00
H923   H     0.24081   0.95307   0.83147   0.00000  Uiso   1.00
H924   H     0.25817   0.67969   0.85933   0.00000  Uiso   1.00
C925   C     0.30985   0.67919   0.78258   0.00000  Uiso   1.00
H926   H     0.32098   0.72242   0.78119   0.00000  Uiso   1.00
H927   H     0.01580   0.99795   0.79225   0.00000  Uiso   1.00
H928   H     0.30431   0.99788   0.74420   0.00000  Uiso   1.00
C929   C     0.51222   0.93261   0.75650   0.00000  Uiso   1.00
C930   C     0.47963   0.81254   0.98577   0.00000  Uiso   1.00
C931   C     0.49852   0.81833   0.93253   0.00000  Uiso   1.00
C932   C     0.52362   0.83447   0.51656   0.00000  Uiso   1.00
C933   C     0.58680   0.85207   0.99410   0.00000  Uiso   1.00
C934   C     0.60570   0.84828   0.94228   0.00000  Uiso   1.00
C935   C     0.56320   0.82599   0.91298   0.00000  Uiso   1.00
C936   C     0.50738   0.83893   0.56902   0.00000  Uiso   1.00
C937   C     0.61515   0.86211   0.57645   0.00000  Uiso   1.00
C938   C     0.45324   0.80663   0.90078   0.00000  Uiso   1.00
C939   C     0.51301   0.98750   0.76802   0.00000  Uiso   1.00
C940   C     0.46755   0.82419   0.84650   0.00000  Uiso   1.00
C941   C     0.48200   0.67827   0.74228   0.00000  Uiso   1.00
C942   C     0.48606   0.73360   0.74763   0.00000  Uiso   1.00
C943   C     0.53335   0.83960   0.65362   0.00000  Uiso   1.00
C944   C     0.63183   0.86682   0.52416   0.00000  Uiso   1.00
C945   C     0.55271   0.84716   0.59902   0.00000  Uiso   1.00
C946   C     0.40043   0.76925   0.91885   0.00000  Uiso   1.00
C947   C     0.38435   0.75519   0.97006   0.00000  Uiso   1.00
C948   C     0.42233   0.77778   0.50405   0.00000  Uiso   1.00
Cu949  Cu    0.44043   0.82772   0.74435   0.00000  Uiso   1.00
Cu950  Cu    0.55957   0.83895   0.75564   0.00000  Uiso   1.00
H951   H     0.65083   0.87028   0.59906   0.00000  Uiso   1.00
H952   H     0.45667   0.99133   0.71437   0.00000  Uiso   1.00
H953   H     0.66292   0.79414   0.71130   0.00000  Uiso   1.00
H954   H     0.65474   0.85472   0.92577   0.00000  Uiso   1.00
H955   H     0.34705   0.87857   0.50706   0.00000  Uiso   1.00
H956   H     0.45939   0.83565   0.58691   0.00000  Uiso   1.00
N957   N     0.64908   0.84741   0.76416   0.00000  Uiso   1.00
N958   N     0.35092   0.81926   0.73584   0.00000  Uiso   1.00
O959   O     0.46131   0.90474   0.74633   0.00000  Uiso   1.00
O960   O     0.56191   0.91422   0.75586   0.00000  Uiso   1.00
O961   O     0.42515   0.82627   0.81840   0.00000  Uiso   1.00
O962   O     0.52575   0.83575   0.82793   0.00000  Uiso   1.00
O963   O     0.43809   0.75245   0.74414   0.00000  Uiso   1.00
O964   O     0.53869   0.76193   0.75367   0.00000  Uiso   1.00
O965   O     0.47425   0.83092   0.67207   0.00000  Uiso   1.00
O966   O     0.57485   0.84040   0.68160   0.00000  Uiso   1.00
Cl967  Cl    0.34409   0.89172   0.80731   0.00000  Uiso   1.00
Cl968  Cl    0.36986   0.72521   0.87566   0.00000  Uiso   1.00
Cl969  Cl    0.40432   0.74722   0.56408   0.00000  Uiso   1.00
O970   O     0.33939   0.71117   0.98461   0.00000  Uiso   1.00
C971   C     0.61448   0.72583   0.99806   0.00000  Uiso   1.00
H972   H     0.60306   0.74400   0.96556   0.00000  Uiso   1.00
H973   H     0.61339   0.75329   0.53092   0.00000  Uiso   1.00
C974   C     0.56497   0.67735   0.51305   0.00000  Uiso   1.00
H975   H     0.56444   0.98267   0.98075   0.00000  Uiso   1.00
H976   H     0.57447   0.99149   0.54582   0.00000  Uiso   1.00
H977   H     0.51883   0.68849   0.52374   0.00000  Uiso   1.00
Cl978  Cl    0.59295   0.78297   0.86698   0.00000  Uiso   1.00
O979   O     0.53380   0.67958   0.81003   0.00000  Uiso   1.00
C980   C     0.58431   0.99525   0.82254   0.00000  Uiso   1.00
H981   H     0.57414   0.95307   0.83147   0.00000  Uiso   1.00
H982   H     0.59150   0.67969   0.85933   0.00000  Uiso   1.00
C983   C     0.64318   0.67919   0.78258   0.00000  Uiso   1.00
H984   H     0.65431   0.72242   0.78119   0.00000  Uiso   1.00
H985   H     0.34913   0.99795   0.79225   0.00000  Uiso   1.00
H986   H     0.63764   0.99788   0.74420   0.00000  Uiso   1.00
C987   C     0.84555   0.93261   0.75650   0.00000  Uiso   1.00
C988   C     0.81297   0.81254   0.98577   0.00000  Uiso   1.00
C989   C     0.83185   0.81833   0.93253   0.00000  Uiso   1.00
C990   C     0.85695   0.83447   0.51656   0.00000  Uiso   1.00
C991   C     0.92014   0.85207   0.99410   0.00000  Uiso   1.00
C992   C     0.93903   0.84828   0.94228   0.00000  Uiso   1.00
C993   C     0.89654   0.82599   0.91298   0.00000  Uiso   1.00
C994   C     0.84071   0.83893   0.56902   0.00000  Uiso   1.00
C995   C     0.94848   0.86211   0.57645   0.00000  Uiso   1.00
C996   C     0.78657   0.80663   0.90078   0.00000  Uiso   1.00
C997   C     0.84635   0.98750   0.76802   0.00000  Uiso   1.00
C998   C     0.80089   0.82419   0.84650   0.00000  Uiso   1.00
C999   C     0.81533   0.67827   0.74228   0.00000  Uiso   1.00
C1000  C     0.81939   0.73360   0.74763   0.00000  Uiso   1.00
C1001  C     0.86669   0.83960   0.65362   0.00000  Uiso   1.00
C1002  C     0.96517   0.86682   0.52416   0.00000  Uiso   1.00
C1003  C     0.88604   0.84716   0.59902   0.00000  Uiso   1.00
C1004  C     0.73377   0.76925   0.91885   0.00000  Uiso   1.00
C1005  C     0.71769   0.75519   0.97006   0.00000  Uiso   1.00
C1006  C     0.75566   0.77778   0.50405   0.00000  Uiso   1.00
Cu1007 Cu    0.77377   0.82772   0.74435   0.00000  Uiso   1.00
Cu1008 Cu    0.89290   0.83895   0.75564   0.00000  Uiso   1.00
H1009  H     0.98416   0.87028   0.59906   0.00000  Uiso   1.00
H1010  H     0.79000   0.99133   0.71437   0.00000  Uiso   1.00
H1011  H     0.99625   0.79414   0.71130   0.00000  Uiso   1.00
H1012  H     0.98807   0.85472   0.92577   0.00000  Uiso   1.00
H1013  H     0.68038   0.87857   0.50706   0.00000  Uiso   1.00
H1014  H     0.79273   0.83565   0.58691   0.00000  Uiso   1.00
N1015  N     0.98241   0.84741   0.76416   0.00000  Uiso   1.00
N1016  N     0.68426   0.81926   0.73584   0.00000  Uiso   1.00
O1017  O     0.79464   0.90474   0.74633   0.00000  Uiso   1.00
O1018  O     0.89524   0.91422   0.75586   0.00000  Uiso   1.00
O1019  O     0.75848   0.82627   0.81840   0.00000  Uiso   1.00
O1020  O     0.85908   0.83575   0.82793   0.00000  Uiso   1.00
O1021  O     0.77142   0.75245   0.74414   0.00000  Uiso   1.00
O1022  O     0.87203   0.76193   0.75367   0.00000  Uiso   1.00
O1023  O     0.80758   0.83092   0.67207   0.00000  Uiso   1.00
O1024  O     0.90819   0.84040   0.68160   0.00000  Uiso   1.00
Cl1025 Cl    0.67743   0.89172   0.80731   0.00000  Uiso   1.00
Cl1026 Cl    0.70319   0.72521   0.87566   0.00000  Uiso   1.00
Cl1027 Cl    0.73765   0.74722   0.56408   0.00000  Uiso   1.00
O1028  O     0.67272   0.71117   0.98461   0.00000  Uiso   1.00
C1029  C     0.94781   0.72583   0.99806   0.00000  Uiso   1.00
H1030  H     0.93640   0.74400   0.96556   0.00000  Uiso   1.00
H1031  H     0.94672   0.75329   0.53092   0.00000  Uiso   1.00
C1032  C     0.89831   0.67735   0.51305   0.00000  Uiso   1.00
H1033  H     0.89777   0.98267   0.98075   0.00000  Uiso   1.00
H1034  H     0.90780   0.99149   0.54582   0.00000  Uiso   1.00
H1035  H     0.85217   0.68849   0.52374   0.00000  Uiso   1.00
Cl1036 Cl    0.92629   0.78297   0.86698   0.00000  Uiso   1.00
O1037  O     0.86714   0.67958   0.81003   0.00000  Uiso   1.00
C1038  C     0.91764   0.99525   0.82254   0.00000  Uiso   1.00
H1039  H     0.90748   0.95307   0.83147   0.00000  Uiso   1.00
H1040  H     0.92483   0.67969   0.85933   0.00000  Uiso   1.00
C1041  C     0.97651   0.67919   0.78258   0.00000  Uiso   1.00
H1042  H     0.98764   0.72242   0.78119   0.00000  Uiso   1.00
H1043  H     0.68246   0.99795   0.79225   0.00000  Uiso   1.00
H1044  H     0.97097   0.99788   0.74420   0.00000  Uiso   1.00
loop_
_geom_bond_atom_site_label_1
_geom_bond_atom_site_label_2
_geom_bond_distance
_geom_bond_site_symmetry_2
_ccdc_geom_bond_type
C1     C11     1.450   .     S
C1     O31     1.300   .     A
C1     O32     1.296   .     A
C2     C3      1.419   .     A
C2     C526    1.432   .     S
C2     C542    1.432   .     S
C3     C10     1.435   .     A
C3     C7      1.421   .     A
C4     C8      1.393   .     A
C4     C524    1.432   1_554 S
C4     C527    1.420   1_554 S
C5     C6      1.381   .     A
C5     C526    1.420   .     S
C5     C538    1.404   .     S
C6     H26     1.085   .     S
C6     C7      1.382   .     A
C7     Cl50    1.756   .     S
C8     H28     1.078   .     S
C8     C17     1.400   .     A
C9     C17     1.398   .     A
C9     C16     1.389   .     A
C9     H23     1.083   .     S
C10    C18     1.397   .     A
C10    C12     1.506   .     S
C11    C187    1.329   .     S
C11    O225    1.399   .     S
C12    O34     1.283   .     A
C12    O33     1.340   .     A
C13    C14     1.432   .     S
C13    C359    1.329   1_545 S
C13    H372    1.088   1_545 S
C14    O36     1.300   .     A
C14    O35     1.291   .     A
C15    O38     1.307   .     A
C15    C17     1.460   .     S
C15    O37     1.300   .     A
C16    C527    1.404   1_554 S
C16    H85     1.084   .     S
C18    C19     1.402   .     A
C18    Cl40    1.741   .     S
C19    O42     1.386   .     S
C19    C542    1.406   .     S
C20    Cl41    1.774   .     S
C20    C524    1.432   1_554 S
C20    C541    1.406   1_554 S
Cu21   O35     1.956   .     S
Cu21   N30     2.036   .     S
Cu21   O31     1.974   .     S
Cu21   O37     1.944   .     S
Cu21   O33     1.957   .     S
Cu21   Cu22    2.709   .     S
Cu22   N29     2.036   .     S
Cu22   O32     1.956   .     S
Cu22   O36     1.974   .     S
Cu22   O34     1.944   .     S
Cu22   O38     1.957   .     S
H24    C187    1.088   .     S
H25    N88     1.029   .     S
H27    C132    1.084   1_455 S
N29    N88     1.298   .     S
N29    Cl97    1.725   .     S
N30    N145    1.298   1_455 S
N30    H141    1.029   1_455 S
Cl39   N145    1.725   1_455 S
O42    C159    1.409   1_455 S
C43    H44     1.111   .     S
C43    O100    1.409   .     S
C43    H567    1.113   .     S
C43    C568    1.521   .     S
H45    C565    1.113   1_554 S
C46    H49     1.111   .     S
C46    C565    1.521   1_554 S
C46    H917    1.111   1_544 S
C46    H396    1.111   1_545 S
H47    C742    1.111   .     S
H48    C220    1.111   .     S
O51    C359    1.399   1_545 S
O51    C400    1.409   1_545 S
C52    H53     1.107   .     S
C52    O225    1.409   .     S
C52    H228    1.103   .     S
C52    C229    1.534   .     S
H54    C400    1.103   1_545 S
C55    H56     1.108   .     S
C55    C400    1.534   1_545 S
C55    H463    1.106   1_545 S
C55    H406    1.108   1_545 S
H57    C345    1.106   1_455 S
H58    C229    1.108   .     S
C59    C69     1.450   .     S
C59    O89     1.300   .     A
C59    O90     1.296   .     A
C60    C61     1.419   .     A
C60    C584    1.432   .     S
C60    C600    1.432   .     S
C61    C68     1.435   .     A
C61    C65     1.421   .     A
C62    C66     1.393   .     A
C62    C582    1.432   1_554 S
C62    C585    1.420   1_554 S
C63    C64     1.381   .     A
C63    C584    1.420   .     S
C63    C596    1.404   .     S
C64    H84     1.085   .     S
C64    C65     1.382   .     A
C65    Cl108   1.756   .     S
C66    H86     1.078   .     S
C66    C75     1.400   .     A
C67    C75     1.398   .     A
C67    C74     1.389   .     A
C67    H81     1.083   .     S
C68    C76     1.397   .     A
C68    C70     1.506   .     S
C69    C245    1.329   .     S
C69    O283    1.399   .     S
C70    O92     1.283   .     A
C70    O91     1.340   .     A
C71    C72     1.432   .     S
C71    C417    1.329   1_545 S
C71    H430    1.088   1_545 S
C72    O94     1.300   .     A
C72    O93     1.291   .     A
C73    O96     1.307   .     A
C73    C75     1.460   .     S
C73    O95     1.300   .     A
C74    C585    1.404   1_554 S
C74    H143    1.084   .     S
C76    C77     1.402   .     A
C76    Cl98    1.741   .     S
C77    O100    1.386   .     S
C77    C600    1.406   .     S
C78    Cl99    1.774   .     S
C78    C582    1.432   1_554 S
C78    C599    1.406   1_554 S
Cu79   O93     1.956   .     S
Cu79   N88     2.036   .     S
Cu79   O89     1.974   .     S
Cu79   O95     1.944   .     S
Cu79   O91     1.957   .     S
Cu79   Cu80    2.709   .     S
Cu80   N87     2.036   .     S
Cu80   O90     1.956   .     S
Cu80   O94     1.974   .     S
Cu80   O92     1.944   .     S
Cu80   O96     1.957   .     S
H82    C245    1.088   .     S
H83    N146    1.029   .     S
N87    N146    1.298   .     S
N87    Cl155   1.725   .     S
C101   H102    1.111   .     S
C101   O158    1.409   .     S
C101   H625    1.113   .     S
C101   C626    1.521   .     S
H103   C623    1.113   1_554 S
C104   H107    1.111   .     S
C104   C623    1.521   1_554 S
C104   H975    1.111   1_544 S
C104   H454    1.111   1_545 S
H105   C800    1.111   .     S
H106   C278    1.111   .     S
O109   C417    1.399   1_545 S
O109   C458    1.409   1_545 S
C110   H111    1.107   .     S
C110   O283    1.409   .     S
C110   H286    1.103   .     S
C110   C287    1.534   .     S
H112   C458    1.103   1_545 S
C113   H114    1.108   .     S
C113   C458    1.534   1_545 S
C113   H521    1.106   1_545 S
C113   H464    1.108   1_545 S
H115   C229    1.106   .     S
H116   C287    1.108   .     S
C117   C127    1.450   .     S
C117   O147    1.300   .     A
C117   O148    1.296   .     A
C118   C119    1.419   .     A
C118   C642    1.432   .     S
C118   C658    1.432   .     S
C119   C126    1.435   .     A
C119   C123    1.421   .     A
C120   C124    1.393   .     A
C120   C640    1.432   1_554 S
C120   C643    1.420   1_554 S
C121   C122    1.381   .     A
C121   C642    1.420   .     S
C121   C654    1.404   .     S
C122   H142    1.085   .     S
C122   C123    1.382   .     A
C123   Cl166   1.756   .     S
C124   H144    1.078   .     S
C124   C133    1.400   .     A
C125   C133    1.398   .     A
C125   C132    1.389   .     A
C125   H139    1.083   .     S
C126   C134    1.397   .     A
C126   C128    1.506   .     S
C127   C303    1.329   .     S
C127   O341    1.399   .     S
C128   O150    1.283   .     A
C128   O149    1.340   .     A
C129   C130    1.432   .     S
C129   C475    1.329   1_545 S
C129   H488    1.088   1_545 S
C130   O152    1.300   .     A
C130   O151    1.291   .     A
C131   O154    1.307   .     A
C131   C133    1.460   .     S
C131   O153    1.300   .     A
C132   C643    1.404   1_554 S
C132   H27     1.084   1_655 S
C134   C135    1.402   .     A
C134   Cl156   1.741   .     S
C135   O158    1.386   .     S
C135   C658    1.406   .     S
C136   Cl157   1.774   .     S
C136   C640    1.432   1_554 S
C136   C657    1.406   1_554 S
Cu137  O151    1.956   .     S
Cu137  N146    2.036   .     S
Cu137  O147    1.974   .     S
Cu137  O153    1.944   .     S
Cu137  O149    1.957   .     S
Cu137  Cu138   2.709   .     S
Cu138  N145    2.036   .     S
Cu138  O148    1.956   .     S
Cu138  O152    1.974   .     S
Cu138  O150    1.944   .     S
Cu138  O154    1.957   .     S
H140   C303    1.088   .     S
H141   N30     1.029   1_655 S
N145   N30     1.298   1_655 S
N145   Cl39    1.725   1_655 S
C159   H160    1.111   .     S
C159   O42     1.409   1_655 S
C159   H683    1.113   .     S
C159   C684    1.521   .     S
H161   C681    1.113   1_554 S
C162   H165    1.111   .     S
C162   C681    1.521   1_554 S
C162   H1033   1.111   1_544 S
C162   H512    1.111   1_545 S
H163   C858    1.111   .     S
H164   C336    1.111   .     S
O167   C475    1.399   1_545 S
O167   C516    1.409   1_545 S
C168   H169    1.107   .     S
C168   O341    1.409   .     S
C168   H344    1.103   .     S
C168   C345    1.534   .     S
H170   C516    1.103   1_545 S
C171   H172    1.108   .     S
C171   C516    1.534   1_545 S
C171   H405    1.106   1_645 S
C171   H522    1.108   1_545 S
H173   C287    1.106   .     S
H174   C345    1.108   .     S
C175   C185    1.450   .     S
C175   O205    1.300   .     A
C175   O206    1.296   .     A
C176   C177    1.419   .     A
C176   C700    1.432   .     S
C176   C716    1.432   .     S
C177   C184    1.435   .     A
C177   C181    1.421   .     A
C178   C182    1.393   .     A
C178   C698    1.432   1_554 S
C178   C701    1.420   1_554 S
C179   C180    1.381   .     A
C179   C700    1.420   .     S
C179   C712    1.404   .     S
C180   H200    1.085   .     S
C180   C181    1.382   .     A
C181   Cl224   1.756   .     S
C182   H202    1.078   .     S
C182   C191    1.400   .     A
C183   C191    1.398   .     A
C183   C190    1.389   .     A
C183   H197    1.083   .     S
C184   C192    1.397   .     A
C184   C186    1.506   .     S
C185   C361    1.329   .     S
C185   O399    1.399   .     S
C186   O208    1.283   .     A
C186   O207    1.340   .     A
C187   C188    1.432   .     S
C188   O210    1.300   .     A
C188   O209    1.291   .     A
C189   O212    1.307   .     A
C189   C191    1.460   .     S
C189   O211    1.300   .     A
C190   C701    1.404   1_554 S
C190   H259    1.084   .     S
C192   C193    1.402   .     A
C192   Cl214   1.741   .     S
C193   O216    1.386   .     S
C193   C716    1.406   .     S
C194   Cl215   1.774   .     S
C194   C698    1.432   1_554 S
C194   C715    1.406   1_554 S
Cu195  O209    1.956   .     S
Cu195  N204    2.036   .     S
Cu195  O205    1.974   .     S
Cu195  O211    1.944   .     S
Cu195  O207    1.957   .     S
Cu195  Cu196   2.709   .     S
Cu196  N203    2.036   .     S
Cu196  O206    1.956   .     S
Cu196  O210    1.974   .     S
Cu196  O208    1.944   .     S
Cu196  O212    1.957   .     S
H198   C361    1.088   .     S
H199   N262    1.029   .     S
H201   C306    1.084   1_455 S
N203   N262    1.298   .     S
N203   Cl271   1.725   .     S
N204   N319    1.298   1_455 S
N204   H315    1.029   1_455 S
Cl213  N319    1.725   1_455 S
O216   C333    1.409   1_455 S
C217   H218    1.111   .     S
C217   O274    1.409   .     S
C217   H741    1.113   .     S
C217   C742    1.521   .     S
H219   C739    1.113   1_554 S
C220   H223    1.111   .     S
C220   C739    1.521   1_554 S
C220   H569    1.111   1_554 S
H221   C916    1.111   .     S
H222   C394    1.111   .     S
C226   H227    1.107   .     S
C226   O399    1.409   .     S
C226   H402    1.103   .     S
C226   C403    1.534   .     S
C229   H230    1.108   .     S
H231   C519    1.106   1_455 S
H232   C403    1.108   .     S
C233   C243    1.450   .     S
C233   O263    1.300   .     A
C233   O264    1.296   .     A
C234   C235    1.419   .     A
C234   C758    1.432   .     S
C234   C774    1.432   .     S
C235   C242    1.435   .     A
C235   C239    1.421   .     A
C236   C240    1.393   .     A
C236   C756    1.432   1_554 S
C236   C759    1.420   1_554 S
C237   C238    1.381   .     A
C237   C758    1.420   .     S
C237   C770    1.404   .     S
C238   H258    1.085   .     S
C238   C239    1.382   .     A
C239   Cl282   1.756   .     S
C240   H260    1.078   .     S
C240   C249    1.400   .     A
C241   C249    1.398   .     A
C241   C248    1.389   .     A
C241   H255    1.083   .     S
C242   C250    1.397   .     A
C242   C244    1.506   .     S
C243   C419    1.329   .     S
C243   O457    1.399   .     S
C244   O266    1.283   .     A
C244   O265    1.340   .     A
C245   C246    1.432   .     S
C246   O268    1.300   .     A
C246   O267    1.291   .     A
C247   O270    1.307   .     A
C247   C249    1.460   .     S
C247   O269    1.300   .     A
C248   C759    1.404   1_554 S
C248   H317    1.084   .     S
C250   C251    1.402   .     A
C250   Cl272   1.741   .     S
C251   O274    1.386   .     S
C251   C774    1.406   .     S
C252   Cl273   1.774   .     S
C252   C756    1.432   1_554 S
C252   C773    1.406   1_554 S
Cu253  O267    1.956   .     S
Cu253  N262    2.036   .     S
Cu253  O263    1.974   .     S
Cu253  O269    1.944   .     S
Cu253  O265    1.957   .     S
Cu253  Cu254   2.709   .     S
Cu254  N261    2.036   .     S
Cu254  O264    1.956   .     S
Cu254  O268    1.974   .     S
Cu254  O266    1.944   .     S
Cu254  O270    1.957   .     S
H256   C419    1.088   .     S
H257   N320    1.029   .     S
N261   N320    1.298   .     S
N261   Cl329   1.725   .     S
C275   H276    1.111   .     S
C275   O332    1.409   .     S
C275   H799    1.113   .     S
C275   C800    1.521   .     S
H277   C797    1.113   1_554 S
C278   H281    1.111   .     S
C278   C797    1.521   1_554 S
C278   H627    1.111   1_554 S
H279   C974    1.111   .     S
H280   C452    1.111   .     S
C284   H285    1.107   .     S
C284   O457    1.409   .     S
C284   H460    1.103   .     S
C284   C461    1.534   .     S
C287   H288    1.108   .     S
H289   C403    1.106   .     S
H290   C461    1.108   .     S
C291   C301    1.450   .     S
C291   O321    1.300   .     A
C291   O322    1.296   .     A
C292   C293    1.419   .     A
C292   C816    1.432   .     S
C292   C832    1.432   .     S
C293   C300    1.435   .     A
C293   C297    1.421   .     A
C294   C298    1.393   .     A
C294   C814    1.432   1_554 S
C294   C817    1.420   1_554 S
C295   C296    1.381   .     A
C295   C816    1.420   .     S
C295   C828    1.404   .     S
C296   H316    1.085   .     S
C296   C297    1.382   .     A
C297   Cl340   1.756   .     S
C298   H318    1.078   .     S
C298   C307    1.400   .     A
C299   C307    1.398   .     A
C299   C306    1.389   .     A
C299   H313    1.083   .     S
C300   C308    1.397   .     A
C300   C302    1.506   .     S
C301   C477    1.329   .     S
C301   O515    1.399   .     S
C302   O324    1.283   .     A
C302   O323    1.340   .     A
C303   C304    1.432   .     S
C304   O326    1.300   .     A
C304   O325    1.291   .     A
C305   O328    1.307   .     A
C305   C307    1.460   .     S
C305   O327    1.300   .     A
C306   C817    1.404   1_554 S
C306   H201    1.084   1_655 S
C308   C309    1.402   .     A
C308   Cl330   1.741   .     S
C309   O332    1.386   .     S
C309   C832    1.406   .     S
C310   Cl331   1.774   .     S
C310   C814    1.432   1_554 S
C310   C831    1.406   1_554 S
Cu311  O325    1.956   .     S
Cu311  N320    2.036   .     S
Cu311  O321    1.974   .     S
Cu311  O327    1.944   .     S
Cu311  O323    1.957   .     S
Cu311  Cu312   2.709   .     S
Cu312  N319    2.036   .     S
Cu312  O322    1.956   .     S
Cu312  O326    1.974   .     S
Cu312  O324    1.944   .     S
Cu312  O328    1.957   .     S
H314   C477    1.088   .     S
H315   N204    1.029   1_655 S
N319   N204    1.298   1_655 S
N319   Cl213   1.725   1_655 S
C333   H334    1.111   .     S
C333   O216    1.409   1_655 S
C333   H857    1.113   .     S
C333   C858    1.521   .     S
H335   C855    1.113   1_554 S
C336   H339    1.111   .     S
C336   C855    1.521   1_554 S
C336   H685    1.111   1_554 S
H337   C1032   1.111   .     S
H338   C510    1.111   .     S
C342   H343    1.107   .     S
C342   O515    1.409   .     S
C342   H518    1.103   .     S
C342   C519    1.534   .     S
C345   H346    1.108   .     S
C345   H57     1.106   1_655 S
H347   C461    1.106   .     S
H348   C519    1.108   .     S
C349   C359    1.450   .     S
C349   O379    1.300   .     A
C349   O380    1.296   .     A
C350   C351    1.419   .     A
C350   C874    1.432   .     S
C350   C890    1.432   .     S
C351   C358    1.435   .     A
C351   C355    1.421   .     A
C352   C356    1.393   .     A
C352   C872    1.432   1_554 S
C352   C875    1.420   1_554 S
C353   C354    1.381   .     A
C353   C874    1.420   .     S
C353   C886    1.404   .     S
C354   H374    1.085   .     S
C354   C355    1.382   .     A
C355   Cl398   1.756   .     S
C356   H376    1.078   .     S
C356   C365    1.400   .     A
C357   C365    1.398   .     A
C357   C364    1.389   .     A
C357   H371    1.083   .     S
C358   C366    1.397   .     A
C358   C360    1.506   .     S
C359   C13     1.329   1_565 S
C359   O51     1.399   1_565 S
C360   O382    1.283   .     A
C360   O381    1.340   .     A
C361   C362    1.432   .     S
C362   O384    1.300   .     A
C362   O383    1.291   .     A
C363   O386    1.307   .     A
C363   C365    1.460   .     S
C363   O385    1.300   .     A
C364   C875    1.404   1_554 S
C364   H433    1.084   .     S
C366   C367    1.402   .     A
C366   Cl388   1.741   .     S
C367   O390    1.386   .     S
C367   C890    1.406   .     S
C368   Cl389   1.774   .     S
C368   C872    1.432   1_554 S
C368   C889    1.406   1_554 S
Cu369  O383    1.956   .     S
Cu369  N378    2.036   .     S
Cu369  O379    1.974   .     S
Cu369  O385    1.944   .     S
Cu369  O381    1.957   .     S
Cu369  Cu370   2.709   .     S
Cu370  N377    2.036   .     S
Cu370  O380    1.956   .     S
Cu370  O384    1.974   .     S
Cu370  O382    1.944   .     S
Cu370  O386    1.957   .     S
H372   C13     1.088   1_565 S
H373   N436    1.029   .     S
H375   C480    1.084   1_455 S
N377   N436    1.298   .     S
N377   Cl445   1.725   .     S
N378   N493    1.298   1_455 S
N378   H489    1.029   1_455 S
Cl387  N493    1.725   1_455 S
O390   C507    1.409   1_455 S
C391   H392    1.111   .     S
C391   O448    1.409   .     S
C391   H915    1.113   .     S
C391   C916    1.521   .     S
H393   C913    1.113   1_554 S
C394   H397    1.111   .     S
C394   C913    1.521   1_554 S
C394   H743    1.111   1_554 S
H395   C568    1.111   1_565 S
H396   C46     1.111   1_565 S
C400   H401    1.107   .     S
C400   O51     1.409   1_565 S
C400   H54     1.103   1_565 S
C400   C55     1.534   1_565 S
C403   H404    1.108   .     S
H405   C171    1.106   1_465 S
H406   C55     1.108   1_565 S
C407   C417    1.450   .     S
C407   O437    1.300   .     A
C407   O438    1.296   .     A
C408   C409    1.419   .     A
C408   C932    1.432   .     S
C408   C948    1.432   .     S
C409   C416    1.435   .     A
C409   C413    1.421   .     A
C410   C414    1.393   .     A
C410   C930    1.432   1_554 S
C410   C933    1.420   1_554 S
C411   C412    1.381   .     A
C411   C932    1.420   .     S
C411   C944    1.404   .     S
C412   H432    1.085   .     S
C412   C413    1.382   .     A
C413   Cl456   1.756   .     S
C414   H434    1.078   .     S
C414   C423    1.400   .     A
C415   C423    1.398   .     A
C415   C422    1.389   .     A
C415   H429    1.083   .     S
C416   C424    1.397   .     A
C416   C418    1.506   .     S
C417   C71     1.329   1_565 S
C417   O109    1.399   1_565 S
C418   O440    1.283   .     A
C418   O439    1.340   .     A
C419   C420    1.432   .     S
C420   O442    1.300   .     A
C420   O441    1.291   .     A
C421   O444    1.307   .     A
C421   C423    1.460   .     S
C421   O443    1.300   .     A
C422   C933    1.404   1_554 S
C422   H491    1.084   .     S
C424   C425    1.402   .     A
C424   Cl446   1.741   .     S
C425   O448    1.386   .     S
C425   C948    1.406   .     S
C426   Cl447   1.774   .     S
C426   C930    1.432   1_554 S
C426   C947    1.406   1_554 S
Cu427  O441    1.956   .     S
Cu427  N436    2.036   .     S
Cu427  O437    1.974   .     S
Cu427  O443    1.944   .     S
Cu427  O439    1.957   .     S
Cu427  Cu428   2.709   .     S
Cu428  N435    2.036   .     S
Cu428  O438    1.956   .     S
Cu428  O442    1.974   .     S
Cu428  O440    1.944   .     S
Cu428  O444    1.957   .     S
H430   C71     1.088   1_565 S
H431   N494    1.029   .     S
N435   N494    1.298   .     S
N435   Cl503   1.725   .     S
C449   H450    1.111   .     S
C449   O506    1.409   .     S
C449   H973    1.113   .     S
C449   C974    1.521   .     S
H451   C971    1.113   1_554 S
C452   H455    1.111   .     S
C452   C971    1.521   1_554 S
C452   H801    1.111   1_554 S
H453   C626    1.111   1_565 S
H454   C104    1.111   1_565 S
C458   H459    1.107   .     S
C458   O109    1.409   1_565 S
C458   H112    1.103   1_565 S
C458   C113    1.534   1_565 S
C461   H462    1.108   .     S
H463   C55     1.106   1_565 S
H464   C113    1.108   1_565 S
C465   C475    1.450   .     S
C465   O495    1.300   .     A
C465   O496    1.296   .     A
C466   C467    1.419   .     A
C466   C990    1.432   .     S
C466   C1006   1.432   .     S
C467   C474    1.435   .     A
C467   C471    1.421   .     A
C468   C472    1.393   .     A
C468   C988    1.432   1_554 S
C468   C991    1.420   1_554 S
C469   C470    1.381   .     A
C469   C990    1.420   .     S
C469   C1002   1.404   .     S
C470   H490    1.085   .     S
C470   C471    1.382   .     A
C471   Cl514   1.756   .     S
C472   H492    1.078   .     S
C472   C481    1.400   .     A
C473   C481    1.398   .     A
C473   C480    1.389   .     A
C473   H487    1.083   .     S
C474   C482    1.397   .     A
C474   C476    1.506   .     S
C475   C129    1.329   1_565 S
C475   O167    1.399   1_565 S
C476   O498    1.283   .     A
C476   O497    1.340   .     A
C477   C478    1.432   .     S
C478   O500    1.300   .     A
C478   O499    1.291   .     A
C479   O502    1.307   .     A
C479   C481    1.460   .     S
C479   O501    1.300   .     A
C480   C991    1.404   1_554 S
C480   H375    1.084   1_655 S
C482   C483    1.402   .     A
C482   Cl504   1.741   .     S
C483   O506    1.386   .     S
C483   C1006   1.406   .     S
C484   Cl505   1.774   .     S
C484   C988    1.432   1_554 S
C484   C1005   1.406   1_554 S
Cu485  O499    1.956   .     S
Cu485  N494    2.036   .     S
Cu485  O495    1.974   .     S
Cu485  O501    1.944   .     S
Cu485  O497    1.957   .     S
Cu485  Cu486   2.709   .     S
Cu486  N493    2.036   .     S
Cu486  O496    1.956   .     S
Cu486  O500    1.974   .     S
Cu486  O498    1.944   .     S
Cu486  O502    1.957   .     S
H488   C129    1.088   1_565 S
H489   N378    1.029   1_655 S
N493   N378    1.298   1_655 S
N493   Cl387   1.725   1_655 S
C507   H508    1.111   .     S
C507   O390    1.409   1_655 S
C507   H1031   1.113   .     S
C507   C1032   1.521   .     S
H509   C1029   1.113   1_554 S
C510   H513    1.111   .     S
C510   C1029   1.521   1_554 S
C510   H859    1.111   1_554 S
H511   C684    1.111   1_565 S
H512   C162    1.111   1_565 S
C516   H517    1.107   .     S
C516   O167    1.409   1_565 S
C516   H170    1.103   1_565 S
C516   C171    1.534   1_565 S
C519   H520    1.108   .     S
C519   H231    1.106   1_655 S
H521   C113    1.106   1_565 S
H522   C171    1.108   1_565 S
C523   C533    1.450   .     S
C523   O553    1.300   .     A
C523   O554    1.296   .     A
C524   C525    1.419   .     A
C524   C4      1.432   1_556 S
C524   C20     1.432   1_556 S
C525   C532    1.435   .     A
C525   C529    1.421   .     A
C526   C530    1.393   .     A
C527   C528    1.381   .     A
C527   C4      1.420   1_556 S
C527   C16     1.404   1_556 S
C528   H548    1.085   .     S
C528   C529    1.382   .     A
C529   Cl572   1.756   .     S
C530   H550    1.078   .     S
C530   C539    1.400   .     A
C531   C539    1.398   .     A
C531   C538    1.389   .     A
C531   H545    1.083   .     S
C532   C540    1.397   .     A
C532   C534    1.506   .     S
C533   C709    1.329   .     S
C533   O747    1.399   .     S
C534   O556    1.283   .     A
C534   O555    1.340   .     A
C535   C536    1.432   .     S
C535   C881    1.329   1_545 S
C535   H894    1.088   1_545 S
C536   O558    1.300   .     A
C536   O557    1.291   .     A
C537   O560    1.307   .     A
C537   C539    1.460   .     S
C537   O559    1.300   .     A
C538   H607    1.084   .     S
C540   C541    1.402   .     A
C540   Cl562   1.741   .     S
C541   O564    1.386   .     S
C541   C20     1.406   1_556 S
C542   Cl563   1.774   .     S
Cu543  O557    1.956   .     S
Cu543  N552    2.036   .     S
Cu543  O553    1.974   .     S
Cu543  O559    1.944   .     S
Cu543  O555    1.957   .     S
Cu543  Cu544   2.709   .     S
Cu544  N551    2.036   .     S
Cu544  O554    1.956   .     S
Cu544  O558    1.974   .     S
Cu544  O556    1.944   .     S
Cu544  O560    1.957   .     S
H546   C709    1.088   .     S
H547   N610    1.029   .     S
H549   C654    1.084   1_455 S
N551   N610    1.298   .     S
N551   Cl619   1.725   .     S
N552   N667    1.298   1_455 S
N552   H663    1.029   1_455 S
Cl561  N667    1.725   1_455 S
O564   C681    1.409   1_455 S
C565   H566    1.111   .     S
C565   O622    1.409   .     S
C565   H45     1.113   1_556 S
C565   C46     1.521   1_556 S
C568   H571    1.111   .     S
C568   H395    1.111   1_545 S
C568   H918    1.111   1_545 S
H569   C220    1.111   1_556 S
H570   C742    1.111   .     S
O573   C881    1.399   1_545 S
O573   C922    1.409   1_545 S
C574   H575    1.107   .     S
C574   O747    1.409   .     S
C574   H750    1.103   .     S
C574   C751    1.534   .     S
H576   C922    1.103   1_545 S
C577   H578    1.108   .     S
C577   C922    1.534   1_545 S
C577   H985    1.106   1_545 S
C577   H928    1.108   1_545 S
H579   C867    1.106   1_455 S
H580   C751    1.108   .     S
C581   C591    1.450   .     S
C581   O611    1.300   .     A
C581   O612    1.296   .     A
C582   C583    1.419   .     A
C582   C62     1.432   1_556 S
C582   C78     1.432   1_556 S
C583   C590    1.435   .     A
C583   C587    1.421   .     A
C584   C588    1.393   .     A
C585   C586    1.381   .     A
C585   C62     1.420   1_556 S
C585   C74     1.404   1_556 S
C586   H606    1.085   .     S
C586   C587    1.382   .     A
C587   Cl630   1.756   .     S
C588   H608    1.078   .     S
C588   C597    1.400   .     A
C589   C597    1.398   .     A
C589   C596    1.389   .     A
C589   H603    1.083   .     S
C590   C598    1.397   .     A
C590   C592    1.506   .     S
C591   C767    1.329   .     S
C591   O805    1.399   .     S
C592   O614    1.283   .     A
C592   O613    1.340   .     A
C593   C594    1.432   .     S
C593   C939    1.329   1_545 S
C593   H952    1.088   1_545 S
C594   O616    1.300   .     A
C594   O615    1.291   .     A
C595   O618    1.307   .     A
C595   C597    1.460   .     S
C595   O617    1.300   .     A
C596   H665    1.084   .     S
C598   C599    1.402   .     A
C598   Cl620   1.741   .     S
C599   O622    1.386   .     S
C599   C78     1.406   1_556 S
C600   Cl621   1.774   .     S
Cu601  O615    1.956   .     S
Cu601  N610    2.036   .     S
Cu601  O611    1.974   .     S
Cu601  O617    1.944   .     S
Cu601  O613    1.957   .     S
Cu601  Cu602   2.709   .     S
Cu602  N609    2.036   .     S
Cu602  O612    1.956   .     S
Cu602  O616    1.974   .     S
Cu602  O614    1.944   .     S
Cu602  O618    1.957   .     S
H604   C767    1.088   .     S
H605   N668    1.029   .     S
N609   N668    1.298   .     S
N609   Cl677   1.725   .     S
C623   H624    1.111   .     S
C623   O680    1.409   .     S
C623   H103    1.113   1_556 S
C623   C104    1.521   1_556 S
C626   H629    1.111   .     S
C626   H453    1.111   1_545 S
C626   H976    1.111   1_545 S
H627   C278    1.111   1_556 S
H628   C800    1.111   .     S
O631   C939    1.399   1_545 S
O631   C980    1.409   1_545 S
C632   H633    1.107   .     S
C632   O805    1.409   .     S
C632   H808    1.103   .     S
C632   C809    1.534   .     S
H634   C980    1.103   1_545 S
C635   H636    1.108   .     S
C635   C980    1.534   1_545 S
C635   H1043   1.106   1_545 S
C635   H986    1.108   1_545 S
H637   C751    1.106   .     S
H638   C809    1.108   .     S
C639   C649    1.450   .     S
C639   O669    1.300   .     A
C639   O670    1.296   .     A
C640   C641    1.419   .     A
C640   C120    1.432   1_556 S
C640   C136    1.432   1_556 S
C641   C648    1.435   .     A
C641   C645    1.421   .     A
C642   C646    1.393   .     A
C643   C644    1.381   .     A
C643   C120    1.420   1_556 S
C643   C132    1.404   1_556 S
C644   H664    1.085   .     S
C644   C645    1.382   .     A
C645   Cl688   1.756   .     S
C646   H666    1.078   .     S
C646   C655    1.400   .     A
C647   C655    1.398   .     A
C647   C654    1.389   .     A
C647   H661    1.083   .     S
C648   C656    1.397   .     A
C648   C650    1.506   .     S
C649   C825    1.329   .     S
C649   O863    1.399   .     S
C650   O672    1.283   .     A
C650   O671    1.340   .     A
C651   C652    1.432   .     S
C651   C997    1.329   1_545 S
C651   H1010   1.088   1_545 S
C652   O674    1.300   .     A
C652   O673    1.291   .     A
C653   O676    1.307   .     A
C653   C655    1.460   .     S
C653   O675    1.300   .     A
C654   H549    1.084   1_655 S
C656   C657    1.402   .     A
C656   Cl678   1.741   .     S
C657   O680    1.386   .     S
C657   C136    1.406   1_556 S
C658   Cl679   1.774   .     S
Cu659  O673    1.956   .     S
Cu659  N668    2.036   .     S
Cu659  O669    1.974   .     S
Cu659  O675    1.944   .     S
Cu659  O671    1.957   .     S
Cu659  Cu660   2.709   .     S
Cu660  N667    2.036   .     S
Cu660  O670    1.956   .     S
Cu660  O674    1.974   .     S
Cu660  O672    1.944   .     S
Cu660  O676    1.957   .     S
H662   C825    1.088   .     S
H663   N552    1.029   1_655 S
N667   N552    1.298   1_655 S
N667   Cl561   1.725   1_655 S
C681   H682    1.111   .     S
C681   O564    1.409   1_655 S
C681   H161    1.113   1_556 S
C681   C162    1.521   1_556 S
C684   H687    1.111   .     S
C684   H511    1.111   1_545 S
C684   H1034   1.111   1_545 S
H685   C336    1.111   1_556 S
H686   C858    1.111   .     S
O689   C997    1.399   1_545 S
O689   C1038   1.409   1_545 S
C690   H691    1.107   .     S
C690   O863    1.409   .     S
C690   H866    1.103   .     S
C690   C867    1.534   .     S
H692   C1038   1.103   1_545 S
C693   H694    1.108   .     S
C693   C1038   1.534   1_545 S
C693   H927    1.106   1_645 S
C693   H1044   1.108   1_545 S
H695   C809    1.106   .     S
H696   C867    1.108   .     S
C697   C707    1.450   .     S
C697   O727    1.300   .     A
C697   O728    1.296   .     A
C698   C699    1.419   .     A
C698   C178    1.432   1_556 S
C698   C194    1.432   1_556 S
C699   C706    1.435   .     A
C699   C703    1.421   .     A
C700   C704    1.393   .     A
C701   C702    1.381   .     A
C701   C178    1.420   1_556 S
C701   C190    1.404   1_556 S
C702   H722    1.085   .     S
C702   C703    1.382   .     A
C703   Cl746   1.756   .     S
C704   H724    1.078   .     S
C704   C713    1.400   .     A
C705   C713    1.398   .     A
C705   C712    1.389   .     A
C705   H719    1.083   .     S
C706   C714    1.397   .     A
C706   C708    1.506   .     S
C707   C883    1.329   .     S
C707   O921    1.399   .     S
C708   O730    1.283   .     A
C708   O729    1.340   .     A
C709   C710    1.432   .     S
C710   O732    1.300   .     A
C710   O731    1.291   .     A
C711   O734    1.307   .     A
C711   C713    1.460   .     S
C711   O733    1.300   .     A
C712   H781    1.084   .     S
C714   C715    1.402   .     A
C714   Cl736   1.741   .     S
C715   O738    1.386   .     S
C715   C194    1.406   1_556 S
C716   Cl737   1.774   .     S
Cu717  O731    1.956   .     S
Cu717  N726    2.036   .     S
Cu717  O727    1.974   .     S
Cu717  O733    1.944   .     S
Cu717  O729    1.957   .     S
Cu717  Cu718   2.709   .     S
Cu718  N725    2.036   .     S
Cu718  O728    1.956   .     S
Cu718  O732    1.974   .     S
Cu718  O730    1.944   .     S
Cu718  O734    1.957   .     S
H720   C883    1.088   .     S
H721   N784    1.029   .     S
H723   C828    1.084   1_455 S
N725   N784    1.298   .     S
N725   Cl793   1.725   .     S
N726   N841    1.298   1_455 S
N726   H837    1.029   1_455 S
Cl735  N841    1.725   1_455 S
O738   C855    1.409   1_455 S
C739   H740    1.111   .     S
C739   O796    1.409   .     S
C739   H219    1.113   1_556 S
C739   C220    1.521   1_556 S
C742   H745    1.111   .     S
H743   C394    1.111   1_556 S
H744   C916    1.111   .     S
C748   H749    1.107   .     S
C748   O921    1.409   .     S
C748   H924    1.103   .     S
C748   C925    1.534   .     S
C751   H752    1.108   .     S
H753   C1041   1.106   1_455 S
H754   C925    1.108   .     S
C755   C765    1.450   .     S
C755   O785    1.300   .     A
C755   O786    1.296   .     A
C756   C757    1.419   .     A
C756   C236    1.432   1_556 S
C756   C252    1.432   1_556 S
C757   C764    1.435   .     A
C757   C761    1.421   .     A
C758   C762    1.393   .     A
C759   C760    1.381   .     A
C759   C236    1.420   1_556 S
C759   C248    1.404   1_556 S
C760   H780    1.085   .     S
C760   C761    1.382   .     A
C761   Cl804   1.756   .     S
C762   H782    1.078   .     S
C762   C771    1.400   .     A
C763   C771    1.398   .     A
C763   C770    1.389   .     A
C763   H777    1.083   .     S
C764   C772    1.397   .     A
C764   C766    1.506   .     S
C765   C941    1.329   .     S
C765   O979    1.399   .     S
C766   O788    1.283   .     A
C766   O787    1.340   .     A
C767   C768    1.432   .     S
C768   O790    1.300   .     A
C768   O789    1.291   .     A
C769   O792    1.307   .     A
C769   C771    1.460   .     S
C769   O791    1.300   .     A
C770   H839    1.084   .     S
C772   C773    1.402   .     A
C772   Cl794   1.741   .     S
C773   O796    1.386   .     S
C773   C252    1.406   1_556 S
C774   Cl795   1.774   .     S
Cu775  O789    1.956   .     S
Cu775  N784    2.036   .     S
Cu775  O785    1.974   .     S
Cu775  O791    1.944   .     S
Cu775  O787    1.957   .     S
Cu775  Cu776   2.709   .     S
Cu776  N783    2.036   .     S
Cu776  O786    1.956   .     S
Cu776  O790    1.974   .     S
Cu776  O788    1.944   .     S
Cu776  O792    1.957   .     S
H778   C941    1.088   .     S
H779   N842    1.029   .     S
N783   N842    1.298   .     S
N783   Cl851   1.725   .     S
C797   H798    1.111   .     S
C797   O854    1.409   .     S
C797   H277    1.113   1_556 S
C797   C278    1.521   1_556 S
C800   H803    1.111   .     S
H801   C452    1.111   1_556 S
H802   C974    1.111   .     S
C806   H807    1.107   .     S
C806   O979    1.409   .     S
C806   H982    1.103   .     S
C806   C983    1.534   .     S
C809   H810    1.108   .     S
H811   C925    1.106   .     S
H812   C983    1.108   .     S
C813   C823    1.450   .     S
C813   O843    1.300   .     A
C813   O844    1.296   .     A
C814   C815    1.419   .     A
C814   C294    1.432   1_556 S
C814   C310    1.432   1_556 S
C815   C822    1.435   .     A
C815   C819    1.421   .     A
C816   C820    1.393   .     A
C817   C818    1.381   .     A
C817   C294    1.420   1_556 S
C817   C306    1.404   1_556 S
C818   H838    1.085   .     S
C818   C819    1.382   .     A
C819   Cl862   1.756   .     S
C820   H840    1.078   .     S
C820   C829    1.400   .     A
C821   C829    1.398   .     A
C821   C828    1.389   .     A
C821   H835    1.083   .     S
C822   C830    1.397   .     A
C822   C824    1.506   .     S
C823   C999    1.329   .     S
C823   O1037   1.399   .     S
C824   O846    1.283   .     A
C824   O845    1.340   .     A
C825   C826    1.432   .     S
C826   O848    1.300   .     A
C826   O847    1.291   .     A
C827   O850    1.307   .     A
C827   C829    1.460   .     S
C827   O849    1.300   .     A
C828   H723    1.084   1_655 S
C830   C831    1.402   .     A
C830   Cl852   1.741   .     S
C831   O854    1.386   .     S
C831   C310    1.406   1_556 S
C832   Cl853   1.774   .     S
Cu833  O847    1.956   .     S
Cu833  N842    2.036   .     S
Cu833  O843    1.974   .     S
Cu833  O849    1.944   .     S
Cu833  O845    1.957   .     S
Cu833  Cu834   2.709   .     S
Cu834  N841    2.036   .     S
Cu834  O844    1.956   .     S
Cu834  O848    1.974   .     S
Cu834  O846    1.944   .     S
Cu834  O850    1.957   .     S
H836   C999    1.088   .     S
H837   N726    1.029   1_655 S
N841   N726    1.298   1_655 S
N841   Cl735   1.725   1_655 S
C855   H856    1.111   .     S
C855   O738    1.409   1_655 S
C855   H335    1.113   1_556 S
C855   C336    1.521   1_556 S
C858   H861    1.111   .     S
H859   C510    1.111   1_556 S
H860   C1032   1.111   .     S
C864   H865    1.107   .     S
C864   O1037   1.409   .     S
C864   H1040   1.103   .     S
C864   C1041   1.534   .     S
C867   H868    1.108   .     S
C867   H579    1.106   1_655 S
H869   C983    1.106   .     S
H870   C1041   1.108   .     S
C871   C881    1.450   .     S
C871   O901    1.300   .     A
C871   O902    1.296   .     A
C872   C873    1.419   .     A
C872   C352    1.432   1_556 S
C872   C368    1.432   1_556 S
C873   C880    1.435   .     A
C873   C877    1.421   .     A
C874   C878    1.393   .     A
C875   C876    1.381   .     A
C875   C352    1.420   1_556 S
C875   C364    1.404   1_556 S
C876   H896    1.085   .     S
C876   C877    1.382   .     A
C877   Cl920   1.756   .     S
C878   H898    1.078   .     S
C878   C887    1.400   .     A
C879   C887    1.398   .     A
C879   C886    1.389   .     A
C879   H893    1.083   .     S
C880   C888    1.397   .     A
C880   C882    1.506   .     S
C881   C535    1.329   1_565 S
C881   O573    1.399   1_565 S
C882   O904    1.283   .     A
C882   O903    1.340   .     A
C883   C884    1.432   .     S
C884   O906    1.300   .     A
C884   O905    1.291   .     A
C885   O908    1.307   .     A
C885   C887    1.460   .     S
C885   O907    1.300   .     A
C886   H955    1.084   .     S
C888   C889    1.402   .     A
C888   Cl910   1.741   .     S
C889   O912    1.386   .     S
C889   C368    1.406   1_556 S
C890   Cl911   1.774   .     S
Cu891  O905    1.956   .     S
Cu891  N900    2.036   .     S
Cu891  O901    1.974   .     S
Cu891  O907    1.944   .     S
Cu891  O903    1.957   .     S
Cu891  Cu892   2.709   .     S
Cu892  N899    2.036   .     S
Cu892  O902    1.956   .     S
Cu892  O906    1.974   .     S
Cu892  O904    1.944   .     S
Cu892  O908    1.957   .     S
H894   C535    1.088   1_565 S
H895   N958    1.029   .     S
H897   C1002   1.084   1_455 S
N899   N958    1.298   .     S
N899   Cl967   1.725   .     S
N900   N1015   1.298   1_455 S
N900   H1011   1.029   1_455 S
Cl909  N1015   1.725   1_455 S
O912   C1029   1.409   1_455 S
C913   H914    1.111   .     S
C913   O970    1.409   .     S
C913   H393    1.113   1_556 S
C913   C394    1.521   1_556 S
C916   H919    1.111   .     S
H917   C46     1.111   1_566 S
H918   C568    1.111   1_565 S
C922   H923    1.107   .     S
C922   O573    1.409   1_565 S
C922   H576    1.103   1_565 S
C922   C577    1.534   1_565 S
C925   H926    1.108   .     S
H927   C693    1.106   1_465 S
H928   C577    1.108   1_565 S
C929   C939    1.450   .     S
C929   O959    1.300   .     A
C929   O960    1.296   .     A
C930   C931    1.419   .     A
C930   C410    1.432   1_556 S
C930   C426    1.432   1_556 S
C931   C938    1.435   .     A
C931   C935    1.421   .     A
C932   C936    1.393   .     A
C933   C934    1.381   .     A
C933   C410    1.420   1_556 S
C933   C422    1.404   1_556 S
C934   H954    1.085   .     S
C934   C935    1.382   .     A
C935   Cl978   1.756   .     S
C936   H956    1.078   .     S
C936   C945    1.400   .     A
C937   C945    1.398   .     A
C937   C944    1.389   .     A
C937   H951    1.083   .     S
C938   C946    1.397   .     A
C938   C940    1.506   .     S
C939   C593    1.329   1_565 S
C939   O631    1.399   1_565 S
C940   O962    1.283   .     A
C940   O961    1.340   .     A
C941   C942    1.432   .     S
C942   O964    1.300   .     A
C942   O963    1.291   .     A
C943   O966    1.307   .     A
C943   C945    1.460   .     S
C943   O965    1.300   .     A
C944   H1013   1.084   .     S
C946   C947    1.402   .     A
C946   Cl968   1.741   .     S
C947   O970    1.386   .     S
C947   C426    1.406   1_556 S
C948   Cl969   1.774   .     S
Cu949  O963    1.956   .     S
Cu949  N958    2.036   .     S
Cu949  O959    1.974   .     S
Cu949  O965    1.944   .     S
Cu949  O961    1.957   .     S
Cu949  Cu950   2.709   .     S
Cu950  N957    2.036   .     S
Cu950  O960    1.956   .     S
Cu950  O964    1.974   .     S
Cu950  O962    1.944   .     S
Cu950  O966    1.957   .     S
H952   C593    1.088   1_565 S
H953   N1016   1.029   .     S
N957   N1016   1.298   .     S
N957   Cl1025  1.725   .     S
C971   H972    1.111   .     S
C971   O1028   1.409   .     S
C971   H451    1.113   1_556 S
C971   C452    1.521   1_556 S
C974   H977    1.111   .     S
H975   C104    1.111   1_566 S
H976   C626    1.111   1_565 S
C980   H981    1.107   .     S
C980   O631    1.409   1_565 S
C980   H634    1.103   1_565 S
C980   C635    1.534   1_565 S
C983   H984    1.108   .     S
H985   C577    1.106   1_565 S
H986   C635    1.108   1_565 S
C987   C997    1.450   .     S
C987   O1017   1.300   .     A
C987   O1018   1.296   .     A
C988   C989    1.419   .     A
C988   C468    1.432   1_556 S
C988   C484    1.432   1_556 S
C989   C996    1.435   .     A
C989   C993    1.421   .     A
C990   C994    1.393   .     A
C991   C992    1.381   .     A
C991   C468    1.420   1_556 S
C991   C480    1.404   1_556 S
C992   H1012   1.085   .     S
C992   C993    1.382   .     A
C993   Cl1036  1.756   .     S
C994   H1014   1.078   .     S
C994   C1003   1.400   .     A
C995   C1003   1.398   .     A
C995   C1002   1.389   .     A
C995   H1009   1.083   .     S
C996   C1004   1.397   .     A
C996   C998    1.506   .     S
C997   C651    1.329   1_565 S
C997   O689    1.399   1_565 S
C998   O1020   1.283   .     A
C998   O1019   1.340   .     A
C999   C1000   1.432   .     S
C1000  O1022   1.300   .     A
C1000  O1021   1.291   .     A
C1001  O1024   1.307   .     A
C1001  C1003   1.460   .     S
C1001  O1023   1.300   .     A
C1002  H897    1.084   1_655 S
C1004  C1005   1.402   .     A
C1004  Cl1026  1.741   .     S
C1005  O1028   1.386   .     S
C1005  C484    1.406   1_556 S
C1006  Cl1027  1.774   .     S
Cu1007 O1021   1.956   .     S
Cu1007 N1016   2.036   .     S
Cu1007 O1017   1.974   .     S
Cu1007 O1023   1.944   .     S
Cu1007 O1019   1.957   .     S
Cu1007 Cu1008  2.709   .     S
Cu1008 N1015   2.036   .     S
Cu1008 O1018   1.956   .     S
Cu1008 O1022   1.974   .     S
Cu1008 O1020   1.944   .     S
Cu1008 O1024   1.957   .     S
H1010  C651    1.088   1_565 S
H1011  N900    1.029   1_655 S
N1015  N900    1.298   1_655 S
N1015  Cl909   1.725   1_655 S
C1029  H1030   1.111   .     S
C1029  O912    1.409   1_655 S
C1029  H509    1.113   1_556 S
C1029  C510    1.521   1_556 S
C1032  H1035   1.111   .     S
H1033  C162    1.111   1_566 S
H1034  C684    1.111   1_565 S
C1038  H1039   1.107   .     S
C1038  O689    1.409   1_565 S
C1038  H692    1.103   1_565 S
C1038  C693    1.534   1_565 S
C1041  H1042   1.108   .     S
C1041  H753    1.106   1_655 S
H1043  C635    1.106   1_565 S
H1044  C693    1.108   1_565 S
