data_str_m2_o1_o16_pcu_sym.197
_audit_creation_date              2020-01-03
_audit_creation_method            'Materials Studio'
_symmetry_space_group_name_H-M    'P1'
_symmetry_Int_Tables_number       1
_symmetry_cell_setting            triclinic
loop_
_symmetry_equiv_pos_as_xyz
  x,y,z
_cell_length_a                    28.6740
_cell_length_b                    32.4092
_cell_length_c                    26.6986
_cell_angle_alpha                 90.8271
_cell_angle_beta                  73.1996
_cell_angle_gamma                 91.1717
loop_
_atom_site_label
_atom_site_type_symbol
_atom_site_fract_x
_atom_site_fract_y
_atom_site_fract_z
_atom_site_U_iso_or_equiv
_atom_site_adp_type
_atom_site_occupancy
C1     C     0.16694   0.24592   0.25024   0.00000  Uiso   1.00
C2     C     0.15135   0.17302   0.48700   0.00000  Uiso   1.00
C3     C     0.15490   0.15614   0.43684   0.00000  Uiso   1.00
C4     C     0.18358   0.15929   0.01460   0.00000  Uiso   1.00
C5     C     0.21147   0.12345   0.49647   0.00000  Uiso   1.00
C6     C     0.21249   0.10566   0.44833   0.00000  Uiso   1.00
C7     C     0.18551   0.12235   0.41829   0.00000  Uiso   1.00
C8     C     0.18786   0.17921   0.06061   0.00000  Uiso   1.00
C9     C     0.23258   0.12046   0.07735   0.00000  Uiso   1.00
C10    C     0.12657   0.17267   0.40687   0.00000  Uiso   1.00
C11    C     0.21090   0.31260   0.23098   0.00000  Uiso   1.00
C12    C     0.14077   0.16701   0.35000   0.00000  Uiso   1.00
C13    C     0.21051   0.02197   0.23024   0.00000  Uiso   1.00
C14    C     0.16641   0.04276   0.24967   0.00000  Uiso   1.00
C15    C     0.12282   0.02068   0.27016   0.00000  Uiso   1.00
C16    C     0.12308   0.31132   0.27021   0.00000  Uiso   1.00
C17    C     0.16713   0.29054   0.25070   0.00000  Uiso   1.00
C18    C     0.30046   0.19237   0.28265   0.00000  Uiso   1.00
C19    C     0.01667   0.19240   0.28260   0.00000  Uiso   1.00
C20    C     0.03211   0.14089   0.21716   0.00000  Uiso   1.00
C21    C     0.31608   0.14129   0.21736   0.00000  Uiso   1.00
C22    C     0.16644   0.08740   0.24978   0.00000  Uiso   1.00
C23    C     0.19264   0.16598   0.15017   0.00000  Uiso   1.00
C24    C     0.23692   0.10505   0.02748   0.00000  Uiso   1.00
C25    C     0.20708   0.15683   0.09446   0.00000  Uiso   1.00
C26    C     0.08954   0.20049   0.42989   0.00000  Uiso   1.00
C27    C     0.08229   0.21359   0.48134   0.00000  Uiso   1.00
C28    C     0.11330   0.20067   0.00945   0.00000  Uiso   1.00
Cu29   Cu    0.11978   0.16666   0.25000   0.00000  Uiso   1.00
Cu30   Cu    0.21355   0.16667   0.25000   0.00000  Uiso   1.00
H31    H     0.24789   0.10334   0.10324   0.00000  Uiso   1.00
H32    H     0.24457   0.03871   0.21422   0.00000  Uiso   1.00
H33    H     0.08884   0.03639   0.28692   0.00000  Uiso   1.00
H34    H     0.08900   0.29460   0.28616   0.00000  Uiso   1.00
H35    H     0.27533   0.21297   0.30890   0.00000  Uiso   1.00
H36    H     0.02871   0.21300   0.30881   0.00000  Uiso   1.00
H37    H     0.30319   0.12078   0.19161   0.00000  Uiso   1.00
H38    H     0.23398   0.07854   0.43398   0.00000  Uiso   1.00
H39    H     0.25733   0.07714   0.01463   0.00000  Uiso   1.00
H40    H     0.06732   0.21325   0.40745   0.00000  Uiso   1.00
H41    H     0.10572   0.21121   0.04948   0.00000  Uiso   1.00
H42    H     0.05332   0.23477   0.49910   0.00000  Uiso   1.00
H43    H     0.18677   0.10701   0.38165   0.00000  Uiso   1.00
H44    H     0.24511   0.29686   0.21542   0.00000  Uiso   1.00
N45    N     0.04931   0.16666   0.24998   0.00000  Uiso   1.00
N46    N     0.28402   0.16669   0.24999   0.00000  Uiso   1.00
O47    O     0.12708   0.22678   0.25000   0.00000  Uiso   1.00
O48    O     0.20627   0.22679   0.25000   0.00000  Uiso   1.00
O49    O     0.10775   0.16665   0.32549   0.00000  Uiso   1.00
O50    O     0.18694   0.16666   0.32549   0.00000  Uiso   1.00
O51    O     0.12706   0.10654   0.24999   0.00000  Uiso   1.00
O52    O     0.20625   0.10655   0.24999   0.00000  Uiso   1.00
O53    O     0.14640   0.16667   0.17451   0.00000  Uiso   1.00
O54    O     0.22559   0.16668   0.17451   0.00000  Uiso   1.00
C55    C     0.06214   0.11005   0.18217   0.00000  Uiso   1.00
C56    C     0.05827   0.06879   0.19829   0.00000  Uiso   1.00
C57    C     0.07711   0.03725   0.16242   0.00000  Uiso   1.00
C58    C     0.09897   0.04655   0.10984   0.00000  Uiso   1.00
C59    C     0.10161   0.08737   0.09310   0.00000  Uiso   1.00
C60    C     0.08285   0.11902   0.12897   0.00000  Uiso   1.00
H61    H     0.03867   0.06097   0.23822   0.00000  Uiso   1.00
H62    H     0.07313   0.00551   0.17519   0.00000  Uiso   1.00
H63    H     0.11246   0.02206   0.08174   0.00000  Uiso   1.00
H64    H     0.11662   0.09419   0.05202   0.00000  Uiso   1.00
H65    H     0.08286   0.15026   0.11509   0.00000  Uiso   1.00
C66    C     0.18965   0.22522   0.06386   0.00000  Uiso   1.00
C67    C     0.16184   0.24727   0.10777   0.00000  Uiso   1.00
C68    C     0.16913   0.28977   0.11214   0.00000  Uiso   1.00
C69    C     0.20285   0.31103   0.07210   0.00000  Uiso   1.00
C70    C     0.22938   0.28977   0.02746   0.00000  Uiso   1.00
C71    C     0.22307   0.24709   0.02342   0.00000  Uiso   1.00
H72    H     0.13438   0.23199   0.13857   0.00000  Uiso   1.00
H73    H     0.14878   0.30620   0.14678   0.00000  Uiso   1.00
H74    H     0.20828   0.01065   0.07563   0.00000  Uiso   1.00
H75    H     0.25545   0.30625   0.49635   0.00000  Uiso   1.00
H76    H     0.24512   0.23090   0.48924   0.00000  Uiso   1.00
C77    C     0.50027   0.24592   0.25024   0.00000  Uiso   1.00
C78    C     0.48469   0.17302   0.48700   0.00000  Uiso   1.00
C79    C     0.48824   0.15614   0.43684   0.00000  Uiso   1.00
C80    C     0.51691   0.15929   0.01460   0.00000  Uiso   1.00
C81    C     0.54481   0.12345   0.49647   0.00000  Uiso   1.00
C82    C     0.54582   0.10566   0.44833   0.00000  Uiso   1.00
C83    C     0.51885   0.12235   0.41829   0.00000  Uiso   1.00
C84    C     0.52119   0.17921   0.06061   0.00000  Uiso   1.00
C85    C     0.56591   0.12046   0.07735   0.00000  Uiso   1.00
C86    C     0.45991   0.17267   0.40687   0.00000  Uiso   1.00
C87    C     0.54423   0.31260   0.23098   0.00000  Uiso   1.00
C88    C     0.47410   0.16701   0.35000   0.00000  Uiso   1.00
C89    C     0.54384   0.02197   0.23024   0.00000  Uiso   1.00
C90    C     0.49974   0.04276   0.24967   0.00000  Uiso   1.00
C91    C     0.45616   0.02068   0.27016   0.00000  Uiso   1.00
C92    C     0.45641   0.31132   0.27021   0.00000  Uiso   1.00
C93    C     0.50046   0.29054   0.25070   0.00000  Uiso   1.00
C94    C     0.63379   0.19237   0.28265   0.00000  Uiso   1.00
C95    C     0.35001   0.19240   0.28260   0.00000  Uiso   1.00
C96    C     0.36544   0.14089   0.21716   0.00000  Uiso   1.00
C97    C     0.64941   0.14129   0.21736   0.00000  Uiso   1.00
C98    C     0.49977   0.08740   0.24978   0.00000  Uiso   1.00
C99    C     0.52597   0.16598   0.15017   0.00000  Uiso   1.00
C100   C     0.57026   0.10505   0.02748   0.00000  Uiso   1.00
C101   C     0.54041   0.15683   0.09446   0.00000  Uiso   1.00
C102   C     0.42287   0.20049   0.42989   0.00000  Uiso   1.00
C103   C     0.41562   0.21359   0.48134   0.00000  Uiso   1.00
C104   C     0.44664   0.20067   0.00945   0.00000  Uiso   1.00
Cu105  Cu    0.45311   0.16666   0.25000   0.00000  Uiso   1.00
Cu106  Cu    0.54689   0.16667   0.25000   0.00000  Uiso   1.00
H107   H     0.58122   0.10334   0.10324   0.00000  Uiso   1.00
H108   H     0.57790   0.03871   0.21422   0.00000  Uiso   1.00
H109   H     0.42217   0.03639   0.28692   0.00000  Uiso   1.00
H110   H     0.42233   0.29460   0.28616   0.00000  Uiso   1.00
H111   H     0.60866   0.21297   0.30890   0.00000  Uiso   1.00
H112   H     0.36204   0.21300   0.30881   0.00000  Uiso   1.00
H113   H     0.63652   0.12078   0.19161   0.00000  Uiso   1.00
H114   H     0.56731   0.07854   0.43398   0.00000  Uiso   1.00
H115   H     0.59066   0.07714   0.01463   0.00000  Uiso   1.00
H116   H     0.40066   0.21325   0.40745   0.00000  Uiso   1.00
H117   H     0.43905   0.21121   0.04948   0.00000  Uiso   1.00
H118   H     0.38665   0.23477   0.49910   0.00000  Uiso   1.00
H119   H     0.52011   0.10701   0.38165   0.00000  Uiso   1.00
H120   H     0.57845   0.29686   0.21542   0.00000  Uiso   1.00
N121   N     0.38265   0.16666   0.24998   0.00000  Uiso   1.00
N122   N     0.61735   0.16669   0.24999   0.00000  Uiso   1.00
O123   O     0.46042   0.22678   0.25000   0.00000  Uiso   1.00
O124   O     0.53961   0.22679   0.25000   0.00000  Uiso   1.00
O125   O     0.44108   0.16665   0.32549   0.00000  Uiso   1.00
O126   O     0.52027   0.16666   0.32549   0.00000  Uiso   1.00
O127   O     0.46039   0.10654   0.24999   0.00000  Uiso   1.00
O128   O     0.53958   0.10655   0.24999   0.00000  Uiso   1.00
O129   O     0.47973   0.16667   0.17451   0.00000  Uiso   1.00
O130   O     0.55892   0.16668   0.17451   0.00000  Uiso   1.00
C131   C     0.39547   0.11005   0.18217   0.00000  Uiso   1.00
C132   C     0.39160   0.06879   0.19829   0.00000  Uiso   1.00
C133   C     0.41045   0.03725   0.16242   0.00000  Uiso   1.00
C134   C     0.43230   0.04655   0.10984   0.00000  Uiso   1.00
C135   C     0.43495   0.08737   0.09310   0.00000  Uiso   1.00
C136   C     0.41619   0.11902   0.12897   0.00000  Uiso   1.00
H137   H     0.37201   0.06097   0.23822   0.00000  Uiso   1.00
H138   H     0.40646   0.00551   0.17519   0.00000  Uiso   1.00
H139   H     0.44579   0.02206   0.08174   0.00000  Uiso   1.00
H140   H     0.44995   0.09419   0.05202   0.00000  Uiso   1.00
H141   H     0.41620   0.15026   0.11509   0.00000  Uiso   1.00
C142   C     0.52299   0.22522   0.06386   0.00000  Uiso   1.00
C143   C     0.49518   0.24727   0.10777   0.00000  Uiso   1.00
C144   C     0.50246   0.28977   0.11214   0.00000  Uiso   1.00
C145   C     0.53618   0.31103   0.07210   0.00000  Uiso   1.00
C146   C     0.56272   0.28977   0.02746   0.00000  Uiso   1.00
C147   C     0.55640   0.24709   0.02342   0.00000  Uiso   1.00
H148   H     0.46772   0.23199   0.13857   0.00000  Uiso   1.00
H149   H     0.48211   0.30620   0.14678   0.00000  Uiso   1.00
H150   H     0.54162   0.01065   0.07563   0.00000  Uiso   1.00
H151   H     0.58879   0.30625   0.49635   0.00000  Uiso   1.00
H152   H     0.57845   0.23090   0.48924   0.00000  Uiso   1.00
C153   C     0.83360   0.24592   0.25024   0.00000  Uiso   1.00
C154   C     0.81802   0.17302   0.48700   0.00000  Uiso   1.00
C155   C     0.82157   0.15614   0.43684   0.00000  Uiso   1.00
C156   C     0.85024   0.15929   0.01460   0.00000  Uiso   1.00
C157   C     0.87814   0.12345   0.49647   0.00000  Uiso   1.00
C158   C     0.87916   0.10566   0.44833   0.00000  Uiso   1.00
C159   C     0.85218   0.12235   0.41829   0.00000  Uiso   1.00
C160   C     0.85453   0.17921   0.06061   0.00000  Uiso   1.00
C161   C     0.89924   0.12046   0.07735   0.00000  Uiso   1.00
C162   C     0.79324   0.17267   0.40687   0.00000  Uiso   1.00
C163   C     0.87756   0.31260   0.23098   0.00000  Uiso   1.00
C164   C     0.80744   0.16701   0.35000   0.00000  Uiso   1.00
C165   C     0.87718   0.02197   0.23024   0.00000  Uiso   1.00
C166   C     0.83307   0.04276   0.24967   0.00000  Uiso   1.00
C167   C     0.78949   0.02068   0.27016   0.00000  Uiso   1.00
C168   C     0.78974   0.31132   0.27021   0.00000  Uiso   1.00
C169   C     0.83379   0.29054   0.25070   0.00000  Uiso   1.00
C170   C     0.96713   0.19237   0.28265   0.00000  Uiso   1.00
C171   C     0.68334   0.19240   0.28260   0.00000  Uiso   1.00
C172   C     0.69877   0.14089   0.21716   0.00000  Uiso   1.00
C173   C     0.98275   0.14129   0.21736   0.00000  Uiso   1.00
C174   C     0.83310   0.08740   0.24978   0.00000  Uiso   1.00
C175   C     0.85930   0.16598   0.15017   0.00000  Uiso   1.00
C176   C     0.90359   0.10505   0.02748   0.00000  Uiso   1.00
C177   C     0.87374   0.15683   0.09446   0.00000  Uiso   1.00
C178   C     0.75620   0.20049   0.42989   0.00000  Uiso   1.00
C179   C     0.74895   0.21359   0.48134   0.00000  Uiso   1.00
C180   C     0.77997   0.20067   0.00945   0.00000  Uiso   1.00
Cu181  Cu    0.78645   0.16666   0.25000   0.00000  Uiso   1.00
Cu182  Cu    0.88022   0.16667   0.25000   0.00000  Uiso   1.00
H183   H     0.91455   0.10334   0.10324   0.00000  Uiso   1.00
H184   H     0.91124   0.03871   0.21422   0.00000  Uiso   1.00
H185   H     0.75551   0.03639   0.28692   0.00000  Uiso   1.00
H186   H     0.75567   0.29460   0.28616   0.00000  Uiso   1.00
H187   H     0.94200   0.21297   0.30890   0.00000  Uiso   1.00
H188   H     0.69537   0.21300   0.30881   0.00000  Uiso   1.00
H189   H     0.96986   0.12078   0.19161   0.00000  Uiso   1.00
H190   H     0.90065   0.07854   0.43398   0.00000  Uiso   1.00
H191   H     0.92400   0.07714   0.01463   0.00000  Uiso   1.00
H192   H     0.73399   0.21325   0.40745   0.00000  Uiso   1.00
H193   H     0.77239   0.21121   0.04948   0.00000  Uiso   1.00
H194   H     0.71999   0.23477   0.49910   0.00000  Uiso   1.00
H195   H     0.85344   0.10701   0.38165   0.00000  Uiso   1.00
H196   H     0.91178   0.29686   0.21542   0.00000  Uiso   1.00
N197   N     0.71598   0.16666   0.24998   0.00000  Uiso   1.00
N198   N     0.95069   0.16669   0.24999   0.00000  Uiso   1.00
O199   O     0.79375   0.22678   0.25000   0.00000  Uiso   1.00
O200   O     0.87294   0.22679   0.25000   0.00000  Uiso   1.00
O201   O     0.77441   0.16665   0.32549   0.00000  Uiso   1.00
O202   O     0.85360   0.16666   0.32549   0.00000  Uiso   1.00
O203   O     0.79373   0.10654   0.24999   0.00000  Uiso   1.00
O204   O     0.87292   0.10655   0.24999   0.00000  Uiso   1.00
O205   O     0.81306   0.16667   0.17451   0.00000  Uiso   1.00
O206   O     0.89225   0.16668   0.17451   0.00000  Uiso   1.00
C207   C     0.72880   0.11005   0.18217   0.00000  Uiso   1.00
C208   C     0.72494   0.06879   0.19829   0.00000  Uiso   1.00
C209   C     0.74378   0.03725   0.16242   0.00000  Uiso   1.00
C210   C     0.76563   0.04655   0.10984   0.00000  Uiso   1.00
C211   C     0.76828   0.08737   0.09310   0.00000  Uiso   1.00
C212   C     0.74952   0.11902   0.12897   0.00000  Uiso   1.00
H213   H     0.70534   0.06097   0.23822   0.00000  Uiso   1.00
H214   H     0.73980   0.00551   0.17519   0.00000  Uiso   1.00
H215   H     0.77912   0.02206   0.08174   0.00000  Uiso   1.00
H216   H     0.78328   0.09419   0.05202   0.00000  Uiso   1.00
H217   H     0.74953   0.15026   0.11509   0.00000  Uiso   1.00
C218   C     0.85632   0.22522   0.06386   0.00000  Uiso   1.00
C219   C     0.82851   0.24727   0.10777   0.00000  Uiso   1.00
C220   C     0.83580   0.28977   0.11214   0.00000  Uiso   1.00
C221   C     0.86951   0.31103   0.07210   0.00000  Uiso   1.00
C222   C     0.89605   0.28977   0.02746   0.00000  Uiso   1.00
C223   C     0.88974   0.24709   0.02342   0.00000  Uiso   1.00
H224   H     0.80105   0.23199   0.13857   0.00000  Uiso   1.00
H225   H     0.81545   0.30620   0.14678   0.00000  Uiso   1.00
H226   H     0.87495   0.01065   0.07563   0.00000  Uiso   1.00
H227   H     0.92212   0.30625   0.49635   0.00000  Uiso   1.00
H228   H     0.91178   0.23090   0.48924   0.00000  Uiso   1.00
C229   C     0.16694   0.57925   0.25024   0.00000  Uiso   1.00
C230   C     0.15135   0.50635   0.48700   0.00000  Uiso   1.00
C231   C     0.15490   0.48947   0.43684   0.00000  Uiso   1.00
C232   C     0.18358   0.49262   0.01460   0.00000  Uiso   1.00
C233   C     0.21147   0.45678   0.49647   0.00000  Uiso   1.00
C234   C     0.21249   0.43900   0.44833   0.00000  Uiso   1.00
C235   C     0.18551   0.45568   0.41829   0.00000  Uiso   1.00
C236   C     0.18786   0.51254   0.06061   0.00000  Uiso   1.00
C237   C     0.23258   0.45380   0.07735   0.00000  Uiso   1.00
C238   C     0.12657   0.50600   0.40687   0.00000  Uiso   1.00
C239   C     0.21090   0.64593   0.23098   0.00000  Uiso   1.00
C240   C     0.14077   0.50034   0.35000   0.00000  Uiso   1.00
C241   C     0.21051   0.35531   0.23024   0.00000  Uiso   1.00
C242   C     0.16641   0.37609   0.24967   0.00000  Uiso   1.00
C243   C     0.12282   0.35402   0.27016   0.00000  Uiso   1.00
C244   C     0.12308   0.64466   0.27021   0.00000  Uiso   1.00
C245   C     0.16713   0.62387   0.25070   0.00000  Uiso   1.00
C246   C     0.30046   0.52571   0.28265   0.00000  Uiso   1.00
C247   C     0.01667   0.52573   0.28260   0.00000  Uiso   1.00
C248   C     0.03211   0.47422   0.21716   0.00000  Uiso   1.00
C249   C     0.31608   0.47462   0.21736   0.00000  Uiso   1.00
C250   C     0.16644   0.42073   0.24978   0.00000  Uiso   1.00
C251   C     0.19264   0.49931   0.15017   0.00000  Uiso   1.00
C252   C     0.23692   0.43838   0.02748   0.00000  Uiso   1.00
C253   C     0.20708   0.49016   0.09446   0.00000  Uiso   1.00
C254   C     0.08954   0.53383   0.42989   0.00000  Uiso   1.00
C255   C     0.08229   0.54692   0.48134   0.00000  Uiso   1.00
C256   C     0.11330   0.53400   0.00945   0.00000  Uiso   1.00
Cu257  Cu    0.11978   0.49999   0.25000   0.00000  Uiso   1.00
Cu258  Cu    0.21355   0.50001   0.25000   0.00000  Uiso   1.00
H259   H     0.24789   0.43667   0.10324   0.00000  Uiso   1.00
H260   H     0.24457   0.37205   0.21422   0.00000  Uiso   1.00
H261   H     0.08884   0.36972   0.28692   0.00000  Uiso   1.00
H262   H     0.08900   0.62794   0.28616   0.00000  Uiso   1.00
H263   H     0.27533   0.54631   0.30890   0.00000  Uiso   1.00
H264   H     0.02871   0.54633   0.30881   0.00000  Uiso   1.00
H265   H     0.30319   0.45412   0.19161   0.00000  Uiso   1.00
H266   H     0.23398   0.41187   0.43398   0.00000  Uiso   1.00
H267   H     0.25733   0.41047   0.01463   0.00000  Uiso   1.00
H268   H     0.06732   0.54659   0.40745   0.00000  Uiso   1.00
H269   H     0.10572   0.54454   0.04948   0.00000  Uiso   1.00
H270   H     0.05332   0.56811   0.49910   0.00000  Uiso   1.00
H271   H     0.18677   0.44035   0.38165   0.00000  Uiso   1.00
H272   H     0.24511   0.63019   0.21542   0.00000  Uiso   1.00
N273   N     0.04931   0.49999   0.24998   0.00000  Uiso   1.00
N274   N     0.28402   0.50002   0.24999   0.00000  Uiso   1.00
O275   O     0.12708   0.56011   0.25000   0.00000  Uiso   1.00
O276   O     0.20627   0.56012   0.25000   0.00000  Uiso   1.00
O277   O     0.10775   0.49998   0.32549   0.00000  Uiso   1.00
O278   O     0.18694   0.49999   0.32549   0.00000  Uiso   1.00
O279   O     0.12706   0.43988   0.24999   0.00000  Uiso   1.00
O280   O     0.20625   0.43989   0.24999   0.00000  Uiso   1.00
O281   O     0.14640   0.50001   0.17451   0.00000  Uiso   1.00
O282   O     0.22559   0.50002   0.17451   0.00000  Uiso   1.00
C283   C     0.06214   0.44338   0.18217   0.00000  Uiso   1.00
C284   C     0.05827   0.40212   0.19829   0.00000  Uiso   1.00
C285   C     0.07711   0.37058   0.16242   0.00000  Uiso   1.00
C286   C     0.09897   0.37988   0.10984   0.00000  Uiso   1.00
C287   C     0.10161   0.42070   0.09310   0.00000  Uiso   1.00
C288   C     0.08285   0.45236   0.12897   0.00000  Uiso   1.00
H289   H     0.03867   0.39431   0.23822   0.00000  Uiso   1.00
H290   H     0.07313   0.33884   0.17519   0.00000  Uiso   1.00
H291   H     0.11246   0.35539   0.08174   0.00000  Uiso   1.00
H292   H     0.11662   0.42752   0.05202   0.00000  Uiso   1.00
H293   H     0.08286   0.48359   0.11509   0.00000  Uiso   1.00
C294   C     0.18965   0.55855   0.06386   0.00000  Uiso   1.00
C295   C     0.16184   0.58060   0.10777   0.00000  Uiso   1.00
C296   C     0.16913   0.62310   0.11214   0.00000  Uiso   1.00
C297   C     0.20285   0.64437   0.07210   0.00000  Uiso   1.00
C298   C     0.22938   0.62310   0.02746   0.00000  Uiso   1.00
C299   C     0.22307   0.58042   0.02342   0.00000  Uiso   1.00
H300   H     0.13438   0.56533   0.13857   0.00000  Uiso   1.00
H301   H     0.14878   0.63953   0.14678   0.00000  Uiso   1.00
H302   H     0.20828   0.34398   0.07563   0.00000  Uiso   1.00
H303   H     0.25545   0.63958   0.49635   0.00000  Uiso   1.00
H304   H     0.24512   0.56424   0.48924   0.00000  Uiso   1.00
C305   C     0.50027   0.57925   0.25024   0.00000  Uiso   1.00
C306   C     0.48469   0.50635   0.48700   0.00000  Uiso   1.00
C307   C     0.48824   0.48947   0.43684   0.00000  Uiso   1.00
C308   C     0.51691   0.49262   0.01460   0.00000  Uiso   1.00
C309   C     0.54481   0.45678   0.49647   0.00000  Uiso   1.00
C310   C     0.54582   0.43900   0.44833   0.00000  Uiso   1.00
C311   C     0.51885   0.45568   0.41829   0.00000  Uiso   1.00
C312   C     0.52119   0.51254   0.06061   0.00000  Uiso   1.00
C313   C     0.56591   0.45380   0.07735   0.00000  Uiso   1.00
C314   C     0.45991   0.50600   0.40687   0.00000  Uiso   1.00
C315   C     0.54423   0.64593   0.23098   0.00000  Uiso   1.00
C316   C     0.47410   0.50034   0.35000   0.00000  Uiso   1.00
C317   C     0.54384   0.35531   0.23024   0.00000  Uiso   1.00
C318   C     0.49974   0.37609   0.24967   0.00000  Uiso   1.00
C319   C     0.45616   0.35402   0.27016   0.00000  Uiso   1.00
C320   C     0.45641   0.64466   0.27021   0.00000  Uiso   1.00
C321   C     0.50046   0.62387   0.25070   0.00000  Uiso   1.00
C322   C     0.63379   0.52571   0.28265   0.00000  Uiso   1.00
C323   C     0.35001   0.52573   0.28260   0.00000  Uiso   1.00
C324   C     0.36544   0.47422   0.21716   0.00000  Uiso   1.00
C325   C     0.64941   0.47462   0.21736   0.00000  Uiso   1.00
C326   C     0.49977   0.42073   0.24978   0.00000  Uiso   1.00
C327   C     0.52597   0.49931   0.15017   0.00000  Uiso   1.00
C328   C     0.57026   0.43838   0.02748   0.00000  Uiso   1.00
C329   C     0.54041   0.49016   0.09446   0.00000  Uiso   1.00
C330   C     0.42287   0.53383   0.42989   0.00000  Uiso   1.00
C331   C     0.41562   0.54692   0.48134   0.00000  Uiso   1.00
C332   C     0.44664   0.53400   0.00945   0.00000  Uiso   1.00
Cu333  Cu    0.45311   0.49999   0.25000   0.00000  Uiso   1.00
Cu334  Cu    0.54689   0.50001   0.25000   0.00000  Uiso   1.00
H335   H     0.58122   0.43667   0.10324   0.00000  Uiso   1.00
H336   H     0.57790   0.37205   0.21422   0.00000  Uiso   1.00
H337   H     0.42217   0.36972   0.28692   0.00000  Uiso   1.00
H338   H     0.42233   0.62794   0.28616   0.00000  Uiso   1.00
H339   H     0.60866   0.54631   0.30890   0.00000  Uiso   1.00
H340   H     0.36204   0.54633   0.30881   0.00000  Uiso   1.00
H341   H     0.63652   0.45412   0.19161   0.00000  Uiso   1.00
H342   H     0.56731   0.41187   0.43398   0.00000  Uiso   1.00
H343   H     0.59066   0.41047   0.01463   0.00000  Uiso   1.00
H344   H     0.40066   0.54659   0.40745   0.00000  Uiso   1.00
H345   H     0.43905   0.54454   0.04948   0.00000  Uiso   1.00
H346   H     0.38665   0.56811   0.49910   0.00000  Uiso   1.00
H347   H     0.52011   0.44035   0.38165   0.00000  Uiso   1.00
H348   H     0.57845   0.63019   0.21542   0.00000  Uiso   1.00
N349   N     0.38265   0.49999   0.24998   0.00000  Uiso   1.00
N350   N     0.61735   0.50002   0.24999   0.00000  Uiso   1.00
O351   O     0.46042   0.56011   0.25000   0.00000  Uiso   1.00
O352   O     0.53961   0.56012   0.25000   0.00000  Uiso   1.00
O353   O     0.44108   0.49998   0.32549   0.00000  Uiso   1.00
O354   O     0.52027   0.49999   0.32549   0.00000  Uiso   1.00
O355   O     0.46039   0.43988   0.24999   0.00000  Uiso   1.00
O356   O     0.53958   0.43989   0.24999   0.00000  Uiso   1.00
O357   O     0.47973   0.50001   0.17451   0.00000  Uiso   1.00
O358   O     0.55892   0.50002   0.17451   0.00000  Uiso   1.00
C359   C     0.39547   0.44338   0.18217   0.00000  Uiso   1.00
C360   C     0.39160   0.40212   0.19829   0.00000  Uiso   1.00
C361   C     0.41045   0.37058   0.16242   0.00000  Uiso   1.00
C362   C     0.43230   0.37988   0.10984   0.00000  Uiso   1.00
C363   C     0.43495   0.42070   0.09310   0.00000  Uiso   1.00
C364   C     0.41619   0.45236   0.12897   0.00000  Uiso   1.00
H365   H     0.37201   0.39431   0.23822   0.00000  Uiso   1.00
H366   H     0.40646   0.33884   0.17519   0.00000  Uiso   1.00
H367   H     0.44579   0.35539   0.08174   0.00000  Uiso   1.00
H368   H     0.44995   0.42752   0.05202   0.00000  Uiso   1.00
H369   H     0.41620   0.48359   0.11509   0.00000  Uiso   1.00
C370   C     0.52299   0.55855   0.06386   0.00000  Uiso   1.00
C371   C     0.49518   0.58060   0.10777   0.00000  Uiso   1.00
C372   C     0.50246   0.62310   0.11214   0.00000  Uiso   1.00
C373   C     0.53618   0.64437   0.07210   0.00000  Uiso   1.00
C374   C     0.56272   0.62310   0.02746   0.00000  Uiso   1.00
C375   C     0.55640   0.58042   0.02342   0.00000  Uiso   1.00
H376   H     0.46772   0.56533   0.13857   0.00000  Uiso   1.00
H377   H     0.48211   0.63953   0.14678   0.00000  Uiso   1.00
H378   H     0.54162   0.34398   0.07563   0.00000  Uiso   1.00
H379   H     0.58879   0.63958   0.49635   0.00000  Uiso   1.00
H380   H     0.57845   0.56424   0.48924   0.00000  Uiso   1.00
C381   C     0.83360   0.57925   0.25024   0.00000  Uiso   1.00
C382   C     0.81802   0.50635   0.48700   0.00000  Uiso   1.00
C383   C     0.82157   0.48947   0.43684   0.00000  Uiso   1.00
C384   C     0.85024   0.49262   0.01460   0.00000  Uiso   1.00
C385   C     0.87814   0.45678   0.49647   0.00000  Uiso   1.00
C386   C     0.87916   0.43900   0.44833   0.00000  Uiso   1.00
C387   C     0.85218   0.45568   0.41829   0.00000  Uiso   1.00
C388   C     0.85453   0.51254   0.06061   0.00000  Uiso   1.00
C389   C     0.89924   0.45380   0.07735   0.00000  Uiso   1.00
C390   C     0.79324   0.50600   0.40687   0.00000  Uiso   1.00
C391   C     0.87756   0.64593   0.23098   0.00000  Uiso   1.00
C392   C     0.80744   0.50034   0.35000   0.00000  Uiso   1.00
C393   C     0.87718   0.35531   0.23024   0.00000  Uiso   1.00
C394   C     0.83307   0.37609   0.24967   0.00000  Uiso   1.00
C395   C     0.78949   0.35402   0.27016   0.00000  Uiso   1.00
C396   C     0.78974   0.64466   0.27021   0.00000  Uiso   1.00
C397   C     0.83379   0.62387   0.25070   0.00000  Uiso   1.00
C398   C     0.96713   0.52571   0.28265   0.00000  Uiso   1.00
C399   C     0.68334   0.52573   0.28260   0.00000  Uiso   1.00
C400   C     0.69877   0.47422   0.21716   0.00000  Uiso   1.00
C401   C     0.98275   0.47462   0.21736   0.00000  Uiso   1.00
C402   C     0.83310   0.42073   0.24978   0.00000  Uiso   1.00
C403   C     0.85930   0.49931   0.15017   0.00000  Uiso   1.00
C404   C     0.90359   0.43838   0.02748   0.00000  Uiso   1.00
C405   C     0.87374   0.49016   0.09446   0.00000  Uiso   1.00
C406   C     0.75620   0.53383   0.42989   0.00000  Uiso   1.00
C407   C     0.74895   0.54692   0.48134   0.00000  Uiso   1.00
C408   C     0.77997   0.53400   0.00945   0.00000  Uiso   1.00
Cu409  Cu    0.78645   0.49999   0.25000   0.00000  Uiso   1.00
Cu410  Cu    0.88022   0.50001   0.25000   0.00000  Uiso   1.00
H411   H     0.91455   0.43667   0.10324   0.00000  Uiso   1.00
H412   H     0.91124   0.37205   0.21422   0.00000  Uiso   1.00
H413   H     0.75551   0.36972   0.28692   0.00000  Uiso   1.00
H414   H     0.75567   0.62794   0.28616   0.00000  Uiso   1.00
H415   H     0.94200   0.54631   0.30890   0.00000  Uiso   1.00
H416   H     0.69537   0.54633   0.30881   0.00000  Uiso   1.00
H417   H     0.96986   0.45412   0.19161   0.00000  Uiso   1.00
H418   H     0.90065   0.41187   0.43398   0.00000  Uiso   1.00
H419   H     0.92400   0.41047   0.01463   0.00000  Uiso   1.00
H420   H     0.73399   0.54659   0.40745   0.00000  Uiso   1.00
H421   H     0.77239   0.54454   0.04948   0.00000  Uiso   1.00
H422   H     0.71999   0.56811   0.49910   0.00000  Uiso   1.00
H423   H     0.85344   0.44035   0.38165   0.00000  Uiso   1.00
H424   H     0.91178   0.63019   0.21542   0.00000  Uiso   1.00
N425   N     0.71598   0.49999   0.24998   0.00000  Uiso   1.00
N426   N     0.95069   0.50002   0.24999   0.00000  Uiso   1.00
O427   O     0.79375   0.56011   0.25000   0.00000  Uiso   1.00
O428   O     0.87294   0.56012   0.25000   0.00000  Uiso   1.00
O429   O     0.77441   0.49998   0.32549   0.00000  Uiso   1.00
O430   O     0.85360   0.49999   0.32549   0.00000  Uiso   1.00
O431   O     0.79373   0.43988   0.24999   0.00000  Uiso   1.00
O432   O     0.87292   0.43989   0.24999   0.00000  Uiso   1.00
O433   O     0.81306   0.50001   0.17451   0.00000  Uiso   1.00
O434   O     0.89225   0.50002   0.17451   0.00000  Uiso   1.00
C435   C     0.72880   0.44338   0.18217   0.00000  Uiso   1.00
C436   C     0.72494   0.40212   0.19829   0.00000  Uiso   1.00
C437   C     0.74378   0.37058   0.16242   0.00000  Uiso   1.00
C438   C     0.76563   0.37988   0.10984   0.00000  Uiso   1.00
C439   C     0.76828   0.42070   0.09310   0.00000  Uiso   1.00
C440   C     0.74952   0.45236   0.12897   0.00000  Uiso   1.00
H441   H     0.70534   0.39431   0.23822   0.00000  Uiso   1.00
H442   H     0.73980   0.33884   0.17519   0.00000  Uiso   1.00
H443   H     0.77912   0.35539   0.08174   0.00000  Uiso   1.00
H444   H     0.78328   0.42752   0.05202   0.00000  Uiso   1.00
H445   H     0.74953   0.48359   0.11509   0.00000  Uiso   1.00
C446   C     0.85632   0.55855   0.06386   0.00000  Uiso   1.00
C447   C     0.82851   0.58060   0.10777   0.00000  Uiso   1.00
C448   C     0.83580   0.62310   0.11214   0.00000  Uiso   1.00
C449   C     0.86951   0.64437   0.07210   0.00000  Uiso   1.00
C450   C     0.89605   0.62310   0.02746   0.00000  Uiso   1.00
C451   C     0.88974   0.58042   0.02342   0.00000  Uiso   1.00
H452   H     0.80105   0.56533   0.13857   0.00000  Uiso   1.00
H453   H     0.81545   0.63953   0.14678   0.00000  Uiso   1.00
H454   H     0.87495   0.34398   0.07563   0.00000  Uiso   1.00
H455   H     0.92212   0.63958   0.49635   0.00000  Uiso   1.00
H456   H     0.91178   0.56424   0.48924   0.00000  Uiso   1.00
C457   C     0.16694   0.91259   0.25024   0.00000  Uiso   1.00
C458   C     0.15135   0.83969   0.48700   0.00000  Uiso   1.00
C459   C     0.15490   0.82280   0.43684   0.00000  Uiso   1.00
C460   C     0.18358   0.82596   0.01460   0.00000  Uiso   1.00
C461   C     0.21147   0.79012   0.49647   0.00000  Uiso   1.00
C462   C     0.21249   0.77233   0.44833   0.00000  Uiso   1.00
C463   C     0.18551   0.78902   0.41829   0.00000  Uiso   1.00
C464   C     0.18786   0.84588   0.06061   0.00000  Uiso   1.00
C465   C     0.23258   0.78713   0.07735   0.00000  Uiso   1.00
C466   C     0.12657   0.83934   0.40687   0.00000  Uiso   1.00
C467   C     0.21090   0.97926   0.23098   0.00000  Uiso   1.00
C468   C     0.14077   0.83368   0.35000   0.00000  Uiso   1.00
C469   C     0.21051   0.68864   0.23024   0.00000  Uiso   1.00
C470   C     0.16641   0.70942   0.24967   0.00000  Uiso   1.00
C471   C     0.12282   0.68735   0.27016   0.00000  Uiso   1.00
C472   C     0.12308   0.97799   0.27021   0.00000  Uiso   1.00
C473   C     0.16713   0.95721   0.25070   0.00000  Uiso   1.00
C474   C     0.30046   0.85904   0.28265   0.00000  Uiso   1.00
C475   C     0.01667   0.85907   0.28260   0.00000  Uiso   1.00
C476   C     0.03211   0.80755   0.21716   0.00000  Uiso   1.00
C477   C     0.31608   0.80796   0.21736   0.00000  Uiso   1.00
C478   C     0.16644   0.75407   0.24978   0.00000  Uiso   1.00
C479   C     0.19264   0.83265   0.15017   0.00000  Uiso   1.00
C480   C     0.23692   0.77172   0.02748   0.00000  Uiso   1.00
C481   C     0.20708   0.82350   0.09446   0.00000  Uiso   1.00
C482   C     0.08954   0.86716   0.42989   0.00000  Uiso   1.00
C483   C     0.08229   0.88026   0.48134   0.00000  Uiso   1.00
C484   C     0.11330   0.86734   0.00945   0.00000  Uiso   1.00
Cu485  Cu    0.11978   0.83333   0.25000   0.00000  Uiso   1.00
Cu486  Cu    0.21355   0.83334   0.25000   0.00000  Uiso   1.00
H487   H     0.24789   0.77001   0.10324   0.00000  Uiso   1.00
H488   H     0.24457   0.70538   0.21422   0.00000  Uiso   1.00
H489   H     0.08884   0.70305   0.28692   0.00000  Uiso   1.00
H490   H     0.08900   0.96127   0.28616   0.00000  Uiso   1.00
H491   H     0.27533   0.87964   0.30890   0.00000  Uiso   1.00
H492   H     0.02871   0.87966   0.30881   0.00000  Uiso   1.00
H493   H     0.30319   0.78745   0.19161   0.00000  Uiso   1.00
H494   H     0.23398   0.74521   0.43398   0.00000  Uiso   1.00
H495   H     0.25733   0.74381   0.01463   0.00000  Uiso   1.00
H496   H     0.06732   0.87992   0.40745   0.00000  Uiso   1.00
H497   H     0.10572   0.87788   0.04948   0.00000  Uiso   1.00
H498   H     0.05332   0.90144   0.49910   0.00000  Uiso   1.00
H499   H     0.18677   0.77368   0.38165   0.00000  Uiso   1.00
H500   H     0.24511   0.96352   0.21542   0.00000  Uiso   1.00
N501   N     0.04931   0.83332   0.24998   0.00000  Uiso   1.00
N502   N     0.28402   0.83335   0.24999   0.00000  Uiso   1.00
O503   O     0.12708   0.89345   0.25000   0.00000  Uiso   1.00
O504   O     0.20627   0.89346   0.25000   0.00000  Uiso   1.00
O505   O     0.10775   0.83332   0.32549   0.00000  Uiso   1.00
O506   O     0.18694   0.83333   0.32549   0.00000  Uiso   1.00
O507   O     0.12706   0.77321   0.24999   0.00000  Uiso   1.00
O508   O     0.20625   0.77322   0.24999   0.00000  Uiso   1.00
O509   O     0.14640   0.83334   0.17451   0.00000  Uiso   1.00
O510   O     0.22559   0.83335   0.17451   0.00000  Uiso   1.00
C511   C     0.06214   0.77671   0.18217   0.00000  Uiso   1.00
C512   C     0.05827   0.73545   0.19829   0.00000  Uiso   1.00
C513   C     0.07711   0.70391   0.16242   0.00000  Uiso   1.00
C514   C     0.09897   0.71322   0.10984   0.00000  Uiso   1.00
C515   C     0.10161   0.75403   0.09310   0.00000  Uiso   1.00
C516   C     0.08285   0.78569   0.12897   0.00000  Uiso   1.00
H517   H     0.03867   0.72764   0.23822   0.00000  Uiso   1.00
H518   H     0.07313   0.67217   0.17519   0.00000  Uiso   1.00
H519   H     0.11246   0.68872   0.08174   0.00000  Uiso   1.00
H520   H     0.11662   0.76085   0.05202   0.00000  Uiso   1.00
H521   H     0.08286   0.81692   0.11509   0.00000  Uiso   1.00
C522   C     0.18965   0.89189   0.06386   0.00000  Uiso   1.00
C523   C     0.16184   0.91394   0.10777   0.00000  Uiso   1.00
C524   C     0.16913   0.95644   0.11214   0.00000  Uiso   1.00
C525   C     0.20285   0.97770   0.07210   0.00000  Uiso   1.00
C526   C     0.22938   0.95644   0.02746   0.00000  Uiso   1.00
C527   C     0.22307   0.91375   0.02342   0.00000  Uiso   1.00
H528   H     0.13438   0.89866   0.13857   0.00000  Uiso   1.00
H529   H     0.14878   0.97286   0.14678   0.00000  Uiso   1.00
H530   H     0.20828   0.67732   0.07563   0.00000  Uiso   1.00
H531   H     0.25545   0.97292   0.49635   0.00000  Uiso   1.00
H532   H     0.24512   0.89757   0.48924   0.00000  Uiso   1.00
C533   C     0.50027   0.91259   0.25024   0.00000  Uiso   1.00
C534   C     0.48469   0.83969   0.48700   0.00000  Uiso   1.00
C535   C     0.48824   0.82280   0.43684   0.00000  Uiso   1.00
C536   C     0.51691   0.82596   0.01460   0.00000  Uiso   1.00
C537   C     0.54481   0.79012   0.49647   0.00000  Uiso   1.00
C538   C     0.54582   0.77233   0.44833   0.00000  Uiso   1.00
C539   C     0.51885   0.78902   0.41829   0.00000  Uiso   1.00
C540   C     0.52119   0.84588   0.06061   0.00000  Uiso   1.00
C541   C     0.56591   0.78713   0.07735   0.00000  Uiso   1.00
C542   C     0.45991   0.83934   0.40687   0.00000  Uiso   1.00
C543   C     0.54423   0.97926   0.23098   0.00000  Uiso   1.00
C544   C     0.47410   0.83368   0.35000   0.00000  Uiso   1.00
C545   C     0.54384   0.68864   0.23024   0.00000  Uiso   1.00
C546   C     0.49974   0.70942   0.24967   0.00000  Uiso   1.00
C547   C     0.45616   0.68735   0.27016   0.00000  Uiso   1.00
C548   C     0.45641   0.97799   0.27021   0.00000  Uiso   1.00
C549   C     0.50046   0.95721   0.25070   0.00000  Uiso   1.00
C550   C     0.63379   0.85904   0.28265   0.00000  Uiso   1.00
C551   C     0.35001   0.85907   0.28260   0.00000  Uiso   1.00
C552   C     0.36544   0.80755   0.21716   0.00000  Uiso   1.00
C553   C     0.64941   0.80796   0.21736   0.00000  Uiso   1.00
C554   C     0.49977   0.75407   0.24978   0.00000  Uiso   1.00
C555   C     0.52597   0.83265   0.15017   0.00000  Uiso   1.00
C556   C     0.57026   0.77172   0.02748   0.00000  Uiso   1.00
C557   C     0.54041   0.82350   0.09446   0.00000  Uiso   1.00
C558   C     0.42287   0.86716   0.42989   0.00000  Uiso   1.00
C559   C     0.41562   0.88026   0.48134   0.00000  Uiso   1.00
C560   C     0.44664   0.86734   0.00945   0.00000  Uiso   1.00
Cu561  Cu    0.45311   0.83333   0.25000   0.00000  Uiso   1.00
Cu562  Cu    0.54689   0.83334   0.25000   0.00000  Uiso   1.00
H563   H     0.58122   0.77001   0.10324   0.00000  Uiso   1.00
H564   H     0.57790   0.70538   0.21422   0.00000  Uiso   1.00
H565   H     0.42217   0.70305   0.28692   0.00000  Uiso   1.00
H566   H     0.42233   0.96127   0.28616   0.00000  Uiso   1.00
H567   H     0.60866   0.87964   0.30890   0.00000  Uiso   1.00
H568   H     0.36204   0.87966   0.30881   0.00000  Uiso   1.00
H569   H     0.63652   0.78745   0.19161   0.00000  Uiso   1.00
H570   H     0.56731   0.74521   0.43398   0.00000  Uiso   1.00
H571   H     0.59066   0.74381   0.01463   0.00000  Uiso   1.00
H572   H     0.40066   0.87992   0.40745   0.00000  Uiso   1.00
H573   H     0.43905   0.87788   0.04948   0.00000  Uiso   1.00
H574   H     0.38665   0.90144   0.49910   0.00000  Uiso   1.00
H575   H     0.52011   0.77368   0.38165   0.00000  Uiso   1.00
H576   H     0.57845   0.96352   0.21542   0.00000  Uiso   1.00
N577   N     0.38265   0.83332   0.24998   0.00000  Uiso   1.00
N578   N     0.61735   0.83335   0.24999   0.00000  Uiso   1.00
O579   O     0.46042   0.89345   0.25000   0.00000  Uiso   1.00
O580   O     0.53961   0.89346   0.25000   0.00000  Uiso   1.00
O581   O     0.44108   0.83332   0.32549   0.00000  Uiso   1.00
O582   O     0.52027   0.83333   0.32549   0.00000  Uiso   1.00
O583   O     0.46039   0.77321   0.24999   0.00000  Uiso   1.00
O584   O     0.53958   0.77322   0.24999   0.00000  Uiso   1.00
O585   O     0.47973   0.83334   0.17451   0.00000  Uiso   1.00
O586   O     0.55892   0.83335   0.17451   0.00000  Uiso   1.00
C587   C     0.39547   0.77671   0.18217   0.00000  Uiso   1.00
C588   C     0.39160   0.73545   0.19829   0.00000  Uiso   1.00
C589   C     0.41045   0.70391   0.16242   0.00000  Uiso   1.00
C590   C     0.43230   0.71322   0.10984   0.00000  Uiso   1.00
C591   C     0.43495   0.75403   0.09310   0.00000  Uiso   1.00
C592   C     0.41619   0.78569   0.12897   0.00000  Uiso   1.00
H593   H     0.37201   0.72764   0.23822   0.00000  Uiso   1.00
H594   H     0.40646   0.67217   0.17519   0.00000  Uiso   1.00
H595   H     0.44579   0.68872   0.08174   0.00000  Uiso   1.00
H596   H     0.44995   0.76085   0.05202   0.00000  Uiso   1.00
H597   H     0.41620   0.81692   0.11509   0.00000  Uiso   1.00
C598   C     0.52299   0.89189   0.06386   0.00000  Uiso   1.00
C599   C     0.49518   0.91394   0.10777   0.00000  Uiso   1.00
C600   C     0.50246   0.95644   0.11214   0.00000  Uiso   1.00
C601   C     0.53618   0.97770   0.07210   0.00000  Uiso   1.00
C602   C     0.56272   0.95644   0.02746   0.00000  Uiso   1.00
C603   C     0.55640   0.91375   0.02342   0.00000  Uiso   1.00
H604   H     0.46772   0.89866   0.13857   0.00000  Uiso   1.00
H605   H     0.48211   0.97286   0.14678   0.00000  Uiso   1.00
H606   H     0.54162   0.67732   0.07563   0.00000  Uiso   1.00
H607   H     0.58879   0.97292   0.49635   0.00000  Uiso   1.00
H608   H     0.57845   0.89757   0.48924   0.00000  Uiso   1.00
C609   C     0.83360   0.91259   0.25024   0.00000  Uiso   1.00
C610   C     0.81802   0.83969   0.48700   0.00000  Uiso   1.00
C611   C     0.82157   0.82280   0.43684   0.00000  Uiso   1.00
C612   C     0.85024   0.82596   0.01460   0.00000  Uiso   1.00
C613   C     0.87814   0.79012   0.49647   0.00000  Uiso   1.00
C614   C     0.87916   0.77233   0.44833   0.00000  Uiso   1.00
C615   C     0.85218   0.78902   0.41829   0.00000  Uiso   1.00
C616   C     0.85453   0.84588   0.06061   0.00000  Uiso   1.00
C617   C     0.89924   0.78713   0.07735   0.00000  Uiso   1.00
C618   C     0.79324   0.83934   0.40687   0.00000  Uiso   1.00
C619   C     0.87756   0.97926   0.23098   0.00000  Uiso   1.00
C620   C     0.80744   0.83368   0.35000   0.00000  Uiso   1.00
C621   C     0.87718   0.68864   0.23024   0.00000  Uiso   1.00
C622   C     0.83307   0.70942   0.24967   0.00000  Uiso   1.00
C623   C     0.78949   0.68735   0.27016   0.00000  Uiso   1.00
C624   C     0.78974   0.97799   0.27021   0.00000  Uiso   1.00
C625   C     0.83379   0.95721   0.25070   0.00000  Uiso   1.00
C626   C     0.96713   0.85904   0.28265   0.00000  Uiso   1.00
C627   C     0.68334   0.85907   0.28260   0.00000  Uiso   1.00
C628   C     0.69877   0.80755   0.21716   0.00000  Uiso   1.00
C629   C     0.98275   0.80796   0.21736   0.00000  Uiso   1.00
C630   C     0.83310   0.75407   0.24978   0.00000  Uiso   1.00
C631   C     0.85930   0.83265   0.15017   0.00000  Uiso   1.00
C632   C     0.90359   0.77172   0.02748   0.00000  Uiso   1.00
C633   C     0.87374   0.82350   0.09446   0.00000  Uiso   1.00
C634   C     0.75620   0.86716   0.42989   0.00000  Uiso   1.00
C635   C     0.74895   0.88026   0.48134   0.00000  Uiso   1.00
C636   C     0.77997   0.86734   0.00945   0.00000  Uiso   1.00
Cu637  Cu    0.78645   0.83333   0.25000   0.00000  Uiso   1.00
Cu638  Cu    0.88022   0.83334   0.25000   0.00000  Uiso   1.00
H639   H     0.91455   0.77001   0.10324   0.00000  Uiso   1.00
H640   H     0.91124   0.70538   0.21422   0.00000  Uiso   1.00
H641   H     0.75551   0.70305   0.28692   0.00000  Uiso   1.00
H642   H     0.75567   0.96127   0.28616   0.00000  Uiso   1.00
H643   H     0.94200   0.87964   0.30890   0.00000  Uiso   1.00
H644   H     0.69537   0.87966   0.30881   0.00000  Uiso   1.00
H645   H     0.96986   0.78745   0.19161   0.00000  Uiso   1.00
H646   H     0.90065   0.74521   0.43398   0.00000  Uiso   1.00
H647   H     0.92400   0.74381   0.01463   0.00000  Uiso   1.00
H648   H     0.73399   0.87992   0.40745   0.00000  Uiso   1.00
H649   H     0.77239   0.87788   0.04948   0.00000  Uiso   1.00
H650   H     0.71999   0.90144   0.49910   0.00000  Uiso   1.00
H651   H     0.85344   0.77368   0.38165   0.00000  Uiso   1.00
H652   H     0.91178   0.96352   0.21542   0.00000  Uiso   1.00
N653   N     0.71598   0.83332   0.24998   0.00000  Uiso   1.00
N654   N     0.95069   0.83335   0.24999   0.00000  Uiso   1.00
O655   O     0.79375   0.89345   0.25000   0.00000  Uiso   1.00
O656   O     0.87294   0.89346   0.25000   0.00000  Uiso   1.00
O657   O     0.77441   0.83332   0.32549   0.00000  Uiso   1.00
O658   O     0.85360   0.83333   0.32549   0.00000  Uiso   1.00
O659   O     0.79373   0.77321   0.24999   0.00000  Uiso   1.00
O660   O     0.87292   0.77322   0.24999   0.00000  Uiso   1.00
O661   O     0.81306   0.83334   0.17451   0.00000  Uiso   1.00
O662   O     0.89225   0.83335   0.17451   0.00000  Uiso   1.00
C663   C     0.72880   0.77671   0.18217   0.00000  Uiso   1.00
C664   C     0.72494   0.73545   0.19829   0.00000  Uiso   1.00
C665   C     0.74378   0.70391   0.16242   0.00000  Uiso   1.00
C666   C     0.76563   0.71322   0.10984   0.00000  Uiso   1.00
C667   C     0.76828   0.75403   0.09310   0.00000  Uiso   1.00
C668   C     0.74952   0.78569   0.12897   0.00000  Uiso   1.00
H669   H     0.70534   0.72764   0.23822   0.00000  Uiso   1.00
H670   H     0.73980   0.67217   0.17519   0.00000  Uiso   1.00
H671   H     0.77912   0.68872   0.08174   0.00000  Uiso   1.00
H672   H     0.78328   0.76085   0.05202   0.00000  Uiso   1.00
H673   H     0.74953   0.81692   0.11509   0.00000  Uiso   1.00
C674   C     0.85632   0.89189   0.06386   0.00000  Uiso   1.00
C675   C     0.82851   0.91394   0.10777   0.00000  Uiso   1.00
C676   C     0.83580   0.95644   0.11214   0.00000  Uiso   1.00
C677   C     0.86951   0.97770   0.07210   0.00000  Uiso   1.00
C678   C     0.89605   0.95644   0.02746   0.00000  Uiso   1.00
C679   C     0.88974   0.91375   0.02342   0.00000  Uiso   1.00
H680   H     0.80105   0.89866   0.13857   0.00000  Uiso   1.00
H681   H     0.81545   0.97286   0.14678   0.00000  Uiso   1.00
H682   H     0.87495   0.67732   0.07563   0.00000  Uiso   1.00
H683   H     0.92212   0.97292   0.49635   0.00000  Uiso   1.00
H684   H     0.91178   0.89757   0.48924   0.00000  Uiso   1.00
C685   C     0.16694   0.24592   0.75024   0.00000  Uiso   1.00
C686   C     0.15135   0.17302   0.98700   0.00000  Uiso   1.00
C687   C     0.15490   0.15614   0.93684   0.00000  Uiso   1.00
C688   C     0.18358   0.15929   0.51460   0.00000  Uiso   1.00
C689   C     0.21147   0.12345   0.99647   0.00000  Uiso   1.00
C690   C     0.21249   0.10566   0.94833   0.00000  Uiso   1.00
C691   C     0.18551   0.12235   0.91829   0.00000  Uiso   1.00
C692   C     0.18786   0.17921   0.56061   0.00000  Uiso   1.00
C693   C     0.23258   0.12046   0.57735   0.00000  Uiso   1.00
C694   C     0.12657   0.17267   0.90687   0.00000  Uiso   1.00
C695   C     0.21090   0.31260   0.73098   0.00000  Uiso   1.00
C696   C     0.14077   0.16701   0.85000   0.00000  Uiso   1.00
C697   C     0.21051   0.02197   0.73024   0.00000  Uiso   1.00
C698   C     0.16641   0.04276   0.74967   0.00000  Uiso   1.00
C699   C     0.12282   0.02068   0.77016   0.00000  Uiso   1.00
C700   C     0.12308   0.31132   0.77021   0.00000  Uiso   1.00
C701   C     0.16713   0.29054   0.75070   0.00000  Uiso   1.00
C702   C     0.30046   0.19237   0.78265   0.00000  Uiso   1.00
C703   C     0.01667   0.19240   0.78260   0.00000  Uiso   1.00
C704   C     0.03211   0.14089   0.71716   0.00000  Uiso   1.00
C705   C     0.31608   0.14129   0.71736   0.00000  Uiso   1.00
C706   C     0.16644   0.08740   0.74978   0.00000  Uiso   1.00
C707   C     0.19264   0.16598   0.65017   0.00000  Uiso   1.00
C708   C     0.23692   0.10505   0.52748   0.00000  Uiso   1.00
C709   C     0.20708   0.15683   0.59446   0.00000  Uiso   1.00
C710   C     0.08954   0.20049   0.92989   0.00000  Uiso   1.00
C711   C     0.08229   0.21359   0.98134   0.00000  Uiso   1.00
C712   C     0.11330   0.20067   0.50945   0.00000  Uiso   1.00
Cu713  Cu    0.11978   0.16666   0.75000   0.00000  Uiso   1.00
Cu714  Cu    0.21355   0.16667   0.75000   0.00000  Uiso   1.00
H715   H     0.24789   0.10334   0.60324   0.00000  Uiso   1.00
H716   H     0.24457   0.03871   0.71422   0.00000  Uiso   1.00
H717   H     0.08884   0.03639   0.78692   0.00000  Uiso   1.00
H718   H     0.08900   0.29460   0.78616   0.00000  Uiso   1.00
H719   H     0.27533   0.21297   0.80890   0.00000  Uiso   1.00
H720   H     0.02871   0.21300   0.80881   0.00000  Uiso   1.00
H721   H     0.30319   0.12078   0.69161   0.00000  Uiso   1.00
H722   H     0.23398   0.07854   0.93398   0.00000  Uiso   1.00
H723   H     0.25733   0.07714   0.51463   0.00000  Uiso   1.00
H724   H     0.06732   0.21325   0.90745   0.00000  Uiso   1.00
H725   H     0.10572   0.21121   0.54948   0.00000  Uiso   1.00
H726   H     0.05332   0.23477   0.99910   0.00000  Uiso   1.00
H727   H     0.18677   0.10701   0.88165   0.00000  Uiso   1.00
H728   H     0.24511   0.29686   0.71542   0.00000  Uiso   1.00
N729   N     0.04931   0.16666   0.74998   0.00000  Uiso   1.00
N730   N     0.28402   0.16669   0.74999   0.00000  Uiso   1.00
O731   O     0.12708   0.22678   0.75000   0.00000  Uiso   1.00
O732   O     0.20627   0.22679   0.75000   0.00000  Uiso   1.00
O733   O     0.10775   0.16665   0.82549   0.00000  Uiso   1.00
O734   O     0.18694   0.16666   0.82549   0.00000  Uiso   1.00
O735   O     0.12706   0.10654   0.74999   0.00000  Uiso   1.00
O736   O     0.20625   0.10655   0.74999   0.00000  Uiso   1.00
O737   O     0.14640   0.16667   0.67451   0.00000  Uiso   1.00
O738   O     0.22559   0.16668   0.67451   0.00000  Uiso   1.00
C739   C     0.06214   0.11005   0.68217   0.00000  Uiso   1.00
C740   C     0.05827   0.06879   0.69829   0.00000  Uiso   1.00
C741   C     0.07711   0.03725   0.66242   0.00000  Uiso   1.00
C742   C     0.09897   0.04655   0.60984   0.00000  Uiso   1.00
C743   C     0.10161   0.08737   0.59310   0.00000  Uiso   1.00
C744   C     0.08285   0.11902   0.62897   0.00000  Uiso   1.00
H745   H     0.03867   0.06097   0.73822   0.00000  Uiso   1.00
H746   H     0.07313   0.00551   0.67519   0.00000  Uiso   1.00
H747   H     0.11246   0.02206   0.58174   0.00000  Uiso   1.00
H748   H     0.11662   0.09419   0.55202   0.00000  Uiso   1.00
H749   H     0.08286   0.15026   0.61509   0.00000  Uiso   1.00
C750   C     0.18965   0.22522   0.56386   0.00000  Uiso   1.00
C751   C     0.16184   0.24727   0.60777   0.00000  Uiso   1.00
C752   C     0.16913   0.28977   0.61214   0.00000  Uiso   1.00
C753   C     0.20285   0.31103   0.57210   0.00000  Uiso   1.00
C754   C     0.22938   0.28977   0.52746   0.00000  Uiso   1.00
C755   C     0.22307   0.24709   0.52342   0.00000  Uiso   1.00
H756   H     0.13438   0.23199   0.63857   0.00000  Uiso   1.00
H757   H     0.14878   0.30620   0.64678   0.00000  Uiso   1.00
H758   H     0.20828   0.01065   0.57563   0.00000  Uiso   1.00
H759   H     0.25545   0.30625   0.99635   0.00000  Uiso   1.00
H760   H     0.24512   0.23090   0.98924   0.00000  Uiso   1.00
C761   C     0.50027   0.24592   0.75024   0.00000  Uiso   1.00
C762   C     0.48469   0.17302   0.98700   0.00000  Uiso   1.00
C763   C     0.48824   0.15614   0.93684   0.00000  Uiso   1.00
C764   C     0.51691   0.15929   0.51460   0.00000  Uiso   1.00
C765   C     0.54481   0.12345   0.99647   0.00000  Uiso   1.00
C766   C     0.54582   0.10566   0.94833   0.00000  Uiso   1.00
C767   C     0.51885   0.12235   0.91829   0.00000  Uiso   1.00
C768   C     0.52119   0.17921   0.56061   0.00000  Uiso   1.00
C769   C     0.56591   0.12046   0.57735   0.00000  Uiso   1.00
C770   C     0.45991   0.17267   0.90687   0.00000  Uiso   1.00
C771   C     0.54423   0.31260   0.73098   0.00000  Uiso   1.00
C772   C     0.47410   0.16701   0.85000   0.00000  Uiso   1.00
C773   C     0.54384   0.02197   0.73024   0.00000  Uiso   1.00
C774   C     0.49974   0.04276   0.74967   0.00000  Uiso   1.00
C775   C     0.45616   0.02068   0.77016   0.00000  Uiso   1.00
C776   C     0.45641   0.31132   0.77021   0.00000  Uiso   1.00
C777   C     0.50046   0.29054   0.75070   0.00000  Uiso   1.00
C778   C     0.63379   0.19237   0.78265   0.00000  Uiso   1.00
C779   C     0.35001   0.19240   0.78260   0.00000  Uiso   1.00
C780   C     0.36544   0.14089   0.71716   0.00000  Uiso   1.00
C781   C     0.64941   0.14129   0.71736   0.00000  Uiso   1.00
C782   C     0.49977   0.08740   0.74978   0.00000  Uiso   1.00
C783   C     0.52597   0.16598   0.65017   0.00000  Uiso   1.00
C784   C     0.57026   0.10505   0.52748   0.00000  Uiso   1.00
C785   C     0.54041   0.15683   0.59446   0.00000  Uiso   1.00
C786   C     0.42287   0.20049   0.92989   0.00000  Uiso   1.00
C787   C     0.41562   0.21359   0.98134   0.00000  Uiso   1.00
C788   C     0.44664   0.20067   0.50945   0.00000  Uiso   1.00
Cu789  Cu    0.45311   0.16666   0.75000   0.00000  Uiso   1.00
Cu790  Cu    0.54689   0.16667   0.75000   0.00000  Uiso   1.00
H791   H     0.58122   0.10334   0.60324   0.00000  Uiso   1.00
H792   H     0.57790   0.03871   0.71422   0.00000  Uiso   1.00
H793   H     0.42217   0.03639   0.78692   0.00000  Uiso   1.00
H794   H     0.42233   0.29460   0.78616   0.00000  Uiso   1.00
H795   H     0.60866   0.21297   0.80890   0.00000  Uiso   1.00
H796   H     0.36204   0.21300   0.80881   0.00000  Uiso   1.00
H797   H     0.63652   0.12078   0.69161   0.00000  Uiso   1.00
H798   H     0.56731   0.07854   0.93398   0.00000  Uiso   1.00
H799   H     0.59066   0.07714   0.51463   0.00000  Uiso   1.00
H800   H     0.40066   0.21325   0.90745   0.00000  Uiso   1.00
H801   H     0.43905   0.21121   0.54948   0.00000  Uiso   1.00
H802   H     0.38665   0.23477   0.99910   0.00000  Uiso   1.00
H803   H     0.52011   0.10701   0.88165   0.00000  Uiso   1.00
H804   H     0.57845   0.29686   0.71542   0.00000  Uiso   1.00
N805   N     0.38265   0.16666   0.74998   0.00000  Uiso   1.00
N806   N     0.61735   0.16669   0.74999   0.00000  Uiso   1.00
O807   O     0.46042   0.22678   0.75000   0.00000  Uiso   1.00
O808   O     0.53961   0.22679   0.75000   0.00000  Uiso   1.00
O809   O     0.44108   0.16665   0.82549   0.00000  Uiso   1.00
O810   O     0.52027   0.16666   0.82549   0.00000  Uiso   1.00
O811   O     0.46039   0.10654   0.74999   0.00000  Uiso   1.00
O812   O     0.53958   0.10655   0.74999   0.00000  Uiso   1.00
O813   O     0.47973   0.16667   0.67451   0.00000  Uiso   1.00
O814   O     0.55892   0.16668   0.67451   0.00000  Uiso   1.00
C815   C     0.39547   0.11005   0.68217   0.00000  Uiso   1.00
C816   C     0.39160   0.06879   0.69829   0.00000  Uiso   1.00
C817   C     0.41045   0.03725   0.66242   0.00000  Uiso   1.00
C818   C     0.43230   0.04655   0.60984   0.00000  Uiso   1.00
C819   C     0.43495   0.08737   0.59310   0.00000  Uiso   1.00
C820   C     0.41619   0.11902   0.62897   0.00000  Uiso   1.00
H821   H     0.37201   0.06097   0.73822   0.00000  Uiso   1.00
H822   H     0.40646   0.00551   0.67519   0.00000  Uiso   1.00
H823   H     0.44579   0.02206   0.58174   0.00000  Uiso   1.00
H824   H     0.44995   0.09419   0.55202   0.00000  Uiso   1.00
H825   H     0.41620   0.15026   0.61509   0.00000  Uiso   1.00
C826   C     0.52299   0.22522   0.56386   0.00000  Uiso   1.00
C827   C     0.49518   0.24727   0.60777   0.00000  Uiso   1.00
C828   C     0.50246   0.28977   0.61214   0.00000  Uiso   1.00
C829   C     0.53618   0.31103   0.57210   0.00000  Uiso   1.00
C830   C     0.56272   0.28977   0.52746   0.00000  Uiso   1.00
C831   C     0.55640   0.24709   0.52342   0.00000  Uiso   1.00
H832   H     0.46772   0.23199   0.63857   0.00000  Uiso   1.00
H833   H     0.48211   0.30620   0.64678   0.00000  Uiso   1.00
H834   H     0.54162   0.01065   0.57563   0.00000  Uiso   1.00
H835   H     0.58879   0.30625   0.99635   0.00000  Uiso   1.00
H836   H     0.57845   0.23090   0.98924   0.00000  Uiso   1.00
C837   C     0.83360   0.24592   0.75024   0.00000  Uiso   1.00
C838   C     0.81802   0.17302   0.98700   0.00000  Uiso   1.00
C839   C     0.82157   0.15614   0.93684   0.00000  Uiso   1.00
C840   C     0.85024   0.15929   0.51460   0.00000  Uiso   1.00
C841   C     0.87814   0.12345   0.99647   0.00000  Uiso   1.00
C842   C     0.87916   0.10566   0.94833   0.00000  Uiso   1.00
C843   C     0.85218   0.12235   0.91829   0.00000  Uiso   1.00
C844   C     0.85453   0.17921   0.56061   0.00000  Uiso   1.00
C845   C     0.89924   0.12046   0.57735   0.00000  Uiso   1.00
C846   C     0.79324   0.17267   0.90687   0.00000  Uiso   1.00
C847   C     0.87756   0.31260   0.73098   0.00000  Uiso   1.00
C848   C     0.80744   0.16701   0.85000   0.00000  Uiso   1.00
C849   C     0.87718   0.02197   0.73024   0.00000  Uiso   1.00
C850   C     0.83307   0.04276   0.74967   0.00000  Uiso   1.00
C851   C     0.78949   0.02068   0.77016   0.00000  Uiso   1.00
C852   C     0.78974   0.31132   0.77021   0.00000  Uiso   1.00
C853   C     0.83379   0.29054   0.75070   0.00000  Uiso   1.00
C854   C     0.96713   0.19237   0.78265   0.00000  Uiso   1.00
C855   C     0.68334   0.19240   0.78260   0.00000  Uiso   1.00
C856   C     0.69877   0.14089   0.71716   0.00000  Uiso   1.00
C857   C     0.98275   0.14129   0.71736   0.00000  Uiso   1.00
C858   C     0.83310   0.08740   0.74978   0.00000  Uiso   1.00
C859   C     0.85930   0.16598   0.65017   0.00000  Uiso   1.00
C860   C     0.90359   0.10505   0.52748   0.00000  Uiso   1.00
C861   C     0.87374   0.15683   0.59446   0.00000  Uiso   1.00
C862   C     0.75620   0.20049   0.92989   0.00000  Uiso   1.00
C863   C     0.74895   0.21359   0.98134   0.00000  Uiso   1.00
C864   C     0.77997   0.20067   0.50945   0.00000  Uiso   1.00
Cu865  Cu    0.78645   0.16666   0.75000   0.00000  Uiso   1.00
Cu866  Cu    0.88022   0.16667   0.75000   0.00000  Uiso   1.00
H867   H     0.91455   0.10334   0.60324   0.00000  Uiso   1.00
H868   H     0.91124   0.03871   0.71422   0.00000  Uiso   1.00
H869   H     0.75551   0.03639   0.78692   0.00000  Uiso   1.00
H870   H     0.75567   0.29460   0.78616   0.00000  Uiso   1.00
H871   H     0.94200   0.21297   0.80890   0.00000  Uiso   1.00
H872   H     0.69537   0.21300   0.80881   0.00000  Uiso   1.00
H873   H     0.96986   0.12078   0.69161   0.00000  Uiso   1.00
H874   H     0.90065   0.07854   0.93398   0.00000  Uiso   1.00
H875   H     0.92400   0.07714   0.51463   0.00000  Uiso   1.00
H876   H     0.73399   0.21325   0.90745   0.00000  Uiso   1.00
H877   H     0.77239   0.21121   0.54948   0.00000  Uiso   1.00
H878   H     0.71999   0.23477   0.99910   0.00000  Uiso   1.00
H879   H     0.85344   0.10701   0.88165   0.00000  Uiso   1.00
H880   H     0.91178   0.29686   0.71542   0.00000  Uiso   1.00
N881   N     0.71598   0.16666   0.74998   0.00000  Uiso   1.00
N882   N     0.95069   0.16669   0.74999   0.00000  Uiso   1.00
O883   O     0.79375   0.22678   0.75000   0.00000  Uiso   1.00
O884   O     0.87294   0.22679   0.75000   0.00000  Uiso   1.00
O885   O     0.77441   0.16665   0.82549   0.00000  Uiso   1.00
O886   O     0.85360   0.16666   0.82549   0.00000  Uiso   1.00
O887   O     0.79373   0.10654   0.74999   0.00000  Uiso   1.00
O888   O     0.87292   0.10655   0.74999   0.00000  Uiso   1.00
O889   O     0.81306   0.16667   0.67451   0.00000  Uiso   1.00
O890   O     0.89225   0.16668   0.67451   0.00000  Uiso   1.00
C891   C     0.72880   0.11005   0.68217   0.00000  Uiso   1.00
C892   C     0.72494   0.06879   0.69829   0.00000  Uiso   1.00
C893   C     0.74378   0.03725   0.66242   0.00000  Uiso   1.00
C894   C     0.76563   0.04655   0.60984   0.00000  Uiso   1.00
C895   C     0.76828   0.08737   0.59310   0.00000  Uiso   1.00
C896   C     0.74952   0.11902   0.62897   0.00000  Uiso   1.00
H897   H     0.70534   0.06097   0.73822   0.00000  Uiso   1.00
H898   H     0.73980   0.00551   0.67519   0.00000  Uiso   1.00
H899   H     0.77912   0.02206   0.58174   0.00000  Uiso   1.00
H900   H     0.78328   0.09419   0.55202   0.00000  Uiso   1.00
H901   H     0.74953   0.15026   0.61509   0.00000  Uiso   1.00
C902   C     0.85632   0.22522   0.56386   0.00000  Uiso   1.00
C903   C     0.82851   0.24727   0.60777   0.00000  Uiso   1.00
C904   C     0.83580   0.28977   0.61214   0.00000  Uiso   1.00
C905   C     0.86951   0.31103   0.57210   0.00000  Uiso   1.00
C906   C     0.89605   0.28977   0.52746   0.00000  Uiso   1.00
C907   C     0.88974   0.24709   0.52342   0.00000  Uiso   1.00
H908   H     0.80105   0.23199   0.63857   0.00000  Uiso   1.00
H909   H     0.81545   0.30620   0.64678   0.00000  Uiso   1.00
H910   H     0.87495   0.01065   0.57563   0.00000  Uiso   1.00
H911   H     0.92212   0.30625   0.99635   0.00000  Uiso   1.00
H912   H     0.91178   0.23090   0.98924   0.00000  Uiso   1.00
C913   C     0.16694   0.57925   0.75024   0.00000  Uiso   1.00
C914   C     0.15135   0.50635   0.98700   0.00000  Uiso   1.00
C915   C     0.15490   0.48947   0.93684   0.00000  Uiso   1.00
C916   C     0.18358   0.49262   0.51460   0.00000  Uiso   1.00
C917   C     0.21147   0.45678   0.99647   0.00000  Uiso   1.00
C918   C     0.21249   0.43900   0.94833   0.00000  Uiso   1.00
C919   C     0.18551   0.45568   0.91829   0.00000  Uiso   1.00
C920   C     0.18786   0.51254   0.56061   0.00000  Uiso   1.00
C921   C     0.23258   0.45380   0.57735   0.00000  Uiso   1.00
C922   C     0.12657   0.50600   0.90687   0.00000  Uiso   1.00
C923   C     0.21090   0.64593   0.73098   0.00000  Uiso   1.00
C924   C     0.14077   0.50034   0.85000   0.00000  Uiso   1.00
C925   C     0.21051   0.35531   0.73024   0.00000  Uiso   1.00
C926   C     0.16641   0.37609   0.74967   0.00000  Uiso   1.00
C927   C     0.12282   0.35402   0.77016   0.00000  Uiso   1.00
C928   C     0.12308   0.64466   0.77021   0.00000  Uiso   1.00
C929   C     0.16713   0.62387   0.75070   0.00000  Uiso   1.00
C930   C     0.30046   0.52571   0.78265   0.00000  Uiso   1.00
C931   C     0.01667   0.52573   0.78260   0.00000  Uiso   1.00
C932   C     0.03211   0.47422   0.71716   0.00000  Uiso   1.00
C933   C     0.31608   0.47462   0.71736   0.00000  Uiso   1.00
C934   C     0.16644   0.42073   0.74978   0.00000  Uiso   1.00
C935   C     0.19264   0.49931   0.65017   0.00000  Uiso   1.00
C936   C     0.23692   0.43838   0.52748   0.00000  Uiso   1.00
C937   C     0.20708   0.49016   0.59446   0.00000  Uiso   1.00
C938   C     0.08954   0.53383   0.92989   0.00000  Uiso   1.00
C939   C     0.08229   0.54692   0.98134   0.00000  Uiso   1.00
C940   C     0.11330   0.53400   0.50945   0.00000  Uiso   1.00
Cu941  Cu    0.11978   0.49999   0.75000   0.00000  Uiso   1.00
Cu942  Cu    0.21355   0.50001   0.75000   0.00000  Uiso   1.00
H943   H     0.24789   0.43667   0.60324   0.00000  Uiso   1.00
H944   H     0.24457   0.37205   0.71422   0.00000  Uiso   1.00
H945   H     0.08884   0.36972   0.78692   0.00000  Uiso   1.00
H946   H     0.08900   0.62794   0.78616   0.00000  Uiso   1.00
H947   H     0.27533   0.54631   0.80890   0.00000  Uiso   1.00
H948   H     0.02871   0.54633   0.80881   0.00000  Uiso   1.00
H949   H     0.30319   0.45412   0.69161   0.00000  Uiso   1.00
H950   H     0.23398   0.41187   0.93398   0.00000  Uiso   1.00
H951   H     0.25733   0.41047   0.51463   0.00000  Uiso   1.00
H952   H     0.06732   0.54659   0.90745   0.00000  Uiso   1.00
H953   H     0.10572   0.54454   0.54948   0.00000  Uiso   1.00
H954   H     0.05332   0.56811   0.99910   0.00000  Uiso   1.00
H955   H     0.18677   0.44035   0.88165   0.00000  Uiso   1.00
H956   H     0.24511   0.63019   0.71542   0.00000  Uiso   1.00
N957   N     0.04931   0.49999   0.74998   0.00000  Uiso   1.00
N958   N     0.28402   0.50002   0.74999   0.00000  Uiso   1.00
O959   O     0.12708   0.56011   0.75000   0.00000  Uiso   1.00
O960   O     0.20627   0.56012   0.75000   0.00000  Uiso   1.00
O961   O     0.10775   0.49998   0.82549   0.00000  Uiso   1.00
O962   O     0.18694   0.49999   0.82549   0.00000  Uiso   1.00
O963   O     0.12706   0.43988   0.74999   0.00000  Uiso   1.00
O964   O     0.20625   0.43989   0.74999   0.00000  Uiso   1.00
O965   O     0.14640   0.50001   0.67451   0.00000  Uiso   1.00
O966   O     0.22559   0.50002   0.67451   0.00000  Uiso   1.00
C967   C     0.06214   0.44338   0.68217   0.00000  Uiso   1.00
C968   C     0.05827   0.40212   0.69829   0.00000  Uiso   1.00
C969   C     0.07711   0.37058   0.66242   0.00000  Uiso   1.00
C970   C     0.09897   0.37988   0.60984   0.00000  Uiso   1.00
C971   C     0.10161   0.42070   0.59310   0.00000  Uiso   1.00
C972   C     0.08285   0.45236   0.62897   0.00000  Uiso   1.00
H973   H     0.03867   0.39431   0.73822   0.00000  Uiso   1.00
H974   H     0.07313   0.33884   0.67519   0.00000  Uiso   1.00
H975   H     0.11246   0.35539   0.58174   0.00000  Uiso   1.00
H976   H     0.11662   0.42752   0.55202   0.00000  Uiso   1.00
H977   H     0.08286   0.48359   0.61509   0.00000  Uiso   1.00
C978   C     0.18965   0.55855   0.56386   0.00000  Uiso   1.00
C979   C     0.16184   0.58060   0.60777   0.00000  Uiso   1.00
C980   C     0.16913   0.62310   0.61214   0.00000  Uiso   1.00
C981   C     0.20285   0.64437   0.57210   0.00000  Uiso   1.00
C982   C     0.22938   0.62310   0.52746   0.00000  Uiso   1.00
C983   C     0.22307   0.58042   0.52342   0.00000  Uiso   1.00
H984   H     0.13438   0.56533   0.63857   0.00000  Uiso   1.00
H985   H     0.14878   0.63953   0.64678   0.00000  Uiso   1.00
H986   H     0.20828   0.34398   0.57563   0.00000  Uiso   1.00
H987   H     0.25545   0.63958   0.99635   0.00000  Uiso   1.00
H988   H     0.24512   0.56424   0.98924   0.00000  Uiso   1.00
C989   C     0.50027   0.57925   0.75024   0.00000  Uiso   1.00
C990   C     0.48469   0.50635   0.98700   0.00000  Uiso   1.00
C991   C     0.48824   0.48947   0.93684   0.00000  Uiso   1.00
C992   C     0.51691   0.49262   0.51460   0.00000  Uiso   1.00
C993   C     0.54481   0.45678   0.99647   0.00000  Uiso   1.00
C994   C     0.54582   0.43900   0.94833   0.00000  Uiso   1.00
C995   C     0.51885   0.45568   0.91829   0.00000  Uiso   1.00
C996   C     0.52119   0.51254   0.56061   0.00000  Uiso   1.00
C997   C     0.56591   0.45380   0.57735   0.00000  Uiso   1.00
C998   C     0.45991   0.50600   0.90687   0.00000  Uiso   1.00
C999   C     0.54423   0.64593   0.73098   0.00000  Uiso   1.00
C1000  C     0.47410   0.50034   0.85000   0.00000  Uiso   1.00
C1001  C     0.54384   0.35531   0.73024   0.00000  Uiso   1.00
C1002  C     0.49974   0.37609   0.74967   0.00000  Uiso   1.00
C1003  C     0.45616   0.35402   0.77016   0.00000  Uiso   1.00
C1004  C     0.45641   0.64466   0.77021   0.00000  Uiso   1.00
C1005  C     0.50046   0.62387   0.75070   0.00000  Uiso   1.00
C1006  C     0.63379   0.52571   0.78265   0.00000  Uiso   1.00
C1007  C     0.35001   0.52573   0.78260   0.00000  Uiso   1.00
C1008  C     0.36544   0.47422   0.71716   0.00000  Uiso   1.00
C1009  C     0.64941   0.47462   0.71736   0.00000  Uiso   1.00
C1010  C     0.49977   0.42073   0.74978   0.00000  Uiso   1.00
C1011  C     0.52597   0.49931   0.65017   0.00000  Uiso   1.00
C1012  C     0.57026   0.43838   0.52748   0.00000  Uiso   1.00
C1013  C     0.54041   0.49016   0.59446   0.00000  Uiso   1.00
C1014  C     0.42287   0.53383   0.92989   0.00000  Uiso   1.00
C1015  C     0.41562   0.54692   0.98134   0.00000  Uiso   1.00
C1016  C     0.44664   0.53400   0.50945   0.00000  Uiso   1.00
Cu1017 Cu    0.45311   0.49999   0.75000   0.00000  Uiso   1.00
Cu1018 Cu    0.54689   0.50001   0.75000   0.00000  Uiso   1.00
H1019  H     0.58122   0.43667   0.60324   0.00000  Uiso   1.00
H1020  H     0.57790   0.37205   0.71422   0.00000  Uiso   1.00
H1021  H     0.42217   0.36972   0.78692   0.00000  Uiso   1.00
H1022  H     0.42233   0.62794   0.78616   0.00000  Uiso   1.00
H1023  H     0.60866   0.54631   0.80890   0.00000  Uiso   1.00
H1024  H     0.36204   0.54633   0.80881   0.00000  Uiso   1.00
H1025  H     0.63652   0.45412   0.69161   0.00000  Uiso   1.00
H1026  H     0.56731   0.41187   0.93398   0.00000  Uiso   1.00
H1027  H     0.59066   0.41047   0.51463   0.00000  Uiso   1.00
H1028  H     0.40066   0.54659   0.90745   0.00000  Uiso   1.00
H1029  H     0.43905   0.54454   0.54948   0.00000  Uiso   1.00
H1030  H     0.38665   0.56811   0.99910   0.00000  Uiso   1.00
H1031  H     0.52011   0.44035   0.88165   0.00000  Uiso   1.00
H1032  H     0.57845   0.63019   0.71542   0.00000  Uiso   1.00
N1033  N     0.38265   0.49999   0.74998   0.00000  Uiso   1.00
N1034  N     0.61735   0.50002   0.74999   0.00000  Uiso   1.00
O1035  O     0.46042   0.56011   0.75000   0.00000  Uiso   1.00
O1036  O     0.53961   0.56012   0.75000   0.00000  Uiso   1.00
O1037  O     0.44108   0.49998   0.82549   0.00000  Uiso   1.00
O1038  O     0.52027   0.49999   0.82549   0.00000  Uiso   1.00
O1039  O     0.46039   0.43988   0.74999   0.00000  Uiso   1.00
O1040  O     0.53958   0.43989   0.74999   0.00000  Uiso   1.00
O1041  O     0.47973   0.50001   0.67451   0.00000  Uiso   1.00
O1042  O     0.55892   0.50002   0.67451   0.00000  Uiso   1.00
C1043  C     0.39547   0.44338   0.68217   0.00000  Uiso   1.00
C1044  C     0.39160   0.40212   0.69829   0.00000  Uiso   1.00
C1045  C     0.41045   0.37058   0.66242   0.00000  Uiso   1.00
C1046  C     0.43230   0.37988   0.60984   0.00000  Uiso   1.00
C1047  C     0.43495   0.42070   0.59310   0.00000  Uiso   1.00
C1048  C     0.41619   0.45236   0.62897   0.00000  Uiso   1.00
H1049  H     0.37201   0.39431   0.73822   0.00000  Uiso   1.00
H1050  H     0.40646   0.33884   0.67519   0.00000  Uiso   1.00
H1051  H     0.44579   0.35539   0.58174   0.00000  Uiso   1.00
H1052  H     0.44995   0.42752   0.55202   0.00000  Uiso   1.00
H1053  H     0.41620   0.48359   0.61509   0.00000  Uiso   1.00
C1054  C     0.52299   0.55855   0.56386   0.00000  Uiso   1.00
C1055  C     0.49518   0.58060   0.60777   0.00000  Uiso   1.00
C1056  C     0.50246   0.62310   0.61214   0.00000  Uiso   1.00
C1057  C     0.53618   0.64437   0.57210   0.00000  Uiso   1.00
C1058  C     0.56272   0.62310   0.52746   0.00000  Uiso   1.00
C1059  C     0.55640   0.58042   0.52342   0.00000  Uiso   1.00
H1060  H     0.46772   0.56533   0.63857   0.00000  Uiso   1.00
H1061  H     0.48211   0.63953   0.64678   0.00000  Uiso   1.00
H1062  H     0.54162   0.34398   0.57563   0.00000  Uiso   1.00
H1063  H     0.58879   0.63958   0.99635   0.00000  Uiso   1.00
H1064  H     0.57845   0.56424   0.98924   0.00000  Uiso   1.00
C1065  C     0.83360   0.57925   0.75024   0.00000  Uiso   1.00
C1066  C     0.81802   0.50635   0.98700   0.00000  Uiso   1.00
C1067  C     0.82157   0.48947   0.93684   0.00000  Uiso   1.00
C1068  C     0.85024   0.49262   0.51460   0.00000  Uiso   1.00
C1069  C     0.87814   0.45678   0.99647   0.00000  Uiso   1.00
C1070  C     0.87916   0.43900   0.94833   0.00000  Uiso   1.00
C1071  C     0.85218   0.45568   0.91829   0.00000  Uiso   1.00
C1072  C     0.85453   0.51254   0.56061   0.00000  Uiso   1.00
C1073  C     0.89924   0.45380   0.57735   0.00000  Uiso   1.00
C1074  C     0.79324   0.50600   0.90687   0.00000  Uiso   1.00
C1075  C     0.87756   0.64593   0.73098   0.00000  Uiso   1.00
C1076  C     0.80744   0.50034   0.85000   0.00000  Uiso   1.00
C1077  C     0.87718   0.35531   0.73024   0.00000  Uiso   1.00
C1078  C     0.83307   0.37609   0.74967   0.00000  Uiso   1.00
C1079  C     0.78949   0.35402   0.77016   0.00000  Uiso   1.00
C1080  C     0.78974   0.64466   0.77021   0.00000  Uiso   1.00
C1081  C     0.83379   0.62387   0.75070   0.00000  Uiso   1.00
C1082  C     0.96713   0.52571   0.78265   0.00000  Uiso   1.00
C1083  C     0.68334   0.52573   0.78260   0.00000  Uiso   1.00
C1084  C     0.69877   0.47422   0.71716   0.00000  Uiso   1.00
C1085  C     0.98275   0.47462   0.71736   0.00000  Uiso   1.00
C1086  C     0.83310   0.42073   0.74978   0.00000  Uiso   1.00
C1087  C     0.85930   0.49931   0.65017   0.00000  Uiso   1.00
C1088  C     0.90359   0.43838   0.52748   0.00000  Uiso   1.00
C1089  C     0.87374   0.49016   0.59446   0.00000  Uiso   1.00
C1090  C     0.75620   0.53383   0.92989   0.00000  Uiso   1.00
C1091  C     0.74895   0.54692   0.98134   0.00000  Uiso   1.00
C1092  C     0.77997   0.53400   0.50945   0.00000  Uiso   1.00
Cu1093 Cu    0.78645   0.49999   0.75000   0.00000  Uiso   1.00
Cu1094 Cu    0.88022   0.50001   0.75000   0.00000  Uiso   1.00
H1095  H     0.91455   0.43667   0.60324   0.00000  Uiso   1.00
H1096  H     0.91124   0.37205   0.71422   0.00000  Uiso   1.00
H1097  H     0.75551   0.36972   0.78692   0.00000  Uiso   1.00
H1098  H     0.75567   0.62794   0.78616   0.00000  Uiso   1.00
H1099  H     0.94200   0.54631   0.80890   0.00000  Uiso   1.00
H1100  H     0.69537   0.54633   0.80881   0.00000  Uiso   1.00
H1101  H     0.96986   0.45412   0.69161   0.00000  Uiso   1.00
H1102  H     0.90065   0.41187   0.93398   0.00000  Uiso   1.00
H1103  H     0.92400   0.41047   0.51463   0.00000  Uiso   1.00
H1104  H     0.73399   0.54659   0.90745   0.00000  Uiso   1.00
H1105  H     0.77239   0.54454   0.54948   0.00000  Uiso   1.00
H1106  H     0.71999   0.56811   0.99910   0.00000  Uiso   1.00
H1107  H     0.85344   0.44035   0.88165   0.00000  Uiso   1.00
H1108  H     0.91178   0.63019   0.71542   0.00000  Uiso   1.00
N1109  N     0.71598   0.49999   0.74998   0.00000  Uiso   1.00
N1110  N     0.95069   0.50002   0.74999   0.00000  Uiso   1.00
O1111  O     0.79375   0.56011   0.75000   0.00000  Uiso   1.00
O1112  O     0.87294   0.56012   0.75000   0.00000  Uiso   1.00
O1113  O     0.77441   0.49998   0.82549   0.00000  Uiso   1.00
O1114  O     0.85360   0.49999   0.82549   0.00000  Uiso   1.00
O1115  O     0.79373   0.43988   0.74999   0.00000  Uiso   1.00
O1116  O     0.87292   0.43989   0.74999   0.00000  Uiso   1.00
O1117  O     0.81306   0.50001   0.67451   0.00000  Uiso   1.00
O1118  O     0.89225   0.50002   0.67451   0.00000  Uiso   1.00
C1119  C     0.72880   0.44338   0.68217   0.00000  Uiso   1.00
C1120  C     0.72494   0.40212   0.69829   0.00000  Uiso   1.00
C1121  C     0.74378   0.37058   0.66242   0.00000  Uiso   1.00
C1122  C     0.76563   0.37988   0.60984   0.00000  Uiso   1.00
C1123  C     0.76828   0.42070   0.59310   0.00000  Uiso   1.00
C1124  C     0.74952   0.45236   0.62897   0.00000  Uiso   1.00
H1125  H     0.70534   0.39431   0.73822   0.00000  Uiso   1.00
H1126  H     0.73980   0.33884   0.67519   0.00000  Uiso   1.00
H1127  H     0.77912   0.35539   0.58174   0.00000  Uiso   1.00
H1128  H     0.78328   0.42752   0.55202   0.00000  Uiso   1.00
H1129  H     0.74953   0.48359   0.61509   0.00000  Uiso   1.00
C1130  C     0.85632   0.55855   0.56386   0.00000  Uiso   1.00
C1131  C     0.82851   0.58060   0.60777   0.00000  Uiso   1.00
C1132  C     0.83580   0.62310   0.61214   0.00000  Uiso   1.00
C1133  C     0.86951   0.64437   0.57210   0.00000  Uiso   1.00
C1134  C     0.89605   0.62310   0.52746   0.00000  Uiso   1.00
C1135  C     0.88974   0.58042   0.52342   0.00000  Uiso   1.00
H1136  H     0.80105   0.56533   0.63857   0.00000  Uiso   1.00
H1137  H     0.81545   0.63953   0.64678   0.00000  Uiso   1.00
H1138  H     0.87495   0.34398   0.57563   0.00000  Uiso   1.00
H1139  H     0.92212   0.63958   0.99635   0.00000  Uiso   1.00
H1140  H     0.91178   0.56424   0.98924   0.00000  Uiso   1.00
C1141  C     0.16694   0.91259   0.75024   0.00000  Uiso   1.00
C1142  C     0.15135   0.83969   0.98700   0.00000  Uiso   1.00
C1143  C     0.15490   0.82280   0.93684   0.00000  Uiso   1.00
C1144  C     0.18358   0.82596   0.51460   0.00000  Uiso   1.00
C1145  C     0.21147   0.79012   0.99647   0.00000  Uiso   1.00
C1146  C     0.21249   0.77233   0.94833   0.00000  Uiso   1.00
C1147  C     0.18551   0.78902   0.91829   0.00000  Uiso   1.00
C1148  C     0.18786   0.84588   0.56061   0.00000  Uiso   1.00
C1149  C     0.23258   0.78713   0.57735   0.00000  Uiso   1.00
C1150  C     0.12657   0.83934   0.90687   0.00000  Uiso   1.00
C1151  C     0.21090   0.97926   0.73098   0.00000  Uiso   1.00
C1152  C     0.14077   0.83368   0.85000   0.00000  Uiso   1.00
C1153  C     0.21051   0.68864   0.73024   0.00000  Uiso   1.00
C1154  C     0.16641   0.70942   0.74967   0.00000  Uiso   1.00
C1155  C     0.12282   0.68735   0.77016   0.00000  Uiso   1.00
C1156  C     0.12308   0.97799   0.77021   0.00000  Uiso   1.00
C1157  C     0.16713   0.95721   0.75070   0.00000  Uiso   1.00
C1158  C     0.30046   0.85904   0.78265   0.00000  Uiso   1.00
C1159  C     0.01667   0.85907   0.78260   0.00000  Uiso   1.00
C1160  C     0.03211   0.80755   0.71716   0.00000  Uiso   1.00
C1161  C     0.31608   0.80796   0.71736   0.00000  Uiso   1.00
C1162  C     0.16644   0.75407   0.74978   0.00000  Uiso   1.00
C1163  C     0.19264   0.83265   0.65017   0.00000  Uiso   1.00
C1164  C     0.23692   0.77172   0.52748   0.00000  Uiso   1.00
C1165  C     0.20708   0.82350   0.59446   0.00000  Uiso   1.00
C1166  C     0.08954   0.86716   0.92989   0.00000  Uiso   1.00
C1167  C     0.08229   0.88026   0.98134   0.00000  Uiso   1.00
C1168  C     0.11330   0.86734   0.50945   0.00000  Uiso   1.00
Cu1169 Cu    0.11978   0.83333   0.75000   0.00000  Uiso   1.00
Cu1170 Cu    0.21355   0.83334   0.75000   0.00000  Uiso   1.00
H1171  H     0.24789   0.77001   0.60324   0.00000  Uiso   1.00
H1172  H     0.24457   0.70538   0.71422   0.00000  Uiso   1.00
H1173  H     0.08884   0.70305   0.78692   0.00000  Uiso   1.00
H1174  H     0.08900   0.96127   0.78616   0.00000  Uiso   1.00
H1175  H     0.27533   0.87964   0.80890   0.00000  Uiso   1.00
H1176  H     0.02871   0.87966   0.80881   0.00000  Uiso   1.00
H1177  H     0.30319   0.78745   0.69161   0.00000  Uiso   1.00
H1178  H     0.23398   0.74521   0.93398   0.00000  Uiso   1.00
H1179  H     0.25733   0.74381   0.51463   0.00000  Uiso   1.00
H1180  H     0.06732   0.87992   0.90745   0.00000  Uiso   1.00
H1181  H     0.10572   0.87788   0.54948   0.00000  Uiso   1.00
H1182  H     0.05332   0.90144   0.99910   0.00000  Uiso   1.00
H1183  H     0.18677   0.77368   0.88165   0.00000  Uiso   1.00
H1184  H     0.24511   0.96352   0.71542   0.00000  Uiso   1.00
N1185  N     0.04931   0.83332   0.74998   0.00000  Uiso   1.00
N1186  N     0.28402   0.83335   0.74999   0.00000  Uiso   1.00
O1187  O     0.12708   0.89345   0.75000   0.00000  Uiso   1.00
O1188  O     0.20627   0.89346   0.75000   0.00000  Uiso   1.00
O1189  O     0.10775   0.83332   0.82549   0.00000  Uiso   1.00
O1190  O     0.18694   0.83333   0.82549   0.00000  Uiso   1.00
O1191  O     0.12706   0.77321   0.74999   0.00000  Uiso   1.00
O1192  O     0.20625   0.77322   0.74999   0.00000  Uiso   1.00
O1193  O     0.14640   0.83334   0.67451   0.00000  Uiso   1.00
O1194  O     0.22559   0.83335   0.67451   0.00000  Uiso   1.00
C1195  C     0.06214   0.77671   0.68217   0.00000  Uiso   1.00
C1196  C     0.05827   0.73545   0.69829   0.00000  Uiso   1.00
C1197  C     0.07711   0.70391   0.66242   0.00000  Uiso   1.00
C1198  C     0.09897   0.71322   0.60984   0.00000  Uiso   1.00
C1199  C     0.10161   0.75403   0.59310   0.00000  Uiso   1.00
C1200  C     0.08285   0.78569   0.62897   0.00000  Uiso   1.00
H1201  H     0.03867   0.72764   0.73822   0.00000  Uiso   1.00
H1202  H     0.07313   0.67217   0.67519   0.00000  Uiso   1.00
H1203  H     0.11246   0.68872   0.58174   0.00000  Uiso   1.00
H1204  H     0.11662   0.76085   0.55202   0.00000  Uiso   1.00
H1205  H     0.08286   0.81692   0.61509   0.00000  Uiso   1.00
C1206  C     0.18965   0.89189   0.56386   0.00000  Uiso   1.00
C1207  C     0.16184   0.91394   0.60777   0.00000  Uiso   1.00
C1208  C     0.16913   0.95644   0.61214   0.00000  Uiso   1.00
C1209  C     0.20285   0.97770   0.57210   0.00000  Uiso   1.00
C1210  C     0.22938   0.95644   0.52746   0.00000  Uiso   1.00
C1211  C     0.22307   0.91375   0.52342   0.00000  Uiso   1.00
H1212  H     0.13438   0.89866   0.63857   0.00000  Uiso   1.00
H1213  H     0.14878   0.97286   0.64678   0.00000  Uiso   1.00
H1214  H     0.20828   0.67732   0.57563   0.00000  Uiso   1.00
H1215  H     0.25545   0.97292   0.99635   0.00000  Uiso   1.00
H1216  H     0.24512   0.89757   0.98924   0.00000  Uiso   1.00
C1217  C     0.50027   0.91259   0.75024   0.00000  Uiso   1.00
C1218  C     0.48469   0.83969   0.98700   0.00000  Uiso   1.00
C1219  C     0.48824   0.82280   0.93684   0.00000  Uiso   1.00
C1220  C     0.51691   0.82596   0.51460   0.00000  Uiso   1.00
C1221  C     0.54481   0.79012   0.99647   0.00000  Uiso   1.00
C1222  C     0.54582   0.77233   0.94833   0.00000  Uiso   1.00
C1223  C     0.51885   0.78902   0.91829   0.00000  Uiso   1.00
C1224  C     0.52119   0.84588   0.56061   0.00000  Uiso   1.00
C1225  C     0.56591   0.78713   0.57735   0.00000  Uiso   1.00
C1226  C     0.45991   0.83934   0.90687   0.00000  Uiso   1.00
C1227  C     0.54423   0.97926   0.73098   0.00000  Uiso   1.00
C1228  C     0.47410   0.83368   0.85000   0.00000  Uiso   1.00
C1229  C     0.54384   0.68864   0.73024   0.00000  Uiso   1.00
C1230  C     0.49974   0.70942   0.74967   0.00000  Uiso   1.00
C1231  C     0.45616   0.68735   0.77016   0.00000  Uiso   1.00
C1232  C     0.45641   0.97799   0.77021   0.00000  Uiso   1.00
C1233  C     0.50046   0.95721   0.75070   0.00000  Uiso   1.00
C1234  C     0.63379   0.85904   0.78265   0.00000  Uiso   1.00
C1235  C     0.35001   0.85907   0.78260   0.00000  Uiso   1.00
C1236  C     0.36544   0.80755   0.71716   0.00000  Uiso   1.00
C1237  C     0.64941   0.80796   0.71736   0.00000  Uiso   1.00
C1238  C     0.49977   0.75407   0.74978   0.00000  Uiso   1.00
C1239  C     0.52597   0.83265   0.65017   0.00000  Uiso   1.00
C1240  C     0.57026   0.77172   0.52748   0.00000  Uiso   1.00
C1241  C     0.54041   0.82350   0.59446   0.00000  Uiso   1.00
C1242  C     0.42287   0.86716   0.92989   0.00000  Uiso   1.00
C1243  C     0.41562   0.88026   0.98134   0.00000  Uiso   1.00
C1244  C     0.44664   0.86734   0.50945   0.00000  Uiso   1.00
Cu1245 Cu    0.45311   0.83333   0.75000   0.00000  Uiso   1.00
Cu1246 Cu    0.54689   0.83334   0.75000   0.00000  Uiso   1.00
H1247  H     0.58122   0.77001   0.60324   0.00000  Uiso   1.00
H1248  H     0.57790   0.70538   0.71422   0.00000  Uiso   1.00
H1249  H     0.42217   0.70305   0.78692   0.00000  Uiso   1.00
H1250  H     0.42233   0.96127   0.78616   0.00000  Uiso   1.00
H1251  H     0.60866   0.87964   0.80890   0.00000  Uiso   1.00
H1252  H     0.36204   0.87966   0.80881   0.00000  Uiso   1.00
H1253  H     0.63652   0.78745   0.69161   0.00000  Uiso   1.00
H1254  H     0.56731   0.74521   0.93398   0.00000  Uiso   1.00
H1255  H     0.59066   0.74381   0.51463   0.00000  Uiso   1.00
H1256  H     0.40066   0.87992   0.90745   0.00000  Uiso   1.00
H1257  H     0.43905   0.87788   0.54948   0.00000  Uiso   1.00
H1258  H     0.38665   0.90144   0.99910   0.00000  Uiso   1.00
H1259  H     0.52011   0.77368   0.88165   0.00000  Uiso   1.00
H1260  H     0.57845   0.96352   0.71542   0.00000  Uiso   1.00
N1261  N     0.38265   0.83332   0.74998   0.00000  Uiso   1.00
N1262  N     0.61735   0.83335   0.74999   0.00000  Uiso   1.00
O1263  O     0.46042   0.89345   0.75000   0.00000  Uiso   1.00
O1264  O     0.53961   0.89346   0.75000   0.00000  Uiso   1.00
O1265  O     0.44108   0.83332   0.82549   0.00000  Uiso   1.00
O1266  O     0.52027   0.83333   0.82549   0.00000  Uiso   1.00
O1267  O     0.46039   0.77321   0.74999   0.00000  Uiso   1.00
O1268  O     0.53958   0.77322   0.74999   0.00000  Uiso   1.00
O1269  O     0.47973   0.83334   0.67451   0.00000  Uiso   1.00
O1270  O     0.55892   0.83335   0.67451   0.00000  Uiso   1.00
C1271  C     0.39547   0.77671   0.68217   0.00000  Uiso   1.00
C1272  C     0.39160   0.73545   0.69829   0.00000  Uiso   1.00
C1273  C     0.41045   0.70391   0.66242   0.00000  Uiso   1.00
C1274  C     0.43230   0.71322   0.60984   0.00000  Uiso   1.00
C1275  C     0.43495   0.75403   0.59310   0.00000  Uiso   1.00
C1276  C     0.41619   0.78569   0.62897   0.00000  Uiso   1.00
H1277  H     0.37201   0.72764   0.73822   0.00000  Uiso   1.00
H1278  H     0.40646   0.67217   0.67519   0.00000  Uiso   1.00
H1279  H     0.44579   0.68872   0.58174   0.00000  Uiso   1.00
H1280  H     0.44995   0.76085   0.55202   0.00000  Uiso   1.00
H1281  H     0.41620   0.81692   0.61509   0.00000  Uiso   1.00
C1282  C     0.52299   0.89189   0.56386   0.00000  Uiso   1.00
C1283  C     0.49518   0.91394   0.60777   0.00000  Uiso   1.00
C1284  C     0.50246   0.95644   0.61214   0.00000  Uiso   1.00
C1285  C     0.53618   0.97770   0.57210   0.00000  Uiso   1.00
C1286  C     0.56272   0.95644   0.52746   0.00000  Uiso   1.00
C1287  C     0.55640   0.91375   0.52342   0.00000  Uiso   1.00
H1288  H     0.46772   0.89866   0.63857   0.00000  Uiso   1.00
H1289  H     0.48211   0.97286   0.64678   0.00000  Uiso   1.00
H1290  H     0.54162   0.67732   0.57563   0.00000  Uiso   1.00
H1291  H     0.58879   0.97292   0.99635   0.00000  Uiso   1.00
H1292  H     0.57845   0.89757   0.98924   0.00000  Uiso   1.00
C1293  C     0.83360   0.91259   0.75024   0.00000  Uiso   1.00
C1294  C     0.81802   0.83969   0.98700   0.00000  Uiso   1.00
C1295  C     0.82157   0.82280   0.93684   0.00000  Uiso   1.00
C1296  C     0.85024   0.82596   0.51460   0.00000  Uiso   1.00
C1297  C     0.87814   0.79012   0.99647   0.00000  Uiso   1.00
C1298  C     0.87916   0.77233   0.94833   0.00000  Uiso   1.00
C1299  C     0.85218   0.78902   0.91829   0.00000  Uiso   1.00
C1300  C     0.85453   0.84588   0.56061   0.00000  Uiso   1.00
C1301  C     0.89924   0.78713   0.57735   0.00000  Uiso   1.00
C1302  C     0.79324   0.83934   0.90687   0.00000  Uiso   1.00
C1303  C     0.87756   0.97926   0.73098   0.00000  Uiso   1.00
C1304  C     0.80744   0.83368   0.85000   0.00000  Uiso   1.00
C1305  C     0.87718   0.68864   0.73024   0.00000  Uiso   1.00
C1306  C     0.83307   0.70942   0.74967   0.00000  Uiso   1.00
C1307  C     0.78949   0.68735   0.77016   0.00000  Uiso   1.00
C1308  C     0.78974   0.97799   0.77021   0.00000  Uiso   1.00
C1309  C     0.83379   0.95721   0.75070   0.00000  Uiso   1.00
C1310  C     0.96713   0.85904   0.78265   0.00000  Uiso   1.00
C1311  C     0.68334   0.85907   0.78260   0.00000  Uiso   1.00
C1312  C     0.69877   0.80755   0.71716   0.00000  Uiso   1.00
C1313  C     0.98275   0.80796   0.71736   0.00000  Uiso   1.00
C1314  C     0.83310   0.75407   0.74978   0.00000  Uiso   1.00
C1315  C     0.85930   0.83265   0.65017   0.00000  Uiso   1.00
C1316  C     0.90359   0.77172   0.52748   0.00000  Uiso   1.00
C1317  C     0.87374   0.82350   0.59446   0.00000  Uiso   1.00
C1318  C     0.75620   0.86716   0.92989   0.00000  Uiso   1.00
C1319  C     0.74895   0.88026   0.98134   0.00000  Uiso   1.00
C1320  C     0.77997   0.86734   0.50945   0.00000  Uiso   1.00
Cu1321 Cu    0.78645   0.83333   0.75000   0.00000  Uiso   1.00
Cu1322 Cu    0.88022   0.83334   0.75000   0.00000  Uiso   1.00
H1323  H     0.91455   0.77001   0.60324   0.00000  Uiso   1.00
H1324  H     0.91124   0.70538   0.71422   0.00000  Uiso   1.00
H1325  H     0.75551   0.70305   0.78692   0.00000  Uiso   1.00
H1326  H     0.75567   0.96127   0.78616   0.00000  Uiso   1.00
H1327  H     0.94200   0.87964   0.80890   0.00000  Uiso   1.00
H1328  H     0.69537   0.87966   0.80881   0.00000  Uiso   1.00
H1329  H     0.96986   0.78745   0.69161   0.00000  Uiso   1.00
H1330  H     0.90065   0.74521   0.93398   0.00000  Uiso   1.00
H1331  H     0.92400   0.74381   0.51463   0.00000  Uiso   1.00
H1332  H     0.73399   0.87992   0.90745   0.00000  Uiso   1.00
H1333  H     0.77239   0.87788   0.54948   0.00000  Uiso   1.00
H1334  H     0.71999   0.90144   0.99910   0.00000  Uiso   1.00
H1335  H     0.85344   0.77368   0.88165   0.00000  Uiso   1.00
H1336  H     0.91178   0.96352   0.71542   0.00000  Uiso   1.00
N1337  N     0.71598   0.83332   0.74998   0.00000  Uiso   1.00
N1338  N     0.95069   0.83335   0.74999   0.00000  Uiso   1.00
O1339  O     0.79375   0.89345   0.75000   0.00000  Uiso   1.00
O1340  O     0.87294   0.89346   0.75000   0.00000  Uiso   1.00
O1341  O     0.77441   0.83332   0.82549   0.00000  Uiso   1.00
O1342  O     0.85360   0.83333   0.82549   0.00000  Uiso   1.00
O1343  O     0.79373   0.77321   0.74999   0.00000  Uiso   1.00
O1344  O     0.87292   0.77322   0.74999   0.00000  Uiso   1.00
O1345  O     0.81306   0.83334   0.67451   0.00000  Uiso   1.00
O1346  O     0.89225   0.83335   0.67451   0.00000  Uiso   1.00
C1347  C     0.72880   0.77671   0.68217   0.00000  Uiso   1.00
C1348  C     0.72494   0.73545   0.69829   0.00000  Uiso   1.00
C1349  C     0.74378   0.70391   0.66242   0.00000  Uiso   1.00
C1350  C     0.76563   0.71322   0.60984   0.00000  Uiso   1.00
C1351  C     0.76828   0.75403   0.59310   0.00000  Uiso   1.00
C1352  C     0.74952   0.78569   0.62897   0.00000  Uiso   1.00
H1353  H     0.70534   0.72764   0.73822   0.00000  Uiso   1.00
H1354  H     0.73980   0.67217   0.67519   0.00000  Uiso   1.00
H1355  H     0.77912   0.68872   0.58174   0.00000  Uiso   1.00
H1356  H     0.78328   0.76085   0.55202   0.00000  Uiso   1.00
H1357  H     0.74953   0.81692   0.61509   0.00000  Uiso   1.00
C1358  C     0.85632   0.89189   0.56386   0.00000  Uiso   1.00
C1359  C     0.82851   0.91394   0.60777   0.00000  Uiso   1.00
C1360  C     0.83580   0.95644   0.61214   0.00000  Uiso   1.00
C1361  C     0.86951   0.97770   0.57210   0.00000  Uiso   1.00
C1362  C     0.89605   0.95644   0.52746   0.00000  Uiso   1.00
C1363  C     0.88974   0.91375   0.52342   0.00000  Uiso   1.00
H1364  H     0.80105   0.89866   0.63857   0.00000  Uiso   1.00
H1365  H     0.81545   0.97286   0.64678   0.00000  Uiso   1.00
H1366  H     0.87495   0.67732   0.57563   0.00000  Uiso   1.00
H1367  H     0.92212   0.97292   0.99635   0.00000  Uiso   1.00
H1368  H     0.91178   0.89757   0.98924   0.00000  Uiso   1.00
loop_
_geom_bond_atom_site_label_1
_geom_bond_atom_site_label_2
_geom_bond_distance
_geom_bond_site_symmetry_2
_ccdc_geom_bond_type
C1     O47     1.291   .     A
C1     O48     1.296   .     A
C1     C17     1.446   .     S
C2     C3      1.416   .     A
C2     C688    1.419   .     S
C2     C712    1.414   .     S
C3     C7      1.410   .     A
C3     C10     1.412   .     A
C4     C8      1.415   .     A
C4     C686    1.419   1_554 S
C4     C689    1.422   1_554 S
C5     C6      1.394   .     A
C5     C688    1.422   .     S
C5     C708    1.398   .     S
C6     H38     1.084   .     S
C6     C7      1.387   .     A
C7     H43     1.082   .     S
C8     C66     1.493   .     S
C8     C25     1.403   .     A
C9     C25     1.400   .     A
C9     C24     1.388   .     A
C9     H31     1.084   .     S
C10    C26     1.402   .     A
C10    C12     1.464   .     S
C11    H44     1.084   .     S
C11    C17     1.398   .     A
C11    C241    1.385   .     S
C12    O49     1.297   .     A
C12    O50     1.296   .     A
C13    H32     1.084   .     S
C13    C14     1.403   .     A
C13    C467    1.385   1_545 S
C14    C22     1.447   .     S
C14    C15     1.397   .     A
C15    H33     1.082   .     S
C15    C472    1.384   1_545 S
C16    C17     1.402   .     A
C16    H34     1.084   .     S
C16    C243    1.384   .     S
C18    H35     1.082   .     S
C18    N46     1.370   .     A
C18    C95     1.420   .     S
C19    H36     1.082   .     S
C19    N45     1.368   .     A
C19    C170    1.420   1_455 S
C20    N45     1.386   .     A
C20    C55     1.469   .     S
C20    C173    1.414   1_455 S
C21    N46     1.352   .     A
C21    H37     1.084   .     S
C21    C96     1.414   .     S
C22    O52     1.290   .     A
C22    O51     1.298   .     A
C23    O53     1.298   .     A
C23    O54     1.292   .     A
C23    C25     1.452   .     S
C24    H39     1.084   .     S
C24    C689    1.398   1_554 S
C26    C27     1.390   .     A
C26    H40     1.084   .     S
C27    H42     1.083   .     S
C27    C712    1.393   .     S
C28    H41     1.079   .     S
C28    C711    1.393   1_554 S
C28    C686    1.414   1_554 S
Cu29   O49     1.944   .     S
Cu29   O47     1.955   .     S
Cu29   N45     2.021   .     S
Cu29   Cu30    2.689   .     S
Cu29   O51     1.964   .     S
Cu29   O53     1.938   .     S
Cu30   O54     1.944   .     S
Cu30   O48     1.964   .     S
Cu30   O50     1.938   .     S
Cu30   O52     1.955   .     S
Cu30   N46     2.021   .     S
C55    C56     1.403   .     A
C55    C60     1.404   .     A
C56    C57     1.396   .     A
C56    H61     1.082   .     S
C57    H62     1.082   .     S
C57    C58     1.397   .     A
C58    C59     1.396   .     A
C58    H63     1.082   .     S
C59    C60     1.398   .     A
C59    H64     1.080   .     S
C60    H65     1.083   .     S
C66    C67     1.407   .     A
C66    C71     1.408   .     A
C67    H72     1.078   .     S
C67    C68     1.397   .     A
C68    C69     1.396   .     A
C68    H73     1.080   .     S
C69    C70     1.396   .     A
C69    H302    1.083   .     S
C70    C71     1.398   .     A
C70    H759    1.082   1_554 S
C71    H760    1.083   1_554 S
H74    C525    1.083   1_545 S
H75    C754    1.082   .     S
H76    C755    1.083   .     S
C77    O123    1.291   .     A
C77    O124    1.296   .     A
C77    C93     1.446   .     S
C78    C79     1.416   .     A
C78    C764    1.419   .     S
C78    C788    1.414   .     S
C79    C83     1.410   .     A
C79    C86     1.412   .     A
C80    C84     1.415   .     A
C80    C762    1.419   1_554 S
C80    C765    1.422   1_554 S
C81    C82     1.394   .     A
C81    C764    1.422   .     S
C81    C784    1.398   .     S
C82    H114    1.084   .     S
C82    C83     1.387   .     A
C83    H119    1.082   .     S
C84    C142    1.493   .     S
C84    C101    1.403   .     A
C85    C101    1.400   .     A
C85    C100    1.388   .     A
C85    H107    1.084   .     S
C86    C102    1.402   .     A
C86    C88     1.464   .     S
C87    H120    1.084   .     S
C87    C93     1.398   .     A
C87    C317    1.385   .     S
C88    O125    1.297   .     A
C88    O126    1.296   .     A
C89    H108    1.084   .     S
C89    C90     1.403   .     A
C89    C543    1.385   1_545 S
C90    C98     1.447   .     S
C90    C91     1.397   .     A
C91    H109    1.082   .     S
C91    C548    1.384   1_545 S
C92    C93     1.402   .     A
C92    H110    1.084   .     S
C92    C319    1.384   .     S
C94    H111    1.082   .     S
C94    N122    1.370   .     A
C94    C171    1.420   .     S
C95    H112    1.082   .     S
C95    N121    1.368   .     A
C96    N121    1.386   .     A
C96    C131    1.469   .     S
C97    N122    1.352   .     A
C97    H113    1.084   .     S
C97    C172    1.414   .     S
C98    O128    1.290   .     A
C98    O127    1.298   .     A
C99    O129    1.298   .     A
C99    O130    1.292   .     A
C99    C101    1.452   .     S
C100   H115    1.084   .     S
C100   C765    1.398   1_554 S
C102   C103    1.390   .     A
C102   H116    1.084   .     S
C103   H118    1.083   .     S
C103   C788    1.393   .     S
C104   H117    1.079   .     S
C104   C787    1.393   1_554 S
C104   C762    1.414   1_554 S
Cu105  O125    1.944   .     S
Cu105  O123    1.955   .     S
Cu105  N121    2.021   .     S
Cu105  Cu106   2.689   .     S
Cu105  O127    1.964   .     S
Cu105  O129    1.938   .     S
Cu106  O130    1.944   .     S
Cu106  O124    1.964   .     S
Cu106  O126    1.938   .     S
Cu106  O128    1.955   .     S
Cu106  N122    2.021   .     S
C131   C132    1.403   .     A
C131   C136    1.404   .     A
C132   C133    1.396   .     A
C132   H137    1.082   .     S
C133   H138    1.082   .     S
C133   C134    1.397   .     A
C134   C135    1.396   .     A
C134   H139    1.082   .     S
C135   C136    1.398   .     A
C135   H140    1.080   .     S
C136   H141    1.083   .     S
C142   C143    1.407   .     A
C142   C147    1.408   .     A
C143   H148    1.078   .     S
C143   C144    1.397   .     A
C144   C145    1.396   .     A
C144   H149    1.080   .     S
C145   C146    1.396   .     A
C145   H378    1.083   .     S
C146   C147    1.398   .     A
C146   H835    1.082   1_554 S
C147   H836    1.083   1_554 S
H150   C601    1.083   1_545 S
H151   C830    1.082   .     S
H152   C831    1.083   .     S
C153   O199    1.291   .     A
C153   O200    1.296   .     A
C153   C169    1.446   .     S
C154   C155    1.416   .     A
C154   C840    1.419   .     S
C154   C864    1.414   .     S
C155   C159    1.410   .     A
C155   C162    1.412   .     A
C156   C160    1.415   .     A
C156   C838    1.419   1_554 S
C156   C841    1.422   1_554 S
C157   C158    1.394   .     A
C157   C840    1.422   .     S
C157   C860    1.398   .     S
C158   H190    1.084   .     S
C158   C159    1.387   .     A
C159   H195    1.082   .     S
C160   C218    1.493   .     S
C160   C177    1.403   .     A
C161   C177    1.400   .     A
C161   C176    1.388   .     A
C161   H183    1.084   .     S
C162   C178    1.402   .     A
C162   C164    1.464   .     S
C163   H196    1.084   .     S
C163   C169    1.398   .     A
C163   C393    1.385   .     S
C164   O201    1.297   .     A
C164   O202    1.296   .     A
C165   H184    1.084   .     S
C165   C166    1.403   .     A
C165   C619    1.385   1_545 S
C166   C174    1.447   .     S
C166   C167    1.397   .     A
C167   H185    1.082   .     S
C167   C624    1.384   1_545 S
C168   C169    1.402   .     A
C168   H186    1.084   .     S
C168   C395    1.384   .     S
C170   H187    1.082   .     S
C170   N198    1.370   .     A
C170   C19     1.420   1_655 S
C171   H188    1.082   .     S
C171   N197    1.368   .     A
C172   N197    1.386   .     A
C172   C207    1.469   .     S
C173   N198    1.352   .     A
C173   H189    1.084   .     S
C173   C20     1.414   1_655 S
C174   O204    1.290   .     A
C174   O203    1.298   .     A
C175   O205    1.298   .     A
C175   O206    1.292   .     A
C175   C177    1.452   .     S
C176   H191    1.084   .     S
C176   C841    1.398   1_554 S
C178   C179    1.390   .     A
C178   H192    1.084   .     S
C179   H194    1.083   .     S
C179   C864    1.393   .     S
C180   H193    1.079   .     S
C180   C863    1.393   1_554 S
C180   C838    1.414   1_554 S
Cu181  O201    1.944   .     S
Cu181  O199    1.955   .     S
Cu181  N197    2.021   .     S
Cu181  Cu182   2.689   .     S
Cu181  O203    1.964   .     S
Cu181  O205    1.938   .     S
Cu182  O206    1.944   .     S
Cu182  O200    1.964   .     S
Cu182  O202    1.938   .     S
Cu182  O204    1.955   .     S
Cu182  N198    2.021   .     S
C207   C208    1.403   .     A
C207   C212    1.404   .     A
C208   C209    1.396   .     A
C208   H213    1.082   .     S
C209   H214    1.082   .     S
C209   C210    1.397   .     A
C210   C211    1.396   .     A
C210   H215    1.082   .     S
C211   C212    1.398   .     A
C211   H216    1.080   .     S
C212   H217    1.083   .     S
C218   C219    1.407   .     A
C218   C223    1.408   .     A
C219   H224    1.078   .     S
C219   C220    1.397   .     A
C220   C221    1.396   .     A
C220   H225    1.080   .     S
C221   C222    1.396   .     A
C221   H454    1.083   .     S
C222   C223    1.398   .     A
C222   H911    1.082   1_554 S
C223   H912    1.083   1_554 S
H226   C677    1.083   1_545 S
H227   C906    1.082   .     S
H228   C907    1.083   .     S
C229   O275    1.291   .     A
C229   O276    1.296   .     A
C229   C245    1.446   .     S
C230   C231    1.416   .     A
C230   C916    1.419   .     S
C230   C940    1.414   .     S
C231   C235    1.410   .     A
C231   C238    1.412   .     A
C232   C236    1.415   .     A
C232   C914    1.419   1_554 S
C232   C917    1.422   1_554 S
C233   C234    1.394   .     A
C233   C916    1.422   .     S
C233   C936    1.398   .     S
C234   H266    1.084   .     S
C234   C235    1.387   .     A
C235   H271    1.082   .     S
C236   C294    1.493   .     S
C236   C253    1.403   .     A
C237   C253    1.400   .     A
C237   C252    1.388   .     A
C237   H259    1.084   .     S
C238   C254    1.402   .     A
C238   C240    1.464   .     S
C239   H272    1.084   .     S
C239   C245    1.398   .     A
C239   C469    1.385   .     S
C240   O277    1.297   .     A
C240   O278    1.296   .     A
C241   H260    1.084   .     S
C241   C242    1.403   .     A
C242   C250    1.447   .     S
C242   C243    1.397   .     A
C243   H261    1.082   .     S
C244   C245    1.402   .     A
C244   H262    1.084   .     S
C244   C471    1.384   .     S
C246   H263    1.082   .     S
C246   N274    1.370   .     A
C246   C323    1.420   .     S
C247   H264    1.082   .     S
C247   N273    1.368   .     A
C247   C398    1.420   1_455 S
C248   N273    1.386   .     A
C248   C283    1.469   .     S
C248   C401    1.414   1_455 S
C249   N274    1.352   .     A
C249   H265    1.084   .     S
C249   C324    1.414   .     S
C250   O280    1.290   .     A
C250   O279    1.298   .     A
C251   O281    1.298   .     A
C251   O282    1.292   .     A
C251   C253    1.452   .     S
C252   H267    1.084   .     S
C252   C917    1.398   1_554 S
C254   C255    1.390   .     A
C254   H268    1.084   .     S
C255   H270    1.083   .     S
C255   C940    1.393   .     S
C256   H269    1.079   .     S
C256   C939    1.393   1_554 S
C256   C914    1.414   1_554 S
Cu257  O277    1.944   .     S
Cu257  O275    1.955   .     S
Cu257  N273    2.021   .     S
Cu257  Cu258   2.689   .     S
Cu257  O279    1.964   .     S
Cu257  O281    1.938   .     S
Cu258  O282    1.944   .     S
Cu258  O276    1.964   .     S
Cu258  O278    1.938   .     S
Cu258  O280    1.955   .     S
Cu258  N274    2.021   .     S
C283   C284    1.403   .     A
C283   C288    1.404   .     A
C284   C285    1.396   .     A
C284   H289    1.082   .     S
C285   H290    1.082   .     S
C285   C286    1.397   .     A
C286   C287    1.396   .     A
C286   H291    1.082   .     S
C287   C288    1.398   .     A
C287   H292    1.080   .     S
C288   H293    1.083   .     S
C294   C295    1.407   .     A
C294   C299    1.408   .     A
C295   H300    1.078   .     S
C295   C296    1.397   .     A
C296   C297    1.396   .     A
C296   H301    1.080   .     S
C297   C298    1.396   .     A
C297   H530    1.083   .     S
C298   C299    1.398   .     A
C298   H987    1.082   1_554 S
C299   H988    1.083   1_554 S
H303   C982    1.082   .     S
H304   C983    1.083   .     S
C305   O351    1.291   .     A
C305   O352    1.296   .     A
C305   C321    1.446   .     S
C306   C307    1.416   .     A
C306   C992    1.419   .     S
C306   C1016   1.414   .     S
C307   C311    1.410   .     A
C307   C314    1.412   .     A
C308   C312    1.415   .     A
C308   C990    1.419   1_554 S
C308   C993    1.422   1_554 S
C309   C310    1.394   .     A
C309   C992    1.422   .     S
C309   C1012   1.398   .     S
C310   H342    1.084   .     S
C310   C311    1.387   .     A
C311   H347    1.082   .     S
C312   C370    1.493   .     S
C312   C329    1.403   .     A
C313   C329    1.400   .     A
C313   C328    1.388   .     A
C313   H335    1.084   .     S
C314   C330    1.402   .     A
C314   C316    1.464   .     S
C315   H348    1.084   .     S
C315   C321    1.398   .     A
C315   C545    1.385   .     S
C316   O353    1.297   .     A
C316   O354    1.296   .     A
C317   H336    1.084   .     S
C317   C318    1.403   .     A
C318   C326    1.447   .     S
C318   C319    1.397   .     A
C319   H337    1.082   .     S
C320   C321    1.402   .     A
C320   H338    1.084   .     S
C320   C547    1.384   .     S
C322   H339    1.082   .     S
C322   N350    1.370   .     A
C322   C399    1.420   .     S
C323   H340    1.082   .     S
C323   N349    1.368   .     A
C324   N349    1.386   .     A
C324   C359    1.469   .     S
C325   N350    1.352   .     A
C325   H341    1.084   .     S
C325   C400    1.414   .     S
C326   O356    1.290   .     A
C326   O355    1.298   .     A
C327   O357    1.298   .     A
C327   O358    1.292   .     A
C327   C329    1.452   .     S
C328   H343    1.084   .     S
C328   C993    1.398   1_554 S
C330   C331    1.390   .     A
C330   H344    1.084   .     S
C331   H346    1.083   .     S
C331   C1016   1.393   .     S
C332   H345    1.079   .     S
C332   C1015   1.393   1_554 S
C332   C990    1.414   1_554 S
Cu333  O353    1.944   .     S
Cu333  O351    1.955   .     S
Cu333  N349    2.021   .     S
Cu333  Cu334   2.689   .     S
Cu333  O355    1.964   .     S
Cu333  O357    1.938   .     S
Cu334  O358    1.944   .     S
Cu334  O352    1.964   .     S
Cu334  O354    1.938   .     S
Cu334  O356    1.955   .     S
Cu334  N350    2.021   .     S
C359   C360    1.403   .     A
C359   C364    1.404   .     A
C360   C361    1.396   .     A
C360   H365    1.082   .     S
C361   H366    1.082   .     S
C361   C362    1.397   .     A
C362   C363    1.396   .     A
C362   H367    1.082   .     S
C363   C364    1.398   .     A
C363   H368    1.080   .     S
C364   H369    1.083   .     S
C370   C371    1.407   .     A
C370   C375    1.408   .     A
C371   H376    1.078   .     S
C371   C372    1.397   .     A
C372   C373    1.396   .     A
C372   H377    1.080   .     S
C373   C374    1.396   .     A
C373   H606    1.083   .     S
C374   C375    1.398   .     A
C374   H1063   1.082   1_554 S
C375   H1064   1.083   1_554 S
H379   C1058   1.082   .     S
H380   C1059   1.083   .     S
C381   O427    1.291   .     A
C381   O428    1.296   .     A
C381   C397    1.446   .     S
C382   C383    1.416   .     A
C382   C1068   1.419   .     S
C382   C1092   1.414   .     S
C383   C387    1.410   .     A
C383   C390    1.412   .     A
C384   C388    1.415   .     A
C384   C1066   1.419   1_554 S
C384   C1069   1.422   1_554 S
C385   C386    1.394   .     A
C385   C1068   1.422   .     S
C385   C1088   1.398   .     S
C386   H418    1.084   .     S
C386   C387    1.387   .     A
C387   H423    1.082   .     S
C388   C446    1.493   .     S
C388   C405    1.403   .     A
C389   C405    1.400   .     A
C389   C404    1.388   .     A
C389   H411    1.084   .     S
C390   C406    1.402   .     A
C390   C392    1.464   .     S
C391   H424    1.084   .     S
C391   C397    1.398   .     A
C391   C621    1.385   .     S
C392   O429    1.297   .     A
C392   O430    1.296   .     A
C393   H412    1.084   .     S
C393   C394    1.403   .     A
C394   C402    1.447   .     S
C394   C395    1.397   .     A
C395   H413    1.082   .     S
C396   C397    1.402   .     A
C396   H414    1.084   .     S
C396   C623    1.384   .     S
C398   H415    1.082   .     S
C398   N426    1.370   .     A
C398   C247    1.420   1_655 S
C399   H416    1.082   .     S
C399   N425    1.368   .     A
C400   N425    1.386   .     A
C400   C435    1.469   .     S
C401   N426    1.352   .     A
C401   H417    1.084   .     S
C401   C248    1.414   1_655 S
C402   O432    1.290   .     A
C402   O431    1.298   .     A
C403   O433    1.298   .     A
C403   O434    1.292   .     A
C403   C405    1.452   .     S
C404   H419    1.084   .     S
C404   C1069   1.398   1_554 S
C406   C407    1.390   .     A
C406   H420    1.084   .     S
C407   H422    1.083   .     S
C407   C1092   1.393   .     S
C408   H421    1.079   .     S
C408   C1091   1.393   1_554 S
C408   C1066   1.414   1_554 S
Cu409  O429    1.944   .     S
Cu409  O427    1.955   .     S
Cu409  N425    2.021   .     S
Cu409  Cu410   2.689   .     S
Cu409  O431    1.964   .     S
Cu409  O433    1.938   .     S
Cu410  O434    1.944   .     S
Cu410  O428    1.964   .     S
Cu410  O430    1.938   .     S
Cu410  O432    1.955   .     S
Cu410  N426    2.021   .     S
C435   C436    1.403   .     A
C435   C440    1.404   .     A
C436   C437    1.396   .     A
C436   H441    1.082   .     S
C437   H442    1.082   .     S
C437   C438    1.397   .     A
C438   C439    1.396   .     A
C438   H443    1.082   .     S
C439   C440    1.398   .     A
C439   H444    1.080   .     S
C440   H445    1.083   .     S
C446   C447    1.407   .     A
C446   C451    1.408   .     A
C447   H452    1.078   .     S
C447   C448    1.397   .     A
C448   C449    1.396   .     A
C448   H453    1.080   .     S
C449   C450    1.396   .     A
C449   H682    1.083   .     S
C450   C451    1.398   .     A
C450   H1139   1.082   1_554 S
C451   H1140   1.083   1_554 S
H455   C1134   1.082   .     S
H456   C1135   1.083   .     S
C457   O503    1.291   .     A
C457   O504    1.296   .     A
C457   C473    1.446   .     S
C458   C459    1.416   .     A
C458   C1144   1.419   .     S
C458   C1168   1.414   .     S
C459   C463    1.410   .     A
C459   C466    1.412   .     A
C460   C464    1.415   .     A
C460   C1142   1.419   1_554 S
C460   C1145   1.422   1_554 S
C461   C462    1.394   .     A
C461   C1144   1.422   .     S
C461   C1164   1.398   .     S
C462   H494    1.084   .     S
C462   C463    1.387   .     A
C463   H499    1.082   .     S
C464   C522    1.493   .     S
C464   C481    1.403   .     A
C465   C481    1.400   .     A
C465   C480    1.388   .     A
C465   H487    1.084   .     S
C466   C482    1.402   .     A
C466   C468    1.464   .     S
C467   H500    1.084   .     S
C467   C473    1.398   .     A
C467   C13     1.385   1_565 S
C468   O505    1.297   .     A
C468   O506    1.296   .     A
C469   H488    1.084   .     S
C469   C470    1.403   .     A
C470   C478    1.447   .     S
C470   C471    1.397   .     A
C471   H489    1.082   .     S
C472   C473    1.402   .     A
C472   H490    1.084   .     S
C472   C15     1.384   1_565 S
C474   H491    1.082   .     S
C474   N502    1.370   .     A
C474   C551    1.420   .     S
C475   H492    1.082   .     S
C475   N501    1.368   .     A
C475   C626    1.420   1_455 S
C476   N501    1.386   .     A
C476   C511    1.469   .     S
C476   C629    1.414   1_455 S
C477   N502    1.352   .     A
C477   H493    1.084   .     S
C477   C552    1.414   .     S
C478   O508    1.290   .     A
C478   O507    1.298   .     A
C479   O509    1.298   .     A
C479   O510    1.292   .     A
C479   C481    1.452   .     S
C480   H495    1.084   .     S
C480   C1145   1.398   1_554 S
C482   C483    1.390   .     A
C482   H496    1.084   .     S
C483   H498    1.083   .     S
C483   C1168   1.393   .     S
C484   H497    1.079   .     S
C484   C1167   1.393   1_554 S
C484   C1142   1.414   1_554 S
Cu485  O505    1.944   .     S
Cu485  O503    1.955   .     S
Cu485  N501    2.021   .     S
Cu485  Cu486   2.689   .     S
Cu485  O507    1.964   .     S
Cu485  O509    1.938   .     S
Cu486  O510    1.944   .     S
Cu486  O504    1.964   .     S
Cu486  O506    1.938   .     S
Cu486  O508    1.955   .     S
Cu486  N502    2.021   .     S
C511   C512    1.403   .     A
C511   C516    1.404   .     A
C512   C513    1.396   .     A
C512   H517    1.082   .     S
C513   H518    1.082   .     S
C513   C514    1.397   .     A
C514   C515    1.396   .     A
C514   H519    1.082   .     S
C515   C516    1.398   .     A
C515   H520    1.080   .     S
C516   H521    1.083   .     S
C522   C523    1.407   .     A
C522   C527    1.408   .     A
C523   H528    1.078   .     S
C523   C524    1.397   .     A
C524   C525    1.396   .     A
C524   H529    1.080   .     S
C525   C526    1.396   .     A
C525   H74     1.083   1_565 S
C526   C527    1.398   .     A
C526   H1215   1.082   1_554 S
C527   H1216   1.083   1_554 S
H531   C1210   1.082   .     S
H532   C1211   1.083   .     S
C533   O579    1.291   .     A
C533   O580    1.296   .     A
C533   C549    1.446   .     S
C534   C535    1.416   .     A
C534   C1220   1.419   .     S
C534   C1244   1.414   .     S
C535   C539    1.410   .     A
C535   C542    1.412   .     A
C536   C540    1.415   .     A
C536   C1218   1.419   1_554 S
C536   C1221   1.422   1_554 S
C537   C538    1.394   .     A
C537   C1220   1.422   .     S
C537   C1240   1.398   .     S
C538   H570    1.084   .     S
C538   C539    1.387   .     A
C539   H575    1.082   .     S
C540   C598    1.493   .     S
C540   C557    1.403   .     A
C541   C557    1.400   .     A
C541   C556    1.388   .     A
C541   H563    1.084   .     S
C542   C558    1.402   .     A
C542   C544    1.464   .     S
C543   H576    1.084   .     S
C543   C549    1.398   .     A
C543   C89     1.385   1_565 S
C544   O581    1.297   .     A
C544   O582    1.296   .     A
C545   H564    1.084   .     S
C545   C546    1.403   .     A
C546   C554    1.447   .     S
C546   C547    1.397   .     A
C547   H565    1.082   .     S
C548   C549    1.402   .     A
C548   H566    1.084   .     S
C548   C91     1.384   1_565 S
C550   H567    1.082   .     S
C550   N578    1.370   .     A
C550   C627    1.420   .     S
C551   H568    1.082   .     S
C551   N577    1.368   .     A
C552   N577    1.386   .     A
C552   C587    1.469   .     S
C553   N578    1.352   .     A
C553   H569    1.084   .     S
C553   C628    1.414   .     S
C554   O584    1.290   .     A
C554   O583    1.298   .     A
C555   O585    1.298   .     A
C555   O586    1.292   .     A
C555   C557    1.452   .     S
C556   H571    1.084   .     S
C556   C1221   1.398   1_554 S
C558   C559    1.390   .     A
C558   H572    1.084   .     S
C559   H574    1.083   .     S
C559   C1244   1.393   .     S
C560   H573    1.079   .     S
C560   C1243   1.393   1_554 S
C560   C1218   1.414   1_554 S
Cu561  O581    1.944   .     S
Cu561  O579    1.955   .     S
Cu561  N577    2.021   .     S
Cu561  Cu562   2.689   .     S
Cu561  O583    1.964   .     S
Cu561  O585    1.938   .     S
Cu562  O586    1.944   .     S
Cu562  O580    1.964   .     S
Cu562  O582    1.938   .     S
Cu562  O584    1.955   .     S
Cu562  N578    2.021   .     S
C587   C588    1.403   .     A
C587   C592    1.404   .     A
C588   C589    1.396   .     A
C588   H593    1.082   .     S
C589   H594    1.082   .     S
C589   C590    1.397   .     A
C590   C591    1.396   .     A
C590   H595    1.082   .     S
C591   C592    1.398   .     A
C591   H596    1.080   .     S
C592   H597    1.083   .     S
C598   C599    1.407   .     A
C598   C603    1.408   .     A
C599   H604    1.078   .     S
C599   C600    1.397   .     A
C600   C601    1.396   .     A
C600   H605    1.080   .     S
C601   C602    1.396   .     A
C601   H150    1.083   1_565 S
C602   C603    1.398   .     A
C602   H1291   1.082   1_554 S
C603   H1292   1.083   1_554 S
H607   C1286   1.082   .     S
H608   C1287   1.083   .     S
C609   O655    1.291   .     A
C609   O656    1.296   .     A
C609   C625    1.446   .     S
C610   C611    1.416   .     A
C610   C1296   1.419   .     S
C610   C1320   1.414   .     S
C611   C615    1.410   .     A
C611   C618    1.412   .     A
C612   C616    1.415   .     A
C612   C1294   1.419   1_554 S
C612   C1297   1.422   1_554 S
C613   C614    1.394   .     A
C613   C1296   1.422   .     S
C613   C1316   1.398   .     S
C614   H646    1.084   .     S
C614   C615    1.387   .     A
C615   H651    1.082   .     S
C616   C674    1.493   .     S
C616   C633    1.403   .     A
C617   C633    1.400   .     A
C617   C632    1.388   .     A
C617   H639    1.084   .     S
C618   C634    1.402   .     A
C618   C620    1.464   .     S
C619   H652    1.084   .     S
C619   C625    1.398   .     A
C619   C165    1.385   1_565 S
C620   O657    1.297   .     A
C620   O658    1.296   .     A
C621   H640    1.084   .     S
C621   C622    1.403   .     A
C622   C630    1.447   .     S
C622   C623    1.397   .     A
C623   H641    1.082   .     S
C624   C625    1.402   .     A
C624   H642    1.084   .     S
C624   C167    1.384   1_565 S
C626   H643    1.082   .     S
C626   N654    1.370   .     A
C626   C475    1.420   1_655 S
C627   H644    1.082   .     S
C627   N653    1.368   .     A
C628   N653    1.386   .     A
C628   C663    1.469   .     S
C629   N654    1.352   .     A
C629   H645    1.084   .     S
C629   C476    1.414   1_655 S
C630   O660    1.290   .     A
C630   O659    1.298   .     A
C631   O661    1.298   .     A
C631   O662    1.292   .     A
C631   C633    1.452   .     S
C632   H647    1.084   .     S
C632   C1297   1.398   1_554 S
C634   C635    1.390   .     A
C634   H648    1.084   .     S
C635   H650    1.083   .     S
C635   C1320   1.393   .     S
C636   H649    1.079   .     S
C636   C1319   1.393   1_554 S
C636   C1294   1.414   1_554 S
Cu637  O657    1.944   .     S
Cu637  O655    1.955   .     S
Cu637  N653    2.021   .     S
Cu637  Cu638   2.689   .     S
Cu637  O659    1.964   .     S
Cu637  O661    1.938   .     S
Cu638  O662    1.944   .     S
Cu638  O656    1.964   .     S
Cu638  O658    1.938   .     S
Cu638  O660    1.955   .     S
Cu638  N654    2.021   .     S
C663   C664    1.403   .     A
C663   C668    1.404   .     A
C664   C665    1.396   .     A
C664   H669    1.082   .     S
C665   H670    1.082   .     S
C665   C666    1.397   .     A
C666   C667    1.396   .     A
C666   H671    1.082   .     S
C667   C668    1.398   .     A
C667   H672    1.080   .     S
C668   H673    1.083   .     S
C674   C675    1.407   .     A
C674   C679    1.408   .     A
C675   H680    1.078   .     S
C675   C676    1.397   .     A
C676   C677    1.396   .     A
C676   H681    1.080   .     S
C677   C678    1.396   .     A
C677   H226    1.083   1_565 S
C678   C679    1.398   .     A
C678   H1367   1.082   1_554 S
C679   H1368   1.083   1_554 S
H683   C1362   1.082   .     S
H684   C1363   1.083   .     S
C685   O731    1.291   .     A
C685   O732    1.296   .     A
C685   C701    1.446   .     S
C686   C687    1.416   .     A
C686   C4      1.419   1_556 S
C686   C28     1.414   1_556 S
C687   C691    1.410   .     A
C687   C694    1.412   .     A
C688   C692    1.415   .     A
C689   C690    1.394   .     A
C689   C4      1.422   1_556 S
C689   C24     1.398   1_556 S
C690   H722    1.084   .     S
C690   C691    1.387   .     A
C691   H727    1.082   .     S
C692   C750    1.493   .     S
C692   C709    1.403   .     A
C693   C709    1.400   .     A
C693   C708    1.388   .     A
C693   H715    1.084   .     S
C694   C710    1.402   .     A
C694   C696    1.464   .     S
C695   H728    1.084   .     S
C695   C701    1.398   .     A
C695   C925    1.385   .     S
C696   O733    1.297   .     A
C696   O734    1.296   .     A
C697   H716    1.084   .     S
C697   C698    1.403   .     A
C697   C1151   1.385   1_545 S
C698   C706    1.447   .     S
C698   C699    1.397   .     A
C699   H717    1.082   .     S
C699   C1156   1.384   1_545 S
C700   C701    1.402   .     A
C700   H718    1.084   .     S
C700   C927    1.384   .     S
C702   H719    1.082   .     S
C702   N730    1.370   .     A
C702   C779    1.420   .     S
C703   H720    1.082   .     S
C703   N729    1.368   .     A
C703   C854    1.420   1_455 S
C704   N729    1.386   .     A
C704   C739    1.469   .     S
C704   C857    1.414   1_455 S
C705   N730    1.352   .     A
C705   H721    1.084   .     S
C705   C780    1.414   .     S
C706   O736    1.290   .     A
C706   O735    1.298   .     A
C707   O737    1.298   .     A
C707   O738    1.292   .     A
C707   C709    1.452   .     S
C708   H723    1.084   .     S
C710   C711    1.390   .     A
C710   H724    1.084   .     S
C711   H726    1.083   .     S
C711   C28     1.393   1_556 S
C712   H725    1.079   .     S
Cu713  O733    1.944   .     S
Cu713  O731    1.955   .     S
Cu713  N729    2.021   .     S
Cu713  Cu714   2.689   .     S
Cu713  O735    1.964   .     S
Cu713  O737    1.938   .     S
Cu714  O738    1.944   .     S
Cu714  O732    1.964   .     S
Cu714  O734    1.938   .     S
Cu714  O736    1.955   .     S
Cu714  N730    2.021   .     S
C739   C740    1.403   .     A
C739   C744    1.404   .     A
C740   C741    1.396   .     A
C740   H745    1.082   .     S
C741   H746    1.082   .     S
C741   C742    1.397   .     A
C742   C743    1.396   .     A
C742   H747    1.082   .     S
C743   C744    1.398   .     A
C743   H748    1.080   .     S
C744   H749    1.083   .     S
C750   C751    1.407   .     A
C750   C755    1.408   .     A
C751   H756    1.078   .     S
C751   C752    1.397   .     A
C752   C753    1.396   .     A
C752   H757    1.080   .     S
C753   C754    1.396   .     A
C753   H986    1.083   .     S
C754   C755    1.398   .     A
H758   C1209   1.083   1_545 S
H759   C70     1.082   1_556 S
H760   C71     1.083   1_556 S
C761   O807    1.291   .     A
C761   O808    1.296   .     A
C761   C777    1.446   .     S
C762   C763    1.416   .     A
C762   C80     1.419   1_556 S
C762   C104    1.414   1_556 S
C763   C767    1.410   .     A
C763   C770    1.412   .     A
C764   C768    1.415   .     A
C765   C766    1.394   .     A
C765   C80     1.422   1_556 S
C765   C100    1.398   1_556 S
C766   H798    1.084   .     S
C766   C767    1.387   .     A
C767   H803    1.082   .     S
C768   C826    1.493   .     S
C768   C785    1.403   .     A
C769   C785    1.400   .     A
C769   C784    1.388   .     A
C769   H791    1.084   .     S
C770   C786    1.402   .     A
C770   C772    1.464   .     S
C771   H804    1.084   .     S
C771   C777    1.398   .     A
C771   C1001   1.385   .     S
C772   O809    1.297   .     A
C772   O810    1.296   .     A
C773   H792    1.084   .     S
C773   C774    1.403   .     A
C773   C1227   1.385   1_545 S
C774   C782    1.447   .     S
C774   C775    1.397   .     A
C775   H793    1.082   .     S
C775   C1232   1.384   1_545 S
C776   C777    1.402   .     A
C776   H794    1.084   .     S
C776   C1003   1.384   .     S
C778   H795    1.082   .     S
C778   N806    1.370   .     A
C778   C855    1.420   .     S
C779   H796    1.082   .     S
C779   N805    1.368   .     A
C780   N805    1.386   .     A
C780   C815    1.469   .     S
C781   N806    1.352   .     A
C781   H797    1.084   .     S
C781   C856    1.414   .     S
C782   O812    1.290   .     A
C782   O811    1.298   .     A
C783   O813    1.298   .     A
C783   O814    1.292   .     A
C783   C785    1.452   .     S
C784   H799    1.084   .     S
C786   C787    1.390   .     A
C786   H800    1.084   .     S
C787   H802    1.083   .     S
C787   C104    1.393   1_556 S
C788   H801    1.079   .     S
Cu789  O809    1.944   .     S
Cu789  O807    1.955   .     S
Cu789  N805    2.021   .     S
Cu789  Cu790   2.689   .     S
Cu789  O811    1.964   .     S
Cu789  O813    1.938   .     S
Cu790  O814    1.944   .     S
Cu790  O808    1.964   .     S
Cu790  O810    1.938   .     S
Cu790  O812    1.955   .     S
Cu790  N806    2.021   .     S
C815   C816    1.403   .     A
C815   C820    1.404   .     A
C816   C817    1.396   .     A
C816   H821    1.082   .     S
C817   H822    1.082   .     S
C817   C818    1.397   .     A
C818   C819    1.396   .     A
C818   H823    1.082   .     S
C819   C820    1.398   .     A
C819   H824    1.080   .     S
C820   H825    1.083   .     S
C826   C827    1.407   .     A
C826   C831    1.408   .     A
C827   H832    1.078   .     S
C827   C828    1.397   .     A
C828   C829    1.396   .     A
C828   H833    1.080   .     S
C829   C830    1.396   .     A
C829   H1062   1.083   .     S
C830   C831    1.398   .     A
H834   C1285   1.083   1_545 S
H835   C146    1.082   1_556 S
H836   C147    1.083   1_556 S
C837   O883    1.291   .     A
C837   O884    1.296   .     A
C837   C853    1.446   .     S
C838   C839    1.416   .     A
C838   C156    1.419   1_556 S
C838   C180    1.414   1_556 S
C839   C843    1.410   .     A
C839   C846    1.412   .     A
C840   C844    1.415   .     A
C841   C842    1.394   .     A
C841   C156    1.422   1_556 S
C841   C176    1.398   1_556 S
C842   H874    1.084   .     S
C842   C843    1.387   .     A
C843   H879    1.082   .     S
C844   C902    1.493   .     S
C844   C861    1.403   .     A
C845   C861    1.400   .     A
C845   C860    1.388   .     A
C845   H867    1.084   .     S
C846   C862    1.402   .     A
C846   C848    1.464   .     S
C847   H880    1.084   .     S
C847   C853    1.398   .     A
C847   C1077   1.385   .     S
C848   O885    1.297   .     A
C848   O886    1.296   .     A
C849   H868    1.084   .     S
C849   C850    1.403   .     A
C849   C1303   1.385   1_545 S
C850   C858    1.447   .     S
C850   C851    1.397   .     A
C851   H869    1.082   .     S
C851   C1308   1.384   1_545 S
C852   C853    1.402   .     A
C852   H870    1.084   .     S
C852   C1079   1.384   .     S
C854   H871    1.082   .     S
C854   N882    1.370   .     A
C854   C703    1.420   1_655 S
C855   H872    1.082   .     S
C855   N881    1.368   .     A
C856   N881    1.386   .     A
C856   C891    1.469   .     S
C857   N882    1.352   .     A
C857   H873    1.084   .     S
C857   C704    1.414   1_655 S
C858   O888    1.290   .     A
C858   O887    1.298   .     A
C859   O889    1.298   .     A
C859   O890    1.292   .     A
C859   C861    1.452   .     S
C860   H875    1.084   .     S
C862   C863    1.390   .     A
C862   H876    1.084   .     S
C863   H878    1.083   .     S
C863   C180    1.393   1_556 S
C864   H877    1.079   .     S
Cu865  O885    1.944   .     S
Cu865  O883    1.955   .     S
Cu865  N881    2.021   .     S
Cu865  Cu866   2.689   .     S
Cu865  O887    1.964   .     S
Cu865  O889    1.938   .     S
Cu866  O890    1.944   .     S
Cu866  O884    1.964   .     S
Cu866  O886    1.938   .     S
Cu866  O888    1.955   .     S
Cu866  N882    2.021   .     S
C891   C892    1.403   .     A
C891   C896    1.404   .     A
C892   C893    1.396   .     A
C892   H897    1.082   .     S
C893   H898    1.082   .     S
C893   C894    1.397   .     A
C894   C895    1.396   .     A
C894   H899    1.082   .     S
C895   C896    1.398   .     A
C895   H900    1.080   .     S
C896   H901    1.083   .     S
C902   C903    1.407   .     A
C902   C907    1.408   .     A
C903   H908    1.078   .     S
C903   C904    1.397   .     A
C904   C905    1.396   .     A
C904   H909    1.080   .     S
C905   C906    1.396   .     A
C905   H1138   1.083   .     S
C906   C907    1.398   .     A
H910   C1361   1.083   1_545 S
H911   C222    1.082   1_556 S
H912   C223    1.083   1_556 S
C913   O959    1.291   .     A
C913   O960    1.296   .     A
C913   C929    1.446   .     S
C914   C915    1.416   .     A
C914   C232    1.419   1_556 S
C914   C256    1.414   1_556 S
C915   C919    1.410   .     A
C915   C922    1.412   .     A
C916   C920    1.415   .     A
C917   C918    1.394   .     A
C917   C232    1.422   1_556 S
C917   C252    1.398   1_556 S
C918   H950    1.084   .     S
C918   C919    1.387   .     A
C919   H955    1.082   .     S
C920   C978    1.493   .     S
C920   C937    1.403   .     A
C921   C937    1.400   .     A
C921   C936    1.388   .     A
C921   H943    1.084   .     S
C922   C938    1.402   .     A
C922   C924    1.464   .     S
C923   H956    1.084   .     S
C923   C929    1.398   .     A
C923   C1153   1.385   .     S
C924   O961    1.297   .     A
C924   O962    1.296   .     A
C925   H944    1.084   .     S
C925   C926    1.403   .     A
C926   C934    1.447   .     S
C926   C927    1.397   .     A
C927   H945    1.082   .     S
C928   C929    1.402   .     A
C928   H946    1.084   .     S
C928   C1155   1.384   .     S
C930   H947    1.082   .     S
C930   N958    1.370   .     A
C930   C1007   1.420   .     S
C931   H948    1.082   .     S
C931   N957    1.368   .     A
C931   C1082   1.420   1_455 S
C932   N957    1.386   .     A
C932   C967    1.469   .     S
C932   C1085   1.414   1_455 S
C933   N958    1.352   .     A
C933   H949    1.084   .     S
C933   C1008   1.414   .     S
C934   O964    1.290   .     A
C934   O963    1.298   .     A
C935   O965    1.298   .     A
C935   O966    1.292   .     A
C935   C937    1.452   .     S
C936   H951    1.084   .     S
C938   C939    1.390   .     A
C938   H952    1.084   .     S
C939   H954    1.083   .     S
C939   C256    1.393   1_556 S
C940   H953    1.079   .     S
Cu941  O961    1.944   .     S
Cu941  O959    1.955   .     S
Cu941  N957    2.021   .     S
Cu941  Cu942   2.689   .     S
Cu941  O963    1.964   .     S
Cu941  O965    1.938   .     S
Cu942  O966    1.944   .     S
Cu942  O960    1.964   .     S
Cu942  O962    1.938   .     S
Cu942  O964    1.955   .     S
Cu942  N958    2.021   .     S
C967   C968    1.403   .     A
C967   C972    1.404   .     A
C968   C969    1.396   .     A
C968   H973    1.082   .     S
C969   H974    1.082   .     S
C969   C970    1.397   .     A
C970   C971    1.396   .     A
C970   H975    1.082   .     S
C971   C972    1.398   .     A
C971   H976    1.080   .     S
C972   H977    1.083   .     S
C978   C979    1.407   .     A
C978   C983    1.408   .     A
C979   H984    1.078   .     S
C979   C980    1.397   .     A
C980   C981    1.396   .     A
C980   H985    1.080   .     S
C981   C982    1.396   .     A
C981   H1214   1.083   .     S
C982   C983    1.398   .     A
H987   C298    1.082   1_556 S
H988   C299    1.083   1_556 S
C989   O1035   1.291   .     A
C989   O1036   1.296   .     A
C989   C1005   1.446   .     S
C990   C991    1.416   .     A
C990   C308    1.419   1_556 S
C990   C332    1.414   1_556 S
C991   C995    1.410   .     A
C991   C998    1.412   .     A
C992   C996    1.415   .     A
C993   C994    1.394   .     A
C993   C308    1.422   1_556 S
C993   C328    1.398   1_556 S
C994   H1026   1.084   .     S
C994   C995    1.387   .     A
C995   H1031   1.082   .     S
C996   C1054   1.493   .     S
C996   C1013   1.403   .     A
C997   C1013   1.400   .     A
C997   C1012   1.388   .     A
C997   H1019   1.084   .     S
C998   C1014   1.402   .     A
C998   C1000   1.464   .     S
C999   H1032   1.084   .     S
C999   C1005   1.398   .     A
C999   C1229   1.385   .     S
C1000  O1037   1.297   .     A
C1000  O1038   1.296   .     A
C1001  H1020   1.084   .     S
C1001  C1002   1.403   .     A
C1002  C1010   1.447   .     S
C1002  C1003   1.397   .     A
C1003  H1021   1.082   .     S
C1004  C1005   1.402   .     A
C1004  H1022   1.084   .     S
C1004  C1231   1.384   .     S
C1006  H1023   1.082   .     S
C1006  N1034   1.370   .     A
C1006  C1083   1.420   .     S
C1007  H1024   1.082   .     S
C1007  N1033   1.368   .     A
C1008  N1033   1.386   .     A
C1008  C1043   1.469   .     S
C1009  N1034   1.352   .     A
C1009  H1025   1.084   .     S
C1009  C1084   1.414   .     S
C1010  O1040   1.290   .     A
C1010  O1039   1.298   .     A
C1011  O1041   1.298   .     A
C1011  O1042   1.292   .     A
C1011  C1013   1.452   .     S
C1012  H1027   1.084   .     S
C1014  C1015   1.390   .     A
C1014  H1028   1.084   .     S
C1015  H1030   1.083   .     S
C1015  C332    1.393   1_556 S
C1016  H1029   1.079   .     S
Cu1017 O1037   1.944   .     S
Cu1017 O1035   1.955   .     S
Cu1017 N1033   2.021   .     S
Cu1017 Cu1018  2.689   .     S
Cu1017 O1039   1.964   .     S
Cu1017 O1041   1.938   .     S
Cu1018 O1042   1.944   .     S
Cu1018 O1036   1.964   .     S
Cu1018 O1038   1.938   .     S
Cu1018 O1040   1.955   .     S
Cu1018 N1034   2.021   .     S
C1043  C1044   1.403   .     A
C1043  C1048   1.404   .     A
C1044  C1045   1.396   .     A
C1044  H1049   1.082   .     S
C1045  H1050   1.082   .     S
C1045  C1046   1.397   .     A
C1046  C1047   1.396   .     A
C1046  H1051   1.082   .     S
C1047  C1048   1.398   .     A
C1047  H1052   1.080   .     S
C1048  H1053   1.083   .     S
C1054  C1055   1.407   .     A
C1054  C1059   1.408   .     A
C1055  H1060   1.078   .     S
C1055  C1056   1.397   .     A
C1056  C1057   1.396   .     A
C1056  H1061   1.080   .     S
C1057  C1058   1.396   .     A
C1057  H1290   1.083   .     S
C1058  C1059   1.398   .     A
H1063  C374    1.082   1_556 S
H1064  C375    1.083   1_556 S
C1065  O1111   1.291   .     A
C1065  O1112   1.296   .     A
C1065  C1081   1.446   .     S
C1066  C1067   1.416   .     A
C1066  C384    1.419   1_556 S
C1066  C408    1.414   1_556 S
C1067  C1071   1.410   .     A
C1067  C1074   1.412   .     A
C1068  C1072   1.415   .     A
C1069  C1070   1.394   .     A
C1069  C384    1.422   1_556 S
C1069  C404    1.398   1_556 S
C1070  H1102   1.084   .     S
C1070  C1071   1.387   .     A
C1071  H1107   1.082   .     S
C1072  C1130   1.493   .     S
C1072  C1089   1.403   .     A
C1073  C1089   1.400   .     A
C1073  C1088   1.388   .     A
C1073  H1095   1.084   .     S
C1074  C1090   1.402   .     A
C1074  C1076   1.464   .     S
C1075  H1108   1.084   .     S
C1075  C1081   1.398   .     A
C1075  C1305   1.385   .     S
C1076  O1113   1.297   .     A
C1076  O1114   1.296   .     A
C1077  H1096   1.084   .     S
C1077  C1078   1.403   .     A
C1078  C1086   1.447   .     S
C1078  C1079   1.397   .     A
C1079  H1097   1.082   .     S
C1080  C1081   1.402   .     A
C1080  H1098   1.084   .     S
C1080  C1307   1.384   .     S
C1082  H1099   1.082   .     S
C1082  N1110   1.370   .     A
C1082  C931    1.420   1_655 S
C1083  H1100   1.082   .     S
C1083  N1109   1.368   .     A
C1084  N1109   1.386   .     A
C1084  C1119   1.469   .     S
C1085  N1110   1.352   .     A
C1085  H1101   1.084   .     S
C1085  C932    1.414   1_655 S
C1086  O1116   1.290   .     A
C1086  O1115   1.298   .     A
C1087  O1117   1.298   .     A
C1087  O1118   1.292   .     A
C1087  C1089   1.452   .     S
C1088  H1103   1.084   .     S
C1090  C1091   1.390   .     A
C1090  H1104   1.084   .     S
C1091  H1106   1.083   .     S
C1091  C408    1.393   1_556 S
C1092  H1105   1.079   .     S
Cu1093 O1113   1.944   .     S
Cu1093 O1111   1.955   .     S
Cu1093 N1109   2.021   .     S
Cu1093 Cu1094  2.689   .     S
Cu1093 O1115   1.964   .     S
Cu1093 O1117   1.938   .     S
Cu1094 O1118   1.944   .     S
Cu1094 O1112   1.964   .     S
Cu1094 O1114   1.938   .     S
Cu1094 O1116   1.955   .     S
Cu1094 N1110   2.021   .     S
C1119  C1120   1.403   .     A
C1119  C1124   1.404   .     A
C1120  C1121   1.396   .     A
C1120  H1125   1.082   .     S
C1121  H1126   1.082   .     S
C1121  C1122   1.397   .     A
C1122  C1123   1.396   .     A
C1122  H1127   1.082   .     S
C1123  C1124   1.398   .     A
C1123  H1128   1.080   .     S
C1124  H1129   1.083   .     S
C1130  C1131   1.407   .     A
C1130  C1135   1.408   .     A
C1131  H1136   1.078   .     S
C1131  C1132   1.397   .     A
C1132  C1133   1.396   .     A
C1132  H1137   1.080   .     S
C1133  C1134   1.396   .     A
C1133  H1366   1.083   .     S
C1134  C1135   1.398   .     A
H1139  C450    1.082   1_556 S
H1140  C451    1.083   1_556 S
C1141  O1187   1.291   .     A
C1141  O1188   1.296   .     A
C1141  C1157   1.446   .     S
C1142  C1143   1.416   .     A
C1142  C460    1.419   1_556 S
C1142  C484    1.414   1_556 S
C1143  C1147   1.410   .     A
C1143  C1150   1.412   .     A
C1144  C1148   1.415   .     A
C1145  C1146   1.394   .     A
C1145  C460    1.422   1_556 S
C1145  C480    1.398   1_556 S
C1146  H1178   1.084   .     S
C1146  C1147   1.387   .     A
C1147  H1183   1.082   .     S
C1148  C1206   1.493   .     S
C1148  C1165   1.403   .     A
C1149  C1165   1.400   .     A
C1149  C1164   1.388   .     A
C1149  H1171   1.084   .     S
C1150  C1166   1.402   .     A
C1150  C1152   1.464   .     S
C1151  H1184   1.084   .     S
C1151  C1157   1.398   .     A
C1151  C697    1.385   1_565 S
C1152  O1189   1.297   .     A
C1152  O1190   1.296   .     A
C1153  H1172   1.084   .     S
C1153  C1154   1.403   .     A
C1154  C1162   1.447   .     S
C1154  C1155   1.397   .     A
C1155  H1173   1.082   .     S
C1156  C1157   1.402   .     A
C1156  H1174   1.084   .     S
C1156  C699    1.384   1_565 S
C1158  H1175   1.082   .     S
C1158  N1186   1.370   .     A
C1158  C1235   1.420   .     S
C1159  H1176   1.082   .     S
C1159  N1185   1.368   .     A
C1159  C1310   1.420   1_455 S
C1160  N1185   1.386   .     A
C1160  C1195   1.469   .     S
C1160  C1313   1.414   1_455 S
C1161  N1186   1.352   .     A
C1161  H1177   1.084   .     S
C1161  C1236   1.414   .     S
C1162  O1192   1.290   .     A
C1162  O1191   1.298   .     A
C1163  O1193   1.298   .     A
C1163  O1194   1.292   .     A
C1163  C1165   1.452   .     S
C1164  H1179   1.084   .     S
C1166  C1167   1.390   .     A
C1166  H1180   1.084   .     S
C1167  H1182   1.083   .     S
C1167  C484    1.393   1_556 S
C1168  H1181   1.079   .     S
Cu1169 O1189   1.944   .     S
Cu1169 O1187   1.955   .     S
Cu1169 N1185   2.021   .     S
Cu1169 Cu1170  2.689   .     S
Cu1169 O1191   1.964   .     S
Cu1169 O1193   1.938   .     S
Cu1170 O1194   1.944   .     S
Cu1170 O1188   1.964   .     S
Cu1170 O1190   1.938   .     S
Cu1170 O1192   1.955   .     S
Cu1170 N1186   2.021   .     S
C1195  C1196   1.403   .     A
C1195  C1200   1.404   .     A
C1196  C1197   1.396   .     A
C1196  H1201   1.082   .     S
C1197  H1202   1.082   .     S
C1197  C1198   1.397   .     A
C1198  C1199   1.396   .     A
C1198  H1203   1.082   .     S
C1199  C1200   1.398   .     A
C1199  H1204   1.080   .     S
C1200  H1205   1.083   .     S
C1206  C1207   1.407   .     A
C1206  C1211   1.408   .     A
C1207  H1212   1.078   .     S
C1207  C1208   1.397   .     A
C1208  C1209   1.396   .     A
C1208  H1213   1.080   .     S
C1209  C1210   1.396   .     A
C1209  H758    1.083   1_565 S
C1210  C1211   1.398   .     A
H1215  C526    1.082   1_556 S
H1216  C527    1.083   1_556 S
C1217  O1263   1.291   .     A
C1217  O1264   1.296   .     A
C1217  C1233   1.446   .     S
C1218  C1219   1.416   .     A
C1218  C536    1.419   1_556 S
C1218  C560    1.414   1_556 S
C1219  C1223   1.410   .     A
C1219  C1226   1.412   .     A
C1220  C1224   1.415   .     A
C1221  C1222   1.394   .     A
C1221  C536    1.422   1_556 S
C1221  C556    1.398   1_556 S
C1222  H1254   1.084   .     S
C1222  C1223   1.387   .     A
C1223  H1259   1.082   .     S
C1224  C1282   1.493   .     S
C1224  C1241   1.403   .     A
C1225  C1241   1.400   .     A
C1225  C1240   1.388   .     A
C1225  H1247   1.084   .     S
C1226  C1242   1.402   .     A
C1226  C1228   1.464   .     S
C1227  H1260   1.084   .     S
C1227  C1233   1.398   .     A
C1227  C773    1.385   1_565 S
C1228  O1265   1.297   .     A
C1228  O1266   1.296   .     A
C1229  H1248   1.084   .     S
C1229  C1230   1.403   .     A
C1230  C1238   1.447   .     S
C1230  C1231   1.397   .     A
C1231  H1249   1.082   .     S
C1232  C1233   1.402   .     A
C1232  H1250   1.084   .     S
C1232  C775    1.384   1_565 S
C1234  H1251   1.082   .     S
C1234  N1262   1.370   .     A
C1234  C1311   1.420   .     S
C1235  H1252   1.082   .     S
C1235  N1261   1.368   .     A
C1236  N1261   1.386   .     A
C1236  C1271   1.469   .     S
C1237  N1262   1.352   .     A
C1237  H1253   1.084   .     S
C1237  C1312   1.414   .     S
C1238  O1268   1.290   .     A
C1238  O1267   1.298   .     A
C1239  O1269   1.298   .     A
C1239  O1270   1.292   .     A
C1239  C1241   1.452   .     S
C1240  H1255   1.084   .     S
C1242  C1243   1.390   .     A
C1242  H1256   1.084   .     S
C1243  H1258   1.083   .     S
C1243  C560    1.393   1_556 S
C1244  H1257   1.079   .     S
Cu1245 O1265   1.944   .     S
Cu1245 O1263   1.955   .     S
Cu1245 N1261   2.021   .     S
Cu1245 Cu1246  2.689   .     S
Cu1245 O1267   1.964   .     S
Cu1245 O1269   1.938   .     S
Cu1246 O1270   1.944   .     S
Cu1246 O1264   1.964   .     S
Cu1246 O1266   1.938   .     S
Cu1246 O1268   1.955   .     S
Cu1246 N1262   2.021   .     S
C1271  C1272   1.403   .     A
C1271  C1276   1.404   .     A
C1272  C1273   1.396   .     A
C1272  H1277   1.082   .     S
C1273  H1278   1.082   .     S
C1273  C1274   1.397   .     A
C1274  C1275   1.396   .     A
C1274  H1279   1.082   .     S
C1275  C1276   1.398   .     A
C1275  H1280   1.080   .     S
C1276  H1281   1.083   .     S
C1282  C1283   1.407   .     A
C1282  C1287   1.408   .     A
C1283  H1288   1.078   .     S
C1283  C1284   1.397   .     A
C1284  C1285   1.396   .     A
C1284  H1289   1.080   .     S
C1285  C1286   1.396   .     A
C1285  H834    1.083   1_565 S
C1286  C1287   1.398   .     A
H1291  C602    1.082   1_556 S
H1292  C603    1.083   1_556 S
C1293  O1339   1.291   .     A
C1293  O1340   1.296   .     A
C1293  C1309   1.446   .     S
C1294  C1295   1.416   .     A
C1294  C612    1.419   1_556 S
C1294  C636    1.414   1_556 S
C1295  C1299   1.410   .     A
C1295  C1302   1.412   .     A
C1296  C1300   1.415   .     A
C1297  C1298   1.394   .     A
C1297  C612    1.422   1_556 S
C1297  C632    1.398   1_556 S
C1298  H1330   1.084   .     S
C1298  C1299   1.387   .     A
C1299  H1335   1.082   .     S
C1300  C1358   1.493   .     S
C1300  C1317   1.403   .     A
C1301  C1317   1.400   .     A
C1301  C1316   1.388   .     A
C1301  H1323   1.084   .     S
C1302  C1318   1.402   .     A
C1302  C1304   1.464   .     S
C1303  H1336   1.084   .     S
C1303  C1309   1.398   .     A
C1303  C849    1.385   1_565 S
C1304  O1341   1.297   .     A
C1304  O1342   1.296   .     A
C1305  H1324   1.084   .     S
C1305  C1306   1.403   .     A
C1306  C1314   1.447   .     S
C1306  C1307   1.397   .     A
C1307  H1325   1.082   .     S
C1308  C1309   1.402   .     A
C1308  H1326   1.084   .     S
C1308  C851    1.384   1_565 S
C1310  H1327   1.082   .     S
C1310  N1338   1.370   .     A
C1310  C1159   1.420   1_655 S
C1311  H1328   1.082   .     S
C1311  N1337   1.368   .     A
C1312  N1337   1.386   .     A
C1312  C1347   1.469   .     S
C1313  N1338   1.352   .     A
C1313  H1329   1.084   .     S
C1313  C1160   1.414   1_655 S
C1314  O1344   1.290   .     A
C1314  O1343   1.298   .     A
C1315  O1345   1.298   .     A
C1315  O1346   1.292   .     A
C1315  C1317   1.452   .     S
C1316  H1331   1.084   .     S
C1318  C1319   1.390   .     A
C1318  H1332   1.084   .     S
C1319  H1334   1.083   .     S
C1319  C636    1.393   1_556 S
C1320  H1333   1.079   .     S
Cu1321 O1341   1.944   .     S
Cu1321 O1339   1.955   .     S
Cu1321 N1337   2.021   .     S
Cu1321 Cu1322  2.689   .     S
Cu1321 O1343   1.964   .     S
Cu1321 O1345   1.938   .     S
Cu1322 O1346   1.944   .     S
Cu1322 O1340   1.964   .     S
Cu1322 O1342   1.938   .     S
Cu1322 O1344   1.955   .     S
Cu1322 N1338   2.021   .     S
C1347  C1348   1.403   .     A
C1347  C1352   1.404   .     A
C1348  C1349   1.396   .     A
C1348  H1353   1.082   .     S
C1349  H1354   1.082   .     S
C1349  C1350   1.397   .     A
C1350  C1351   1.396   .     A
C1350  H1355   1.082   .     S
C1351  C1352   1.398   .     A
C1351  H1356   1.080   .     S
C1352  H1357   1.083   .     S
C1358  C1359   1.407   .     A
C1358  C1363   1.408   .     A
C1359  H1364   1.078   .     S
C1359  C1360   1.397   .     A
C1360  C1361   1.396   .     A
C1360  H1365   1.080   .     S
C1361  C1362   1.396   .     A
C1361  H910    1.083   1_565 S
C1362  C1363   1.398   .     A
H1367  C678    1.082   1_556 S
H1368  C679    1.083   1_556 S
