data_str_m3_o1_o18_pcu_sym.76
_audit_creation_date              2020-01-03
_audit_creation_method            'Materials Studio'
_symmetry_space_group_name_H-M    'P1'
_symmetry_Int_Tables_number       1
_symmetry_cell_setting            triclinic
loop_
_symmetry_equiv_pos_as_xyz
  x,y,z
_cell_length_a                    29.5835
_cell_length_b                    32.0126
_cell_length_c                    30.7571
_cell_angle_alpha                 89.2185
_cell_angle_beta                  68.6741
_cell_angle_gamma                 89.7356
loop_
_atom_site_label
_atom_site_type_symbol
_atom_site_fract_x
_atom_site_fract_y
_atom_site_fract_z
_atom_site_U_iso_or_equiv
_atom_site_adp_type
_atom_site_occupancy
C1     C     0.16733   0.24655   0.24801   0.00000  Uiso   1.00
C2     C     0.14988   0.31343   0.21708   0.00000  Uiso   1.00
C3     C     0.16626   0.04250   0.25154   0.00000  Uiso   1.00
C4     C     0.16778   0.29071   0.24684   0.00000  Uiso   1.00
C5     C     0.31436   0.13194   0.23732   0.00000  Uiso   1.00
C6     C     0.01881   0.20127   0.26309   0.00000  Uiso   1.00
C7     C     0.02893   0.13197   0.23725   0.00000  Uiso   1.00
C8     C     0.30427   0.20126   0.26310   0.00000  Uiso   1.00
C9     C     0.13653   0.16627   0.33814   0.00000  Uiso   1.00
C10    C     0.19677   0.16601   0.16190   0.00000  Uiso   1.00
C11    C     0.11780   0.16175   0.38897   0.00000  Uiso   1.00
C12    C     0.16629   0.08671   0.25122   0.00000  Uiso   1.00
C13    C     0.21413   0.15681   0.11214   0.00000  Uiso   1.00
C14    C     0.05205   0.16326   0.46381   0.00000  Uiso   1.00
C15    C     0.26927   0.12038   0.04541   0.00000  Uiso   1.00
C16    C     0.06859   0.16767   0.41546   0.00000  Uiso   1.00
C17    C     0.25867   0.13691   0.08979   0.00000  Uiso   1.00
C18    C     0.14976   0.14981   0.41098   0.00000  Uiso   1.00
C19    C     0.18093   0.16028   0.08974   0.00000  Uiso   1.00
C20    C     0.13310   0.14149   0.45901   0.00000  Uiso   1.00
C21    C     0.18794   0.13872   0.04868   0.00000  Uiso   1.00
C22    C     0.08419   0.15114   0.48580   0.00000  Uiso   1.00
C23    C     0.10050   0.14108   0.05693   0.00000  Uiso   1.00
C24    C     0.23427   0.12161   0.02446   0.00000  Uiso   1.00
C25    C     0.16504   0.12824   0.48157   0.00000  Uiso   1.00
C26    C     0.15090   0.13612   0.02986   0.00000  Uiso   1.00
C27    C     0.07978   0.13248   0.10800   0.00000  Uiso   1.00
C28    C     0.22041   0.08411   0.41500   0.00000  Uiso   1.00
C29    C     0.20188   0.03952   0.31534   0.00000  Uiso   1.00
C30    C     0.13473   0.29322   0.18121   0.00000  Uiso   1.00
C31    C     0.21056   0.10810   0.45833   0.00000  Uiso   1.00
C32    C     0.06801   0.14891   0.03422   0.00000  Uiso   1.00
C33    C     0.24451   0.10511   0.48029   0.00000  Uiso   1.00
C34    C     0.18550   0.31010   0.27768   0.00000  Uiso   1.00
C35    C     0.14878   0.02311   0.22039   0.00000  Uiso   1.00
C36    C     0.18491   0.01968   0.28063   0.00000  Uiso   1.00
H37    H     0.02997   0.15399   0.05436   0.00000  Uiso   1.00
H38    H     0.13584   0.04183   0.19762   0.00000  Uiso   1.00
H39    H     0.30048   0.10418   0.22685   0.00000  Uiso   1.00
H40    H     0.03266   0.22899   0.27366   0.00000  Uiso   1.00
H41    H     0.05104   0.10424   0.22667   0.00000  Uiso   1.00
H42    H     0.28215   0.22897   0.27371   0.00000  Uiso   1.00
H43    H     0.10050   0.11514   0.12497   0.00000  Uiso   1.00
H44    H     0.19046   0.07394   0.40540   0.00000  Uiso   1.00
H45    H     0.19296   0.07171   0.32541   0.00000  Uiso   1.00
H46    H     0.14280   0.26063   0.17257   0.00000  Uiso   1.00
H47    H     0.27907   0.08977   0.46297   0.00000  Uiso   1.00
H48    H     0.14860   0.17886   0.10565   0.00000  Uiso   1.00
H49    H     0.18809   0.14841   0.39046   0.00000  Uiso   1.00
H50    H     0.28433   0.13291   0.10718   0.00000  Uiso   1.00
H51    H     0.04327   0.17685   0.39901   0.00000  Uiso   1.00
H52    H     0.01439   0.17005   0.48399   0.00000  Uiso   1.00
H53    H     0.30409   0.10551   0.02815   0.00000  Uiso   1.00
H54    H     0.19842   0.29143   0.30052   0.00000  Uiso   1.00
N55    N     0.04759   0.16668   0.25001   0.00000  Uiso   1.00
N56    N     0.28574   0.16666   0.24999   0.00000  Uiso   1.00
O57    O     0.12846   0.22775   0.25001   0.00000  Uiso   1.00
O58    O     0.26180   0.07508   0.39002   0.00000  Uiso   1.00
O59    O     0.22601   0.01981   0.33342   0.00000  Uiso   1.00
O60    O     0.11343   0.31301   0.16030   0.00000  Uiso   1.00
O61    O     0.20488   0.10558   0.25000   0.00000  Uiso   1.00
O62    O     0.20490   0.22774   0.25000   0.00000  Uiso   1.00
O63    O     0.12843   0.10559   0.25000   0.00000  Uiso   1.00
O64    O     0.10661   0.16667   0.31613   0.00000  Uiso   1.00
O65    O     0.22672   0.16666   0.18388   0.00000  Uiso   1.00
O66    O     0.18305   0.16666   0.31612   0.00000  Uiso   1.00
O67    O     0.15028   0.16667   0.18388   0.00000  Uiso   1.00
O68    O     0.03897   0.14416   0.13162   0.00000  Uiso   1.00
Zn69   Zn    0.11562   0.16667   0.25000   0.00000  Uiso   1.00
Zn70   Zn    0.21771   0.16666   0.25000   0.00000  Uiso   1.00
C71    C     0.50066   0.24655   0.24801   0.00000  Uiso   1.00
C72    C     0.48321   0.31343   0.21708   0.00000  Uiso   1.00
C73    C     0.49959   0.04250   0.25154   0.00000  Uiso   1.00
C74    C     0.50111   0.29071   0.24684   0.00000  Uiso   1.00
C75    C     0.64770   0.13194   0.23732   0.00000  Uiso   1.00
C76    C     0.35215   0.20127   0.26309   0.00000  Uiso   1.00
C77    C     0.36227   0.13197   0.23725   0.00000  Uiso   1.00
C78    C     0.63761   0.20126   0.26310   0.00000  Uiso   1.00
C79    C     0.46986   0.16627   0.33814   0.00000  Uiso   1.00
C80    C     0.53010   0.16601   0.16190   0.00000  Uiso   1.00
C81    C     0.45114   0.16175   0.38897   0.00000  Uiso   1.00
C82    C     0.49962   0.08671   0.25122   0.00000  Uiso   1.00
C83    C     0.54747   0.15681   0.11214   0.00000  Uiso   1.00
C84    C     0.38539   0.16326   0.46381   0.00000  Uiso   1.00
C85    C     0.60261   0.12038   0.04541   0.00000  Uiso   1.00
C86    C     0.40192   0.16767   0.41546   0.00000  Uiso   1.00
C87    C     0.59200   0.13691   0.08979   0.00000  Uiso   1.00
C88    C     0.48309   0.14981   0.41098   0.00000  Uiso   1.00
C89    C     0.51426   0.16028   0.08974   0.00000  Uiso   1.00
C90    C     0.46643   0.14149   0.45901   0.00000  Uiso   1.00
C91    C     0.52127   0.13872   0.04868   0.00000  Uiso   1.00
C92    C     0.41753   0.15114   0.48580   0.00000  Uiso   1.00
C93    C     0.43383   0.14108   0.05693   0.00000  Uiso   1.00
C94    C     0.56760   0.12161   0.02446   0.00000  Uiso   1.00
C95    C     0.49838   0.12824   0.48157   0.00000  Uiso   1.00
C96    C     0.48424   0.13612   0.02986   0.00000  Uiso   1.00
C97    C     0.41312   0.13248   0.10800   0.00000  Uiso   1.00
C98    C     0.55374   0.08411   0.41500   0.00000  Uiso   1.00
C99    C     0.53521   0.03952   0.31534   0.00000  Uiso   1.00
C100   C     0.46807   0.29322   0.18121   0.00000  Uiso   1.00
C101   C     0.54389   0.10810   0.45833   0.00000  Uiso   1.00
C102   C     0.40134   0.14891   0.03422   0.00000  Uiso   1.00
C103   C     0.57784   0.10511   0.48029   0.00000  Uiso   1.00
C104   C     0.51883   0.31010   0.27768   0.00000  Uiso   1.00
C105   C     0.48211   0.02311   0.22039   0.00000  Uiso   1.00
C106   C     0.51825   0.01968   0.28063   0.00000  Uiso   1.00
H107   H     0.36330   0.15399   0.05436   0.00000  Uiso   1.00
H108   H     0.46917   0.04183   0.19762   0.00000  Uiso   1.00
H109   H     0.63382   0.10418   0.22685   0.00000  Uiso   1.00
H110   H     0.36600   0.22899   0.27366   0.00000  Uiso   1.00
H111   H     0.38438   0.10424   0.22667   0.00000  Uiso   1.00
H112   H     0.61548   0.22897   0.27371   0.00000  Uiso   1.00
H113   H     0.43383   0.11514   0.12497   0.00000  Uiso   1.00
H114   H     0.52379   0.07394   0.40540   0.00000  Uiso   1.00
H115   H     0.52630   0.07171   0.32541   0.00000  Uiso   1.00
H116   H     0.47613   0.26063   0.17257   0.00000  Uiso   1.00
H117   H     0.61241   0.08977   0.46297   0.00000  Uiso   1.00
H118   H     0.48194   0.17886   0.10565   0.00000  Uiso   1.00
H119   H     0.52142   0.14841   0.39046   0.00000  Uiso   1.00
H120   H     0.61766   0.13291   0.10718   0.00000  Uiso   1.00
H121   H     0.37660   0.17685   0.39901   0.00000  Uiso   1.00
H122   H     0.34772   0.17005   0.48399   0.00000  Uiso   1.00
H123   H     0.63742   0.10551   0.02815   0.00000  Uiso   1.00
H124   H     0.53176   0.29143   0.30052   0.00000  Uiso   1.00
N125   N     0.38093   0.16668   0.25001   0.00000  Uiso   1.00
N126   N     0.61907   0.16666   0.24999   0.00000  Uiso   1.00
O127   O     0.46179   0.22775   0.25001   0.00000  Uiso   1.00
O128   O     0.59514   0.07508   0.39002   0.00000  Uiso   1.00
O129   O     0.55934   0.01981   0.33342   0.00000  Uiso   1.00
O130   O     0.44676   0.31301   0.16030   0.00000  Uiso   1.00
O131   O     0.53821   0.10558   0.25000   0.00000  Uiso   1.00
O132   O     0.53823   0.22774   0.25000   0.00000  Uiso   1.00
O133   O     0.46177   0.10559   0.25000   0.00000  Uiso   1.00
O134   O     0.43994   0.16667   0.31613   0.00000  Uiso   1.00
O135   O     0.56006   0.16666   0.18388   0.00000  Uiso   1.00
O136   O     0.51639   0.16666   0.31612   0.00000  Uiso   1.00
O137   O     0.48361   0.16667   0.18388   0.00000  Uiso   1.00
O138   O     0.37231   0.14416   0.13162   0.00000  Uiso   1.00
Zn139  Zn    0.44896   0.16667   0.25000   0.00000  Uiso   1.00
Zn140  Zn    0.55104   0.16666   0.25000   0.00000  Uiso   1.00
C141   C     0.83400   0.24655   0.24801   0.00000  Uiso   1.00
C142   C     0.81655   0.31343   0.21708   0.00000  Uiso   1.00
C143   C     0.83292   0.04250   0.25154   0.00000  Uiso   1.00
C144   C     0.83445   0.29071   0.24684   0.00000  Uiso   1.00
C145   C     0.98103   0.13194   0.23732   0.00000  Uiso   1.00
C146   C     0.68548   0.20127   0.26309   0.00000  Uiso   1.00
C147   C     0.69560   0.13197   0.23725   0.00000  Uiso   1.00
C148   C     0.97094   0.20126   0.26310   0.00000  Uiso   1.00
C149   C     0.80319   0.16627   0.33814   0.00000  Uiso   1.00
C150   C     0.86343   0.16601   0.16190   0.00000  Uiso   1.00
C151   C     0.78447   0.16175   0.38897   0.00000  Uiso   1.00
C152   C     0.83296   0.08671   0.25122   0.00000  Uiso   1.00
C153   C     0.88080   0.15681   0.11214   0.00000  Uiso   1.00
C154   C     0.71872   0.16326   0.46381   0.00000  Uiso   1.00
C155   C     0.93594   0.12038   0.04541   0.00000  Uiso   1.00
C156   C     0.73525   0.16767   0.41546   0.00000  Uiso   1.00
C157   C     0.92533   0.13691   0.08979   0.00000  Uiso   1.00
C158   C     0.81643   0.14981   0.41098   0.00000  Uiso   1.00
C159   C     0.84759   0.16028   0.08974   0.00000  Uiso   1.00
C160   C     0.79976   0.14149   0.45901   0.00000  Uiso   1.00
C161   C     0.85461   0.13872   0.04868   0.00000  Uiso   1.00
C162   C     0.75086   0.15114   0.48580   0.00000  Uiso   1.00
C163   C     0.76716   0.14108   0.05693   0.00000  Uiso   1.00
C164   C     0.90093   0.12161   0.02446   0.00000  Uiso   1.00
C165   C     0.83171   0.12824   0.48157   0.00000  Uiso   1.00
C166   C     0.81757   0.13612   0.02986   0.00000  Uiso   1.00
C167   C     0.74645   0.13248   0.10800   0.00000  Uiso   1.00
C168   C     0.88707   0.08411   0.41500   0.00000  Uiso   1.00
C169   C     0.86855   0.03952   0.31534   0.00000  Uiso   1.00
C170   C     0.80140   0.29322   0.18121   0.00000  Uiso   1.00
C171   C     0.87722   0.10810   0.45833   0.00000  Uiso   1.00
C172   C     0.73468   0.14891   0.03422   0.00000  Uiso   1.00
C173   C     0.91118   0.10511   0.48029   0.00000  Uiso   1.00
C174   C     0.85217   0.31010   0.27768   0.00000  Uiso   1.00
C175   C     0.81545   0.02311   0.22039   0.00000  Uiso   1.00
C176   C     0.85158   0.01968   0.28063   0.00000  Uiso   1.00
H177   H     0.69663   0.15399   0.05436   0.00000  Uiso   1.00
H178   H     0.80250   0.04183   0.19762   0.00000  Uiso   1.00
H179   H     0.96715   0.10418   0.22685   0.00000  Uiso   1.00
H180   H     0.69933   0.22899   0.27366   0.00000  Uiso   1.00
H181   H     0.71771   0.10424   0.22667   0.00000  Uiso   1.00
H182   H     0.94881   0.22897   0.27371   0.00000  Uiso   1.00
H183   H     0.76716   0.11514   0.12497   0.00000  Uiso   1.00
H184   H     0.85713   0.07394   0.40540   0.00000  Uiso   1.00
H185   H     0.85963   0.07171   0.32541   0.00000  Uiso   1.00
H186   H     0.80947   0.26063   0.17257   0.00000  Uiso   1.00
H187   H     0.94574   0.08977   0.46297   0.00000  Uiso   1.00
H188   H     0.81527   0.17886   0.10565   0.00000  Uiso   1.00
H189   H     0.85475   0.14841   0.39046   0.00000  Uiso   1.00
H190   H     0.95099   0.13291   0.10718   0.00000  Uiso   1.00
H191   H     0.70993   0.17685   0.39901   0.00000  Uiso   1.00
H192   H     0.68105   0.17005   0.48399   0.00000  Uiso   1.00
H193   H     0.97075   0.10551   0.02815   0.00000  Uiso   1.00
H194   H     0.86509   0.29143   0.30052   0.00000  Uiso   1.00
N195   N     0.71426   0.16668   0.25001   0.00000  Uiso   1.00
N196   N     0.95241   0.16666   0.24999   0.00000  Uiso   1.00
O197   O     0.79512   0.22775   0.25001   0.00000  Uiso   1.00
O198   O     0.92847   0.07508   0.39002   0.00000  Uiso   1.00
O199   O     0.89267   0.01981   0.33342   0.00000  Uiso   1.00
O200   O     0.78010   0.31301   0.16030   0.00000  Uiso   1.00
O201   O     0.87154   0.10558   0.25000   0.00000  Uiso   1.00
O202   O     0.87157   0.22774   0.25000   0.00000  Uiso   1.00
O203   O     0.79510   0.10559   0.25000   0.00000  Uiso   1.00
O204   O     0.77328   0.16667   0.31613   0.00000  Uiso   1.00
O205   O     0.89339   0.16666   0.18388   0.00000  Uiso   1.00
O206   O     0.84972   0.16666   0.31612   0.00000  Uiso   1.00
O207   O     0.81695   0.16667   0.18388   0.00000  Uiso   1.00
O208   O     0.70564   0.14416   0.13162   0.00000  Uiso   1.00
Zn209  Zn    0.78229   0.16667   0.25000   0.00000  Uiso   1.00
Zn210  Zn    0.88438   0.16666   0.25000   0.00000  Uiso   1.00
C211   C     0.16733   0.57988   0.24801   0.00000  Uiso   1.00
C212   C     0.14988   0.64676   0.21708   0.00000  Uiso   1.00
C213   C     0.16626   0.37583   0.25154   0.00000  Uiso   1.00
C214   C     0.16778   0.62404   0.24684   0.00000  Uiso   1.00
C215   C     0.31436   0.46527   0.23732   0.00000  Uiso   1.00
C216   C     0.01881   0.53461   0.26309   0.00000  Uiso   1.00
C217   C     0.02893   0.46530   0.23725   0.00000  Uiso   1.00
C218   C     0.30427   0.53459   0.26310   0.00000  Uiso   1.00
C219   C     0.13653   0.49960   0.33814   0.00000  Uiso   1.00
C220   C     0.19677   0.49935   0.16190   0.00000  Uiso   1.00
C221   C     0.11780   0.49509   0.38897   0.00000  Uiso   1.00
C222   C     0.16629   0.42005   0.25122   0.00000  Uiso   1.00
C223   C     0.21413   0.49015   0.11214   0.00000  Uiso   1.00
C224   C     0.05205   0.49659   0.46381   0.00000  Uiso   1.00
C225   C     0.26927   0.45372   0.04541   0.00000  Uiso   1.00
C226   C     0.06859   0.50101   0.41546   0.00000  Uiso   1.00
C227   C     0.25867   0.47024   0.08979   0.00000  Uiso   1.00
C228   C     0.14976   0.48314   0.41098   0.00000  Uiso   1.00
C229   C     0.18093   0.49362   0.08974   0.00000  Uiso   1.00
C230   C     0.13310   0.47482   0.45901   0.00000  Uiso   1.00
C231   C     0.18794   0.47205   0.04868   0.00000  Uiso   1.00
C232   C     0.08419   0.48447   0.48580   0.00000  Uiso   1.00
C233   C     0.10050   0.47441   0.05693   0.00000  Uiso   1.00
C234   C     0.23427   0.45494   0.02446   0.00000  Uiso   1.00
C235   C     0.16504   0.46157   0.48157   0.00000  Uiso   1.00
C236   C     0.15090   0.46945   0.02986   0.00000  Uiso   1.00
C237   C     0.07978   0.46581   0.10800   0.00000  Uiso   1.00
C238   C     0.22041   0.41744   0.41500   0.00000  Uiso   1.00
C239   C     0.20188   0.37285   0.31534   0.00000  Uiso   1.00
C240   C     0.13473   0.62655   0.18121   0.00000  Uiso   1.00
C241   C     0.21056   0.44143   0.45833   0.00000  Uiso   1.00
C242   C     0.06801   0.48224   0.03422   0.00000  Uiso   1.00
C243   C     0.24451   0.43844   0.48029   0.00000  Uiso   1.00
C244   C     0.18550   0.64344   0.27768   0.00000  Uiso   1.00
C245   C     0.14878   0.35644   0.22039   0.00000  Uiso   1.00
C246   C     0.18491   0.35301   0.28063   0.00000  Uiso   1.00
H247   H     0.02997   0.48733   0.05436   0.00000  Uiso   1.00
H248   H     0.13584   0.37517   0.19762   0.00000  Uiso   1.00
H249   H     0.30048   0.43751   0.22685   0.00000  Uiso   1.00
H250   H     0.03266   0.56232   0.27366   0.00000  Uiso   1.00
H251   H     0.05104   0.43758   0.22667   0.00000  Uiso   1.00
H252   H     0.28215   0.56230   0.27371   0.00000  Uiso   1.00
H253   H     0.10050   0.44848   0.12497   0.00000  Uiso   1.00
H254   H     0.19046   0.40727   0.40540   0.00000  Uiso   1.00
H255   H     0.19296   0.40505   0.32541   0.00000  Uiso   1.00
H256   H     0.14280   0.59396   0.17257   0.00000  Uiso   1.00
H257   H     0.27907   0.42311   0.46297   0.00000  Uiso   1.00
H258   H     0.14860   0.51220   0.10565   0.00000  Uiso   1.00
H259   H     0.18809   0.48174   0.39046   0.00000  Uiso   1.00
H260   H     0.28433   0.46624   0.10718   0.00000  Uiso   1.00
H261   H     0.04327   0.51019   0.39901   0.00000  Uiso   1.00
H262   H     0.01439   0.50338   0.48399   0.00000  Uiso   1.00
H263   H     0.30409   0.43884   0.02815   0.00000  Uiso   1.00
H264   H     0.19842   0.62476   0.30052   0.00000  Uiso   1.00
N265   N     0.04759   0.50001   0.25001   0.00000  Uiso   1.00
N266   N     0.28574   0.49999   0.24999   0.00000  Uiso   1.00
O267   O     0.12846   0.56108   0.25001   0.00000  Uiso   1.00
O268   O     0.26180   0.40842   0.39002   0.00000  Uiso   1.00
O269   O     0.22601   0.35314   0.33342   0.00000  Uiso   1.00
O270   O     0.11343   0.64634   0.16030   0.00000  Uiso   1.00
O271   O     0.20488   0.43892   0.25000   0.00000  Uiso   1.00
O272   O     0.20490   0.56107   0.25000   0.00000  Uiso   1.00
O273   O     0.12843   0.43893   0.25000   0.00000  Uiso   1.00
O274   O     0.10661   0.50001   0.31613   0.00000  Uiso   1.00
O275   O     0.22672   0.49999   0.18388   0.00000  Uiso   1.00
O276   O     0.18305   0.50000   0.31612   0.00000  Uiso   1.00
O277   O     0.15028   0.50000   0.18388   0.00000  Uiso   1.00
O278   O     0.03897   0.47749   0.13162   0.00000  Uiso   1.00
Zn279  Zn    0.11562   0.50001   0.25000   0.00000  Uiso   1.00
Zn280  Zn    0.21771   0.49999   0.25000   0.00000  Uiso   1.00
C281   C     0.50066   0.57988   0.24801   0.00000  Uiso   1.00
C282   C     0.48321   0.64676   0.21708   0.00000  Uiso   1.00
C283   C     0.49959   0.37583   0.25154   0.00000  Uiso   1.00
C284   C     0.50111   0.62404   0.24684   0.00000  Uiso   1.00
C285   C     0.64770   0.46527   0.23732   0.00000  Uiso   1.00
C286   C     0.35215   0.53461   0.26309   0.00000  Uiso   1.00
C287   C     0.36227   0.46530   0.23725   0.00000  Uiso   1.00
C288   C     0.63761   0.53459   0.26310   0.00000  Uiso   1.00
C289   C     0.46986   0.49960   0.33814   0.00000  Uiso   1.00
C290   C     0.53010   0.49935   0.16190   0.00000  Uiso   1.00
C291   C     0.45114   0.49509   0.38897   0.00000  Uiso   1.00
C292   C     0.49962   0.42005   0.25122   0.00000  Uiso   1.00
C293   C     0.54747   0.49015   0.11214   0.00000  Uiso   1.00
C294   C     0.38539   0.49659   0.46381   0.00000  Uiso   1.00
C295   C     0.60261   0.45372   0.04541   0.00000  Uiso   1.00
C296   C     0.40192   0.50101   0.41546   0.00000  Uiso   1.00
C297   C     0.59200   0.47024   0.08979   0.00000  Uiso   1.00
C298   C     0.48309   0.48314   0.41098   0.00000  Uiso   1.00
C299   C     0.51426   0.49362   0.08974   0.00000  Uiso   1.00
C300   C     0.46643   0.47482   0.45901   0.00000  Uiso   1.00
C301   C     0.52127   0.47205   0.04868   0.00000  Uiso   1.00
C302   C     0.41753   0.48447   0.48580   0.00000  Uiso   1.00
C303   C     0.43383   0.47441   0.05693   0.00000  Uiso   1.00
C304   C     0.56760   0.45494   0.02446   0.00000  Uiso   1.00
C305   C     0.49838   0.46157   0.48157   0.00000  Uiso   1.00
C306   C     0.48424   0.46945   0.02986   0.00000  Uiso   1.00
C307   C     0.41312   0.46581   0.10800   0.00000  Uiso   1.00
C308   C     0.55374   0.41744   0.41500   0.00000  Uiso   1.00
C309   C     0.53521   0.37285   0.31534   0.00000  Uiso   1.00
C310   C     0.46807   0.62655   0.18121   0.00000  Uiso   1.00
C311   C     0.54389   0.44143   0.45833   0.00000  Uiso   1.00
C312   C     0.40134   0.48224   0.03422   0.00000  Uiso   1.00
C313   C     0.57784   0.43844   0.48029   0.00000  Uiso   1.00
C314   C     0.51883   0.64344   0.27768   0.00000  Uiso   1.00
C315   C     0.48211   0.35644   0.22039   0.00000  Uiso   1.00
C316   C     0.51825   0.35301   0.28063   0.00000  Uiso   1.00
H317   H     0.36330   0.48733   0.05436   0.00000  Uiso   1.00
H318   H     0.46917   0.37517   0.19762   0.00000  Uiso   1.00
H319   H     0.63382   0.43751   0.22685   0.00000  Uiso   1.00
H320   H     0.36600   0.56232   0.27366   0.00000  Uiso   1.00
H321   H     0.38438   0.43758   0.22667   0.00000  Uiso   1.00
H322   H     0.61548   0.56230   0.27371   0.00000  Uiso   1.00
H323   H     0.43383   0.44848   0.12497   0.00000  Uiso   1.00
H324   H     0.52379   0.40727   0.40540   0.00000  Uiso   1.00
H325   H     0.52630   0.40505   0.32541   0.00000  Uiso   1.00
H326   H     0.47613   0.59396   0.17257   0.00000  Uiso   1.00
H327   H     0.61241   0.42311   0.46297   0.00000  Uiso   1.00
H328   H     0.48194   0.51220   0.10565   0.00000  Uiso   1.00
H329   H     0.52142   0.48174   0.39046   0.00000  Uiso   1.00
H330   H     0.61766   0.46624   0.10718   0.00000  Uiso   1.00
H331   H     0.37660   0.51019   0.39901   0.00000  Uiso   1.00
H332   H     0.34772   0.50338   0.48399   0.00000  Uiso   1.00
H333   H     0.63742   0.43884   0.02815   0.00000  Uiso   1.00
H334   H     0.53176   0.62476   0.30052   0.00000  Uiso   1.00
N335   N     0.38093   0.50001   0.25001   0.00000  Uiso   1.00
N336   N     0.61907   0.49999   0.24999   0.00000  Uiso   1.00
O337   O     0.46179   0.56108   0.25001   0.00000  Uiso   1.00
O338   O     0.59514   0.40842   0.39002   0.00000  Uiso   1.00
O339   O     0.55934   0.35314   0.33342   0.00000  Uiso   1.00
O340   O     0.44676   0.64634   0.16030   0.00000  Uiso   1.00
O341   O     0.53821   0.43892   0.25000   0.00000  Uiso   1.00
O342   O     0.53823   0.56107   0.25000   0.00000  Uiso   1.00
O343   O     0.46177   0.43893   0.25000   0.00000  Uiso   1.00
O344   O     0.43994   0.50001   0.31613   0.00000  Uiso   1.00
O345   O     0.56006   0.49999   0.18388   0.00000  Uiso   1.00
O346   O     0.51639   0.50000   0.31612   0.00000  Uiso   1.00
O347   O     0.48361   0.50000   0.18388   0.00000  Uiso   1.00
O348   O     0.37231   0.47749   0.13162   0.00000  Uiso   1.00
Zn349  Zn    0.44896   0.50001   0.25000   0.00000  Uiso   1.00
Zn350  Zn    0.55104   0.49999   0.25000   0.00000  Uiso   1.00
C351   C     0.83400   0.57988   0.24801   0.00000  Uiso   1.00
C352   C     0.81655   0.64676   0.21708   0.00000  Uiso   1.00
C353   C     0.83292   0.37583   0.25154   0.00000  Uiso   1.00
C354   C     0.83445   0.62404   0.24684   0.00000  Uiso   1.00
C355   C     0.98103   0.46527   0.23732   0.00000  Uiso   1.00
C356   C     0.68548   0.53461   0.26309   0.00000  Uiso   1.00
C357   C     0.69560   0.46530   0.23725   0.00000  Uiso   1.00
C358   C     0.97094   0.53459   0.26310   0.00000  Uiso   1.00
C359   C     0.80319   0.49960   0.33814   0.00000  Uiso   1.00
C360   C     0.86343   0.49935   0.16190   0.00000  Uiso   1.00
C361   C     0.78447   0.49509   0.38897   0.00000  Uiso   1.00
C362   C     0.83296   0.42005   0.25122   0.00000  Uiso   1.00
C363   C     0.88080   0.49015   0.11214   0.00000  Uiso   1.00
C364   C     0.71872   0.49659   0.46381   0.00000  Uiso   1.00
C365   C     0.93594   0.45372   0.04541   0.00000  Uiso   1.00
C366   C     0.73525   0.50101   0.41546   0.00000  Uiso   1.00
C367   C     0.92533   0.47024   0.08979   0.00000  Uiso   1.00
C368   C     0.81643   0.48314   0.41098   0.00000  Uiso   1.00
C369   C     0.84759   0.49362   0.08974   0.00000  Uiso   1.00
C370   C     0.79976   0.47482   0.45901   0.00000  Uiso   1.00
C371   C     0.85461   0.47205   0.04868   0.00000  Uiso   1.00
C372   C     0.75086   0.48447   0.48580   0.00000  Uiso   1.00
C373   C     0.76716   0.47441   0.05693   0.00000  Uiso   1.00
C374   C     0.90093   0.45494   0.02446   0.00000  Uiso   1.00
C375   C     0.83171   0.46157   0.48157   0.00000  Uiso   1.00
C376   C     0.81757   0.46945   0.02986   0.00000  Uiso   1.00
C377   C     0.74645   0.46581   0.10800   0.00000  Uiso   1.00
C378   C     0.88707   0.41744   0.41500   0.00000  Uiso   1.00
C379   C     0.86855   0.37285   0.31534   0.00000  Uiso   1.00
C380   C     0.80140   0.62655   0.18121   0.00000  Uiso   1.00
C381   C     0.87722   0.44143   0.45833   0.00000  Uiso   1.00
C382   C     0.73468   0.48224   0.03422   0.00000  Uiso   1.00
C383   C     0.91118   0.43844   0.48029   0.00000  Uiso   1.00
C384   C     0.85217   0.64344   0.27768   0.00000  Uiso   1.00
C385   C     0.81545   0.35644   0.22039   0.00000  Uiso   1.00
C386   C     0.85158   0.35301   0.28063   0.00000  Uiso   1.00
H387   H     0.69663   0.48733   0.05436   0.00000  Uiso   1.00
H388   H     0.80250   0.37517   0.19762   0.00000  Uiso   1.00
H389   H     0.96715   0.43751   0.22685   0.00000  Uiso   1.00
H390   H     0.69933   0.56232   0.27366   0.00000  Uiso   1.00
H391   H     0.71771   0.43758   0.22667   0.00000  Uiso   1.00
H392   H     0.94881   0.56230   0.27371   0.00000  Uiso   1.00
H393   H     0.76716   0.44848   0.12497   0.00000  Uiso   1.00
H394   H     0.85713   0.40727   0.40540   0.00000  Uiso   1.00
H395   H     0.85963   0.40505   0.32541   0.00000  Uiso   1.00
H396   H     0.80947   0.59396   0.17257   0.00000  Uiso   1.00
H397   H     0.94574   0.42311   0.46297   0.00000  Uiso   1.00
H398   H     0.81527   0.51220   0.10565   0.00000  Uiso   1.00
H399   H     0.85475   0.48174   0.39046   0.00000  Uiso   1.00
H400   H     0.95099   0.46624   0.10718   0.00000  Uiso   1.00
H401   H     0.70993   0.51019   0.39901   0.00000  Uiso   1.00
H402   H     0.68105   0.50338   0.48399   0.00000  Uiso   1.00
H403   H     0.97075   0.43884   0.02815   0.00000  Uiso   1.00
H404   H     0.86509   0.62476   0.30052   0.00000  Uiso   1.00
N405   N     0.71426   0.50001   0.25001   0.00000  Uiso   1.00
N406   N     0.95241   0.49999   0.24999   0.00000  Uiso   1.00
O407   O     0.79512   0.56108   0.25001   0.00000  Uiso   1.00
O408   O     0.92847   0.40842   0.39002   0.00000  Uiso   1.00
O409   O     0.89267   0.35314   0.33342   0.00000  Uiso   1.00
O410   O     0.78010   0.64634   0.16030   0.00000  Uiso   1.00
O411   O     0.87154   0.43892   0.25000   0.00000  Uiso   1.00
O412   O     0.87157   0.56107   0.25000   0.00000  Uiso   1.00
O413   O     0.79510   0.43893   0.25000   0.00000  Uiso   1.00
O414   O     0.77328   0.50001   0.31613   0.00000  Uiso   1.00
O415   O     0.89339   0.49999   0.18388   0.00000  Uiso   1.00
O416   O     0.84972   0.50000   0.31612   0.00000  Uiso   1.00
O417   O     0.81695   0.50000   0.18388   0.00000  Uiso   1.00
O418   O     0.70564   0.47749   0.13162   0.00000  Uiso   1.00
Zn419  Zn    0.78229   0.50001   0.25000   0.00000  Uiso   1.00
Zn420  Zn    0.88438   0.49999   0.25000   0.00000  Uiso   1.00
C421   C     0.16733   0.91322   0.24801   0.00000  Uiso   1.00
C422   C     0.14988   0.98009   0.21708   0.00000  Uiso   1.00
C423   C     0.16626   0.70917   0.25154   0.00000  Uiso   1.00
C424   C     0.16778   0.95737   0.24684   0.00000  Uiso   1.00
C425   C     0.31436   0.79860   0.23732   0.00000  Uiso   1.00
C426   C     0.01881   0.86794   0.26309   0.00000  Uiso   1.00
C427   C     0.02893   0.79864   0.23725   0.00000  Uiso   1.00
C428   C     0.30427   0.86793   0.26310   0.00000  Uiso   1.00
C429   C     0.13653   0.83294   0.33814   0.00000  Uiso   1.00
C430   C     0.19677   0.83268   0.16190   0.00000  Uiso   1.00
C431   C     0.11780   0.82842   0.38897   0.00000  Uiso   1.00
C432   C     0.16629   0.75338   0.25122   0.00000  Uiso   1.00
C433   C     0.21413   0.82348   0.11214   0.00000  Uiso   1.00
C434   C     0.05205   0.82993   0.46381   0.00000  Uiso   1.00
C435   C     0.26927   0.78705   0.04541   0.00000  Uiso   1.00
C436   C     0.06859   0.83434   0.41546   0.00000  Uiso   1.00
C437   C     0.25867   0.80357   0.08979   0.00000  Uiso   1.00
C438   C     0.14976   0.81647   0.41098   0.00000  Uiso   1.00
C439   C     0.18093   0.82695   0.08974   0.00000  Uiso   1.00
C440   C     0.13310   0.80816   0.45901   0.00000  Uiso   1.00
C441   C     0.18794   0.80538   0.04868   0.00000  Uiso   1.00
C442   C     0.08419   0.81781   0.48580   0.00000  Uiso   1.00
C443   C     0.10050   0.80774   0.05693   0.00000  Uiso   1.00
C444   C     0.23427   0.78828   0.02446   0.00000  Uiso   1.00
C445   C     0.16504   0.79490   0.48157   0.00000  Uiso   1.00
C446   C     0.15090   0.80279   0.02986   0.00000  Uiso   1.00
C447   C     0.07978   0.79914   0.10800   0.00000  Uiso   1.00
C448   C     0.22041   0.75078   0.41500   0.00000  Uiso   1.00
C449   C     0.20188   0.70619   0.31534   0.00000  Uiso   1.00
C450   C     0.13473   0.95989   0.18121   0.00000  Uiso   1.00
C451   C     0.21056   0.77477   0.45833   0.00000  Uiso   1.00
C452   C     0.06801   0.81557   0.03422   0.00000  Uiso   1.00
C453   C     0.24451   0.77178   0.48029   0.00000  Uiso   1.00
C454   C     0.18550   0.97677   0.27768   0.00000  Uiso   1.00
C455   C     0.14878   0.68977   0.22039   0.00000  Uiso   1.00
C456   C     0.18491   0.68634   0.28063   0.00000  Uiso   1.00
H457   H     0.02997   0.82066   0.05436   0.00000  Uiso   1.00
H458   H     0.13584   0.70850   0.19762   0.00000  Uiso   1.00
H459   H     0.30048   0.77085   0.22685   0.00000  Uiso   1.00
H460   H     0.03266   0.89566   0.27366   0.00000  Uiso   1.00
H461   H     0.05104   0.77091   0.22667   0.00000  Uiso   1.00
H462   H     0.28215   0.89563   0.27371   0.00000  Uiso   1.00
H463   H     0.10050   0.78181   0.12497   0.00000  Uiso   1.00
H464   H     0.19046   0.74061   0.40540   0.00000  Uiso   1.00
H465   H     0.19296   0.73838   0.32541   0.00000  Uiso   1.00
H466   H     0.14280   0.92730   0.17257   0.00000  Uiso   1.00
H467   H     0.27907   0.75644   0.46297   0.00000  Uiso   1.00
H468   H     0.14860   0.84553   0.10565   0.00000  Uiso   1.00
H469   H     0.18809   0.81507   0.39046   0.00000  Uiso   1.00
H470   H     0.28433   0.79957   0.10718   0.00000  Uiso   1.00
H471   H     0.04327   0.84352   0.39901   0.00000  Uiso   1.00
H472   H     0.01439   0.83671   0.48399   0.00000  Uiso   1.00
H473   H     0.30409   0.77217   0.02815   0.00000  Uiso   1.00
H474   H     0.19842   0.95809   0.30052   0.00000  Uiso   1.00
N475   N     0.04759   0.83334   0.25001   0.00000  Uiso   1.00
N476   N     0.28574   0.83332   0.24999   0.00000  Uiso   1.00
O477   O     0.12846   0.89442   0.25001   0.00000  Uiso   1.00
O478   O     0.26180   0.74175   0.39002   0.00000  Uiso   1.00
O479   O     0.22601   0.68648   0.33342   0.00000  Uiso   1.00
O480   O     0.11343   0.97968   0.16030   0.00000  Uiso   1.00
O481   O     0.20488   0.77225   0.25000   0.00000  Uiso   1.00
O482   O     0.20490   0.89441   0.25000   0.00000  Uiso   1.00
O483   O     0.12843   0.77226   0.25000   0.00000  Uiso   1.00
O484   O     0.10661   0.83334   0.31613   0.00000  Uiso   1.00
O485   O     0.22672   0.83333   0.18388   0.00000  Uiso   1.00
O486   O     0.18305   0.83333   0.31612   0.00000  Uiso   1.00
O487   O     0.15028   0.83334   0.18388   0.00000  Uiso   1.00
O488   O     0.03897   0.81082   0.13162   0.00000  Uiso   1.00
Zn489  Zn    0.11562   0.83334   0.25000   0.00000  Uiso   1.00
Zn490  Zn    0.21771   0.83333   0.25000   0.00000  Uiso   1.00
C491   C     0.50066   0.91322   0.24801   0.00000  Uiso   1.00
C492   C     0.48321   0.98009   0.21708   0.00000  Uiso   1.00
C493   C     0.49959   0.70917   0.25154   0.00000  Uiso   1.00
C494   C     0.50111   0.95737   0.24684   0.00000  Uiso   1.00
C495   C     0.64770   0.79860   0.23732   0.00000  Uiso   1.00
C496   C     0.35215   0.86794   0.26309   0.00000  Uiso   1.00
C497   C     0.36227   0.79864   0.23725   0.00000  Uiso   1.00
C498   C     0.63761   0.86793   0.26310   0.00000  Uiso   1.00
C499   C     0.46986   0.83294   0.33814   0.00000  Uiso   1.00
C500   C     0.53010   0.83268   0.16190   0.00000  Uiso   1.00
C501   C     0.45114   0.82842   0.38897   0.00000  Uiso   1.00
C502   C     0.49962   0.75338   0.25122   0.00000  Uiso   1.00
C503   C     0.54747   0.82348   0.11214   0.00000  Uiso   1.00
C504   C     0.38539   0.82993   0.46381   0.00000  Uiso   1.00
C505   C     0.60261   0.78705   0.04541   0.00000  Uiso   1.00
C506   C     0.40192   0.83434   0.41546   0.00000  Uiso   1.00
C507   C     0.59200   0.80357   0.08979   0.00000  Uiso   1.00
C508   C     0.48309   0.81647   0.41098   0.00000  Uiso   1.00
C509   C     0.51426   0.82695   0.08974   0.00000  Uiso   1.00
C510   C     0.46643   0.80816   0.45901   0.00000  Uiso   1.00
C511   C     0.52127   0.80538   0.04868   0.00000  Uiso   1.00
C512   C     0.41753   0.81781   0.48580   0.00000  Uiso   1.00
C513   C     0.43383   0.80774   0.05693   0.00000  Uiso   1.00
C514   C     0.56760   0.78828   0.02446   0.00000  Uiso   1.00
C515   C     0.49838   0.79490   0.48157   0.00000  Uiso   1.00
C516   C     0.48424   0.80279   0.02986   0.00000  Uiso   1.00
C517   C     0.41312   0.79914   0.10800   0.00000  Uiso   1.00
C518   C     0.55374   0.75078   0.41500   0.00000  Uiso   1.00
C519   C     0.53521   0.70619   0.31534   0.00000  Uiso   1.00
C520   C     0.46807   0.95989   0.18121   0.00000  Uiso   1.00
C521   C     0.54389   0.77477   0.45833   0.00000  Uiso   1.00
C522   C     0.40134   0.81557   0.03422   0.00000  Uiso   1.00
C523   C     0.57784   0.77178   0.48029   0.00000  Uiso   1.00
C524   C     0.51883   0.97677   0.27768   0.00000  Uiso   1.00
C525   C     0.48211   0.68977   0.22039   0.00000  Uiso   1.00
C526   C     0.51825   0.68634   0.28063   0.00000  Uiso   1.00
H527   H     0.36330   0.82066   0.05436   0.00000  Uiso   1.00
H528   H     0.46917   0.70850   0.19762   0.00000  Uiso   1.00
H529   H     0.63382   0.77085   0.22685   0.00000  Uiso   1.00
H530   H     0.36600   0.89566   0.27366   0.00000  Uiso   1.00
H531   H     0.38438   0.77091   0.22667   0.00000  Uiso   1.00
H532   H     0.61548   0.89563   0.27371   0.00000  Uiso   1.00
H533   H     0.43383   0.78181   0.12497   0.00000  Uiso   1.00
H534   H     0.52379   0.74061   0.40540   0.00000  Uiso   1.00
H535   H     0.52630   0.73838   0.32541   0.00000  Uiso   1.00
H536   H     0.47613   0.92730   0.17257   0.00000  Uiso   1.00
H537   H     0.61241   0.75644   0.46297   0.00000  Uiso   1.00
H538   H     0.48194   0.84553   0.10565   0.00000  Uiso   1.00
H539   H     0.52142   0.81507   0.39046   0.00000  Uiso   1.00
H540   H     0.61766   0.79957   0.10718   0.00000  Uiso   1.00
H541   H     0.37660   0.84352   0.39901   0.00000  Uiso   1.00
H542   H     0.34772   0.83671   0.48399   0.00000  Uiso   1.00
H543   H     0.63742   0.77217   0.02815   0.00000  Uiso   1.00
H544   H     0.53176   0.95809   0.30052   0.00000  Uiso   1.00
N545   N     0.38093   0.83334   0.25001   0.00000  Uiso   1.00
N546   N     0.61907   0.83332   0.24999   0.00000  Uiso   1.00
O547   O     0.46179   0.89442   0.25001   0.00000  Uiso   1.00
O548   O     0.59514   0.74175   0.39002   0.00000  Uiso   1.00
O549   O     0.55934   0.68648   0.33342   0.00000  Uiso   1.00
O550   O     0.44676   0.97968   0.16030   0.00000  Uiso   1.00
O551   O     0.53821   0.77225   0.25000   0.00000  Uiso   1.00
O552   O     0.53823   0.89441   0.25000   0.00000  Uiso   1.00
O553   O     0.46177   0.77226   0.25000   0.00000  Uiso   1.00
O554   O     0.43994   0.83334   0.31613   0.00000  Uiso   1.00
O555   O     0.56006   0.83333   0.18388   0.00000  Uiso   1.00
O556   O     0.51639   0.83333   0.31612   0.00000  Uiso   1.00
O557   O     0.48361   0.83334   0.18388   0.00000  Uiso   1.00
O558   O     0.37231   0.81082   0.13162   0.00000  Uiso   1.00
Zn559  Zn    0.44896   0.83334   0.25000   0.00000  Uiso   1.00
Zn560  Zn    0.55104   0.83333   0.25000   0.00000  Uiso   1.00
C561   C     0.83400   0.91322   0.24801   0.00000  Uiso   1.00
C562   C     0.81655   0.98009   0.21708   0.00000  Uiso   1.00
C563   C     0.83292   0.70917   0.25154   0.00000  Uiso   1.00
C564   C     0.83445   0.95737   0.24684   0.00000  Uiso   1.00
C565   C     0.98103   0.79860   0.23732   0.00000  Uiso   1.00
C566   C     0.68548   0.86794   0.26309   0.00000  Uiso   1.00
C567   C     0.69560   0.79864   0.23725   0.00000  Uiso   1.00
C568   C     0.97094   0.86793   0.26310   0.00000  Uiso   1.00
C569   C     0.80319   0.83294   0.33814   0.00000  Uiso   1.00
C570   C     0.86343   0.83268   0.16190   0.00000  Uiso   1.00
C571   C     0.78447   0.82842   0.38897   0.00000  Uiso   1.00
C572   C     0.83296   0.75338   0.25122   0.00000  Uiso   1.00
C573   C     0.88080   0.82348   0.11214   0.00000  Uiso   1.00
C574   C     0.71872   0.82993   0.46381   0.00000  Uiso   1.00
C575   C     0.93594   0.78705   0.04541   0.00000  Uiso   1.00
C576   C     0.73525   0.83434   0.41546   0.00000  Uiso   1.00
C577   C     0.92533   0.80357   0.08979   0.00000  Uiso   1.00
C578   C     0.81643   0.81647   0.41098   0.00000  Uiso   1.00
C579   C     0.84759   0.82695   0.08974   0.00000  Uiso   1.00
C580   C     0.79976   0.80816   0.45901   0.00000  Uiso   1.00
C581   C     0.85461   0.80538   0.04868   0.00000  Uiso   1.00
C582   C     0.75086   0.81781   0.48580   0.00000  Uiso   1.00
C583   C     0.76716   0.80774   0.05693   0.00000  Uiso   1.00
C584   C     0.90093   0.78828   0.02446   0.00000  Uiso   1.00
C585   C     0.83171   0.79490   0.48157   0.00000  Uiso   1.00
C586   C     0.81757   0.80279   0.02986   0.00000  Uiso   1.00
C587   C     0.74645   0.79914   0.10800   0.00000  Uiso   1.00
C588   C     0.88707   0.75078   0.41500   0.00000  Uiso   1.00
C589   C     0.86855   0.70619   0.31534   0.00000  Uiso   1.00
C590   C     0.80140   0.95989   0.18121   0.00000  Uiso   1.00
C591   C     0.87722   0.77477   0.45833   0.00000  Uiso   1.00
C592   C     0.73468   0.81557   0.03422   0.00000  Uiso   1.00
C593   C     0.91118   0.77178   0.48029   0.00000  Uiso   1.00
C594   C     0.85217   0.97677   0.27768   0.00000  Uiso   1.00
C595   C     0.81545   0.68977   0.22039   0.00000  Uiso   1.00
C596   C     0.85158   0.68634   0.28063   0.00000  Uiso   1.00
H597   H     0.69663   0.82066   0.05436   0.00000  Uiso   1.00
H598   H     0.80250   0.70850   0.19762   0.00000  Uiso   1.00
H599   H     0.96715   0.77085   0.22685   0.00000  Uiso   1.00
H600   H     0.69933   0.89566   0.27366   0.00000  Uiso   1.00
H601   H     0.71771   0.77091   0.22667   0.00000  Uiso   1.00
H602   H     0.94881   0.89563   0.27371   0.00000  Uiso   1.00
H603   H     0.76716   0.78181   0.12497   0.00000  Uiso   1.00
H604   H     0.85713   0.74061   0.40540   0.00000  Uiso   1.00
H605   H     0.85963   0.73838   0.32541   0.00000  Uiso   1.00
H606   H     0.80947   0.92730   0.17257   0.00000  Uiso   1.00
H607   H     0.94574   0.75644   0.46297   0.00000  Uiso   1.00
H608   H     0.81527   0.84553   0.10565   0.00000  Uiso   1.00
H609   H     0.85475   0.81507   0.39046   0.00000  Uiso   1.00
H610   H     0.95099   0.79957   0.10718   0.00000  Uiso   1.00
H611   H     0.70993   0.84352   0.39901   0.00000  Uiso   1.00
H612   H     0.68105   0.83671   0.48399   0.00000  Uiso   1.00
H613   H     0.97075   0.77217   0.02815   0.00000  Uiso   1.00
H614   H     0.86509   0.95809   0.30052   0.00000  Uiso   1.00
N615   N     0.71426   0.83334   0.25001   0.00000  Uiso   1.00
N616   N     0.95241   0.83332   0.24999   0.00000  Uiso   1.00
O617   O     0.79512   0.89442   0.25001   0.00000  Uiso   1.00
O618   O     0.92847   0.74175   0.39002   0.00000  Uiso   1.00
O619   O     0.89267   0.68648   0.33342   0.00000  Uiso   1.00
O620   O     0.78010   0.97968   0.16030   0.00000  Uiso   1.00
O621   O     0.87154   0.77225   0.25000   0.00000  Uiso   1.00
O622   O     0.87157   0.89441   0.25000   0.00000  Uiso   1.00
O623   O     0.79510   0.77226   0.25000   0.00000  Uiso   1.00
O624   O     0.77328   0.83334   0.31613   0.00000  Uiso   1.00
O625   O     0.89339   0.83333   0.18388   0.00000  Uiso   1.00
O626   O     0.84972   0.83333   0.31612   0.00000  Uiso   1.00
O627   O     0.81695   0.83334   0.18388   0.00000  Uiso   1.00
O628   O     0.70564   0.81082   0.13162   0.00000  Uiso   1.00
Zn629  Zn    0.78229   0.83334   0.25000   0.00000  Uiso   1.00
Zn630  Zn    0.88438   0.83333   0.25000   0.00000  Uiso   1.00
C631   C     0.16733   0.24655   0.74801   0.00000  Uiso   1.00
C632   C     0.14988   0.31343   0.71708   0.00000  Uiso   1.00
C633   C     0.16626   0.04250   0.75154   0.00000  Uiso   1.00
C634   C     0.16778   0.29071   0.74684   0.00000  Uiso   1.00
C635   C     0.31436   0.13194   0.73732   0.00000  Uiso   1.00
C636   C     0.01881   0.20127   0.76309   0.00000  Uiso   1.00
C637   C     0.02893   0.13197   0.73725   0.00000  Uiso   1.00
C638   C     0.30427   0.20126   0.76310   0.00000  Uiso   1.00
C639   C     0.13653   0.16627   0.83814   0.00000  Uiso   1.00
C640   C     0.19677   0.16601   0.66190   0.00000  Uiso   1.00
C641   C     0.11780   0.16175   0.88897   0.00000  Uiso   1.00
C642   C     0.16629   0.08671   0.75122   0.00000  Uiso   1.00
C643   C     0.21413   0.15681   0.61214   0.00000  Uiso   1.00
C644   C     0.05205   0.16326   0.96381   0.00000  Uiso   1.00
C645   C     0.26927   0.12038   0.54541   0.00000  Uiso   1.00
C646   C     0.06859   0.16767   0.91546   0.00000  Uiso   1.00
C647   C     0.25867   0.13691   0.58979   0.00000  Uiso   1.00
C648   C     0.14976   0.14981   0.91098   0.00000  Uiso   1.00
C649   C     0.18093   0.16028   0.58974   0.00000  Uiso   1.00
C650   C     0.13310   0.14149   0.95901   0.00000  Uiso   1.00
C651   C     0.18794   0.13872   0.54868   0.00000  Uiso   1.00
C652   C     0.08419   0.15114   0.98580   0.00000  Uiso   1.00
C653   C     0.10050   0.14108   0.55693   0.00000  Uiso   1.00
C654   C     0.23427   0.12161   0.52446   0.00000  Uiso   1.00
C655   C     0.16504   0.12824   0.98157   0.00000  Uiso   1.00
C656   C     0.15090   0.13612   0.52986   0.00000  Uiso   1.00
C657   C     0.07978   0.13248   0.60800   0.00000  Uiso   1.00
C658   C     0.22041   0.08411   0.91500   0.00000  Uiso   1.00
C659   C     0.20188   0.03952   0.81534   0.00000  Uiso   1.00
C660   C     0.13473   0.29322   0.68121   0.00000  Uiso   1.00
C661   C     0.21056   0.10810   0.95833   0.00000  Uiso   1.00
C662   C     0.06801   0.14891   0.53422   0.00000  Uiso   1.00
C663   C     0.24451   0.10511   0.98029   0.00000  Uiso   1.00
C664   C     0.18550   0.31010   0.77768   0.00000  Uiso   1.00
C665   C     0.14878   0.02311   0.72039   0.00000  Uiso   1.00
C666   C     0.18491   0.01968   0.78063   0.00000  Uiso   1.00
H667   H     0.02997   0.15399   0.55436   0.00000  Uiso   1.00
H668   H     0.13584   0.04183   0.69762   0.00000  Uiso   1.00
H669   H     0.30048   0.10418   0.72685   0.00000  Uiso   1.00
H670   H     0.03266   0.22899   0.77366   0.00000  Uiso   1.00
H671   H     0.05104   0.10424   0.72667   0.00000  Uiso   1.00
H672   H     0.28215   0.22897   0.77371   0.00000  Uiso   1.00
H673   H     0.10050   0.11514   0.62497   0.00000  Uiso   1.00
H674   H     0.19046   0.07394   0.90540   0.00000  Uiso   1.00
H675   H     0.19296   0.07171   0.82541   0.00000  Uiso   1.00
H676   H     0.14280   0.26063   0.67257   0.00000  Uiso   1.00
H677   H     0.27907   0.08977   0.96297   0.00000  Uiso   1.00
H678   H     0.14860   0.17886   0.60565   0.00000  Uiso   1.00
H679   H     0.18809   0.14841   0.89046   0.00000  Uiso   1.00
H680   H     0.28433   0.13291   0.60718   0.00000  Uiso   1.00
H681   H     0.04327   0.17685   0.89901   0.00000  Uiso   1.00
H682   H     0.01439   0.17005   0.98399   0.00000  Uiso   1.00
H683   H     0.30409   0.10551   0.52815   0.00000  Uiso   1.00
H684   H     0.19842   0.29143   0.80052   0.00000  Uiso   1.00
N685   N     0.04759   0.16668   0.75001   0.00000  Uiso   1.00
N686   N     0.28574   0.16666   0.74999   0.00000  Uiso   1.00
O687   O     0.12846   0.22775   0.75001   0.00000  Uiso   1.00
O688   O     0.26180   0.07508   0.89002   0.00000  Uiso   1.00
O689   O     0.22601   0.01981   0.83342   0.00000  Uiso   1.00
O690   O     0.11343   0.31301   0.66030   0.00000  Uiso   1.00
O691   O     0.20488   0.10558   0.75000   0.00000  Uiso   1.00
O692   O     0.20490   0.22774   0.75000   0.00000  Uiso   1.00
O693   O     0.12843   0.10559   0.75000   0.00000  Uiso   1.00
O694   O     0.10661   0.16667   0.81613   0.00000  Uiso   1.00
O695   O     0.22672   0.16666   0.68388   0.00000  Uiso   1.00
O696   O     0.18305   0.16666   0.81612   0.00000  Uiso   1.00
O697   O     0.15028   0.16667   0.68388   0.00000  Uiso   1.00
O698   O     0.03897   0.14416   0.63162   0.00000  Uiso   1.00
Zn699  Zn    0.11562   0.16667   0.75000   0.00000  Uiso   1.00
Zn700  Zn    0.21771   0.16666   0.75000   0.00000  Uiso   1.00
C701   C     0.50066   0.24655   0.74801   0.00000  Uiso   1.00
C702   C     0.48321   0.31343   0.71708   0.00000  Uiso   1.00
C703   C     0.49959   0.04250   0.75154   0.00000  Uiso   1.00
C704   C     0.50111   0.29071   0.74684   0.00000  Uiso   1.00
C705   C     0.64770   0.13194   0.73732   0.00000  Uiso   1.00
C706   C     0.35215   0.20127   0.76309   0.00000  Uiso   1.00
C707   C     0.36227   0.13197   0.73725   0.00000  Uiso   1.00
C708   C     0.63761   0.20126   0.76310   0.00000  Uiso   1.00
C709   C     0.46986   0.16627   0.83814   0.00000  Uiso   1.00
C710   C     0.53010   0.16601   0.66190   0.00000  Uiso   1.00
C711   C     0.45114   0.16175   0.88897   0.00000  Uiso   1.00
C712   C     0.49962   0.08671   0.75122   0.00000  Uiso   1.00
C713   C     0.54747   0.15681   0.61214   0.00000  Uiso   1.00
C714   C     0.38539   0.16326   0.96381   0.00000  Uiso   1.00
C715   C     0.60261   0.12038   0.54541   0.00000  Uiso   1.00
C716   C     0.40192   0.16767   0.91546   0.00000  Uiso   1.00
C717   C     0.59200   0.13691   0.58979   0.00000  Uiso   1.00
C718   C     0.48309   0.14981   0.91098   0.00000  Uiso   1.00
C719   C     0.51426   0.16028   0.58974   0.00000  Uiso   1.00
C720   C     0.46643   0.14149   0.95901   0.00000  Uiso   1.00
C721   C     0.52127   0.13872   0.54868   0.00000  Uiso   1.00
C722   C     0.41753   0.15114   0.98580   0.00000  Uiso   1.00
C723   C     0.43383   0.14108   0.55693   0.00000  Uiso   1.00
C724   C     0.56760   0.12161   0.52446   0.00000  Uiso   1.00
C725   C     0.49838   0.12824   0.98157   0.00000  Uiso   1.00
C726   C     0.48424   0.13612   0.52986   0.00000  Uiso   1.00
C727   C     0.41312   0.13248   0.60800   0.00000  Uiso   1.00
C728   C     0.55374   0.08411   0.91500   0.00000  Uiso   1.00
C729   C     0.53521   0.03952   0.81534   0.00000  Uiso   1.00
C730   C     0.46807   0.29322   0.68121   0.00000  Uiso   1.00
C731   C     0.54389   0.10810   0.95833   0.00000  Uiso   1.00
C732   C     0.40134   0.14891   0.53422   0.00000  Uiso   1.00
C733   C     0.57784   0.10511   0.98029   0.00000  Uiso   1.00
C734   C     0.51883   0.31010   0.77768   0.00000  Uiso   1.00
C735   C     0.48211   0.02311   0.72039   0.00000  Uiso   1.00
C736   C     0.51825   0.01968   0.78063   0.00000  Uiso   1.00
H737   H     0.36330   0.15399   0.55436   0.00000  Uiso   1.00
H738   H     0.46917   0.04183   0.69762   0.00000  Uiso   1.00
H739   H     0.63382   0.10418   0.72685   0.00000  Uiso   1.00
H740   H     0.36600   0.22899   0.77366   0.00000  Uiso   1.00
H741   H     0.38438   0.10424   0.72667   0.00000  Uiso   1.00
H742   H     0.61548   0.22897   0.77371   0.00000  Uiso   1.00
H743   H     0.43383   0.11514   0.62497   0.00000  Uiso   1.00
H744   H     0.52379   0.07394   0.90540   0.00000  Uiso   1.00
H745   H     0.52630   0.07171   0.82541   0.00000  Uiso   1.00
H746   H     0.47613   0.26063   0.67257   0.00000  Uiso   1.00
H747   H     0.61241   0.08977   0.96297   0.00000  Uiso   1.00
H748   H     0.48194   0.17886   0.60565   0.00000  Uiso   1.00
H749   H     0.52142   0.14841   0.89046   0.00000  Uiso   1.00
H750   H     0.61766   0.13291   0.60718   0.00000  Uiso   1.00
H751   H     0.37660   0.17685   0.89901   0.00000  Uiso   1.00
H752   H     0.34772   0.17005   0.98399   0.00000  Uiso   1.00
H753   H     0.63742   0.10551   0.52815   0.00000  Uiso   1.00
H754   H     0.53176   0.29143   0.80052   0.00000  Uiso   1.00
N755   N     0.38093   0.16668   0.75001   0.00000  Uiso   1.00
N756   N     0.61907   0.16666   0.74999   0.00000  Uiso   1.00
O757   O     0.46179   0.22775   0.75001   0.00000  Uiso   1.00
O758   O     0.59514   0.07508   0.89002   0.00000  Uiso   1.00
O759   O     0.55934   0.01981   0.83342   0.00000  Uiso   1.00
O760   O     0.44676   0.31301   0.66030   0.00000  Uiso   1.00
O761   O     0.53821   0.10558   0.75000   0.00000  Uiso   1.00
O762   O     0.53823   0.22774   0.75000   0.00000  Uiso   1.00
O763   O     0.46177   0.10559   0.75000   0.00000  Uiso   1.00
O764   O     0.43994   0.16667   0.81613   0.00000  Uiso   1.00
O765   O     0.56006   0.16666   0.68388   0.00000  Uiso   1.00
O766   O     0.51639   0.16666   0.81612   0.00000  Uiso   1.00
O767   O     0.48361   0.16667   0.68388   0.00000  Uiso   1.00
O768   O     0.37231   0.14416   0.63162   0.00000  Uiso   1.00
Zn769  Zn    0.44896   0.16667   0.75000   0.00000  Uiso   1.00
Zn770  Zn    0.55104   0.16666   0.75000   0.00000  Uiso   1.00
C771   C     0.83400   0.24655   0.74801   0.00000  Uiso   1.00
C772   C     0.81655   0.31343   0.71708   0.00000  Uiso   1.00
C773   C     0.83292   0.04250   0.75154   0.00000  Uiso   1.00
C774   C     0.83445   0.29071   0.74684   0.00000  Uiso   1.00
C775   C     0.98103   0.13194   0.73732   0.00000  Uiso   1.00
C776   C     0.68548   0.20127   0.76309   0.00000  Uiso   1.00
C777   C     0.69560   0.13197   0.73725   0.00000  Uiso   1.00
C778   C     0.97094   0.20126   0.76310   0.00000  Uiso   1.00
C779   C     0.80319   0.16627   0.83814   0.00000  Uiso   1.00
C780   C     0.86343   0.16601   0.66190   0.00000  Uiso   1.00
C781   C     0.78447   0.16175   0.88897   0.00000  Uiso   1.00
C782   C     0.83296   0.08671   0.75122   0.00000  Uiso   1.00
C783   C     0.88080   0.15681   0.61214   0.00000  Uiso   1.00
C784   C     0.71872   0.16326   0.96381   0.00000  Uiso   1.00
C785   C     0.93594   0.12038   0.54541   0.00000  Uiso   1.00
C786   C     0.73525   0.16767   0.91546   0.00000  Uiso   1.00
C787   C     0.92533   0.13691   0.58979   0.00000  Uiso   1.00
C788   C     0.81643   0.14981   0.91098   0.00000  Uiso   1.00
C789   C     0.84759   0.16028   0.58974   0.00000  Uiso   1.00
C790   C     0.79976   0.14149   0.95901   0.00000  Uiso   1.00
C791   C     0.85461   0.13872   0.54868   0.00000  Uiso   1.00
C792   C     0.75086   0.15114   0.98580   0.00000  Uiso   1.00
C793   C     0.76716   0.14108   0.55693   0.00000  Uiso   1.00
C794   C     0.90093   0.12161   0.52446   0.00000  Uiso   1.00
C795   C     0.83171   0.12824   0.98157   0.00000  Uiso   1.00
C796   C     0.81757   0.13612   0.52986   0.00000  Uiso   1.00
C797   C     0.74645   0.13248   0.60800   0.00000  Uiso   1.00
C798   C     0.88707   0.08411   0.91500   0.00000  Uiso   1.00
C799   C     0.86855   0.03952   0.81534   0.00000  Uiso   1.00
C800   C     0.80140   0.29322   0.68121   0.00000  Uiso   1.00
C801   C     0.87722   0.10810   0.95833   0.00000  Uiso   1.00
C802   C     0.73468   0.14891   0.53422   0.00000  Uiso   1.00
C803   C     0.91118   0.10511   0.98029   0.00000  Uiso   1.00
C804   C     0.85217   0.31010   0.77768   0.00000  Uiso   1.00
C805   C     0.81545   0.02311   0.72039   0.00000  Uiso   1.00
C806   C     0.85158   0.01968   0.78063   0.00000  Uiso   1.00
H807   H     0.69663   0.15399   0.55436   0.00000  Uiso   1.00
H808   H     0.80250   0.04183   0.69762   0.00000  Uiso   1.00
H809   H     0.96715   0.10418   0.72685   0.00000  Uiso   1.00
H810   H     0.69933   0.22899   0.77366   0.00000  Uiso   1.00
H811   H     0.71771   0.10424   0.72667   0.00000  Uiso   1.00
H812   H     0.94881   0.22897   0.77371   0.00000  Uiso   1.00
H813   H     0.76716   0.11514   0.62497   0.00000  Uiso   1.00
H814   H     0.85713   0.07394   0.90540   0.00000  Uiso   1.00
H815   H     0.85963   0.07171   0.82541   0.00000  Uiso   1.00
H816   H     0.80947   0.26063   0.67257   0.00000  Uiso   1.00
H817   H     0.94574   0.08977   0.96297   0.00000  Uiso   1.00
H818   H     0.81527   0.17886   0.60565   0.00000  Uiso   1.00
H819   H     0.85475   0.14841   0.89046   0.00000  Uiso   1.00
H820   H     0.95099   0.13291   0.60718   0.00000  Uiso   1.00
H821   H     0.70993   0.17685   0.89901   0.00000  Uiso   1.00
H822   H     0.68105   0.17005   0.98399   0.00000  Uiso   1.00
H823   H     0.97075   0.10551   0.52815   0.00000  Uiso   1.00
H824   H     0.86509   0.29143   0.80052   0.00000  Uiso   1.00
N825   N     0.71426   0.16668   0.75001   0.00000  Uiso   1.00
N826   N     0.95241   0.16666   0.74999   0.00000  Uiso   1.00
O827   O     0.79512   0.22775   0.75001   0.00000  Uiso   1.00
O828   O     0.92847   0.07508   0.89002   0.00000  Uiso   1.00
O829   O     0.89267   0.01981   0.83342   0.00000  Uiso   1.00
O830   O     0.78010   0.31301   0.66030   0.00000  Uiso   1.00
O831   O     0.87154   0.10558   0.75000   0.00000  Uiso   1.00
O832   O     0.87157   0.22774   0.75000   0.00000  Uiso   1.00
O833   O     0.79510   0.10559   0.75000   0.00000  Uiso   1.00
O834   O     0.77328   0.16667   0.81613   0.00000  Uiso   1.00
O835   O     0.89339   0.16666   0.68388   0.00000  Uiso   1.00
O836   O     0.84972   0.16666   0.81612   0.00000  Uiso   1.00
O837   O     0.81695   0.16667   0.68388   0.00000  Uiso   1.00
O838   O     0.70564   0.14416   0.63162   0.00000  Uiso   1.00
Zn839  Zn    0.78229   0.16667   0.75000   0.00000  Uiso   1.00
Zn840  Zn    0.88438   0.16666   0.75000   0.00000  Uiso   1.00
C841   C     0.16733   0.57988   0.74801   0.00000  Uiso   1.00
C842   C     0.14988   0.64676   0.71708   0.00000  Uiso   1.00
C843   C     0.16626   0.37583   0.75154   0.00000  Uiso   1.00
C844   C     0.16778   0.62404   0.74684   0.00000  Uiso   1.00
C845   C     0.31436   0.46527   0.73732   0.00000  Uiso   1.00
C846   C     0.01881   0.53461   0.76309   0.00000  Uiso   1.00
C847   C     0.02893   0.46530   0.73725   0.00000  Uiso   1.00
C848   C     0.30427   0.53459   0.76310   0.00000  Uiso   1.00
C849   C     0.13653   0.49960   0.83814   0.00000  Uiso   1.00
C850   C     0.19677   0.49935   0.66190   0.00000  Uiso   1.00
C851   C     0.11780   0.49509   0.88897   0.00000  Uiso   1.00
C852   C     0.16629   0.42005   0.75122   0.00000  Uiso   1.00
C853   C     0.21413   0.49015   0.61214   0.00000  Uiso   1.00
C854   C     0.05205   0.49659   0.96381   0.00000  Uiso   1.00
C855   C     0.26927   0.45372   0.54541   0.00000  Uiso   1.00
C856   C     0.06859   0.50101   0.91546   0.00000  Uiso   1.00
C857   C     0.25867   0.47024   0.58979   0.00000  Uiso   1.00
C858   C     0.14976   0.48314   0.91098   0.00000  Uiso   1.00
C859   C     0.18093   0.49362   0.58974   0.00000  Uiso   1.00
C860   C     0.13310   0.47482   0.95901   0.00000  Uiso   1.00
C861   C     0.18794   0.47205   0.54868   0.00000  Uiso   1.00
C862   C     0.08419   0.48447   0.98580   0.00000  Uiso   1.00
C863   C     0.10050   0.47441   0.55693   0.00000  Uiso   1.00
C864   C     0.23427   0.45494   0.52446   0.00000  Uiso   1.00
C865   C     0.16504   0.46157   0.98157   0.00000  Uiso   1.00
C866   C     0.15090   0.46945   0.52986   0.00000  Uiso   1.00
C867   C     0.07978   0.46581   0.60800   0.00000  Uiso   1.00
C868   C     0.22041   0.41744   0.91500   0.00000  Uiso   1.00
C869   C     0.20188   0.37285   0.81534   0.00000  Uiso   1.00
C870   C     0.13473   0.62655   0.68121   0.00000  Uiso   1.00
C871   C     0.21056   0.44143   0.95833   0.00000  Uiso   1.00
C872   C     0.06801   0.48224   0.53422   0.00000  Uiso   1.00
C873   C     0.24451   0.43844   0.98029   0.00000  Uiso   1.00
C874   C     0.18550   0.64344   0.77768   0.00000  Uiso   1.00
C875   C     0.14878   0.35644   0.72039   0.00000  Uiso   1.00
C876   C     0.18491   0.35301   0.78063   0.00000  Uiso   1.00
H877   H     0.02997   0.48733   0.55436   0.00000  Uiso   1.00
H878   H     0.13584   0.37517   0.69762   0.00000  Uiso   1.00
H879   H     0.30048   0.43751   0.72685   0.00000  Uiso   1.00
H880   H     0.03266   0.56232   0.77366   0.00000  Uiso   1.00
H881   H     0.05104   0.43758   0.72667   0.00000  Uiso   1.00
H882   H     0.28215   0.56230   0.77371   0.00000  Uiso   1.00
H883   H     0.10050   0.44848   0.62497   0.00000  Uiso   1.00
H884   H     0.19046   0.40727   0.90540   0.00000  Uiso   1.00
H885   H     0.19296   0.40505   0.82541   0.00000  Uiso   1.00
H886   H     0.14280   0.59396   0.67257   0.00000  Uiso   1.00
H887   H     0.27907   0.42311   0.96297   0.00000  Uiso   1.00
H888   H     0.14860   0.51220   0.60565   0.00000  Uiso   1.00
H889   H     0.18809   0.48174   0.89046   0.00000  Uiso   1.00
H890   H     0.28433   0.46624   0.60718   0.00000  Uiso   1.00
H891   H     0.04327   0.51019   0.89901   0.00000  Uiso   1.00
H892   H     0.01439   0.50338   0.98399   0.00000  Uiso   1.00
H893   H     0.30409   0.43884   0.52815   0.00000  Uiso   1.00
H894   H     0.19842   0.62476   0.80052   0.00000  Uiso   1.00
N895   N     0.04759   0.50001   0.75001   0.00000  Uiso   1.00
N896   N     0.28574   0.49999   0.74999   0.00000  Uiso   1.00
O897   O     0.12846   0.56108   0.75001   0.00000  Uiso   1.00
O898   O     0.26180   0.40842   0.89002   0.00000  Uiso   1.00
O899   O     0.22601   0.35314   0.83342   0.00000  Uiso   1.00
O900   O     0.11343   0.64634   0.66030   0.00000  Uiso   1.00
O901   O     0.20488   0.43892   0.75000   0.00000  Uiso   1.00
O902   O     0.20490   0.56107   0.75000   0.00000  Uiso   1.00
O903   O     0.12843   0.43893   0.75000   0.00000  Uiso   1.00
O904   O     0.10661   0.50001   0.81613   0.00000  Uiso   1.00
O905   O     0.22672   0.49999   0.68388   0.00000  Uiso   1.00
O906   O     0.18305   0.50000   0.81612   0.00000  Uiso   1.00
O907   O     0.15028   0.50000   0.68388   0.00000  Uiso   1.00
O908   O     0.03897   0.47749   0.63162   0.00000  Uiso   1.00
Zn909  Zn    0.11562   0.50001   0.75000   0.00000  Uiso   1.00
Zn910  Zn    0.21771   0.49999   0.75000   0.00000  Uiso   1.00
C911   C     0.50066   0.57988   0.74801   0.00000  Uiso   1.00
C912   C     0.48321   0.64676   0.71708   0.00000  Uiso   1.00
C913   C     0.49959   0.37583   0.75154   0.00000  Uiso   1.00
C914   C     0.50111   0.62404   0.74684   0.00000  Uiso   1.00
C915   C     0.64770   0.46527   0.73732   0.00000  Uiso   1.00
C916   C     0.35215   0.53461   0.76309   0.00000  Uiso   1.00
C917   C     0.36227   0.46530   0.73725   0.00000  Uiso   1.00
C918   C     0.63761   0.53459   0.76310   0.00000  Uiso   1.00
C919   C     0.46986   0.49960   0.83814   0.00000  Uiso   1.00
C920   C     0.53010   0.49935   0.66190   0.00000  Uiso   1.00
C921   C     0.45114   0.49509   0.88897   0.00000  Uiso   1.00
C922   C     0.49962   0.42005   0.75122   0.00000  Uiso   1.00
C923   C     0.54747   0.49015   0.61214   0.00000  Uiso   1.00
C924   C     0.38539   0.49659   0.96381   0.00000  Uiso   1.00
C925   C     0.60261   0.45372   0.54541   0.00000  Uiso   1.00
C926   C     0.40192   0.50101   0.91546   0.00000  Uiso   1.00
C927   C     0.59200   0.47024   0.58979   0.00000  Uiso   1.00
C928   C     0.48309   0.48314   0.91098   0.00000  Uiso   1.00
C929   C     0.51426   0.49362   0.58974   0.00000  Uiso   1.00
C930   C     0.46643   0.47482   0.95901   0.00000  Uiso   1.00
C931   C     0.52127   0.47205   0.54868   0.00000  Uiso   1.00
C932   C     0.41753   0.48447   0.98580   0.00000  Uiso   1.00
C933   C     0.43383   0.47441   0.55693   0.00000  Uiso   1.00
C934   C     0.56760   0.45494   0.52446   0.00000  Uiso   1.00
C935   C     0.49838   0.46157   0.98157   0.00000  Uiso   1.00
C936   C     0.48424   0.46945   0.52986   0.00000  Uiso   1.00
C937   C     0.41312   0.46581   0.60800   0.00000  Uiso   1.00
C938   C     0.55374   0.41744   0.91500   0.00000  Uiso   1.00
C939   C     0.53521   0.37285   0.81534   0.00000  Uiso   1.00
C940   C     0.46807   0.62655   0.68121   0.00000  Uiso   1.00
C941   C     0.54389   0.44143   0.95833   0.00000  Uiso   1.00
C942   C     0.40134   0.48224   0.53422   0.00000  Uiso   1.00
C943   C     0.57784   0.43844   0.98029   0.00000  Uiso   1.00
C944   C     0.51883   0.64344   0.77768   0.00000  Uiso   1.00
C945   C     0.48211   0.35644   0.72039   0.00000  Uiso   1.00
C946   C     0.51825   0.35301   0.78063   0.00000  Uiso   1.00
H947   H     0.36330   0.48733   0.55436   0.00000  Uiso   1.00
H948   H     0.46917   0.37517   0.69762   0.00000  Uiso   1.00
H949   H     0.63382   0.43751   0.72685   0.00000  Uiso   1.00
H950   H     0.36600   0.56232   0.77366   0.00000  Uiso   1.00
H951   H     0.38438   0.43758   0.72667   0.00000  Uiso   1.00
H952   H     0.61548   0.56230   0.77371   0.00000  Uiso   1.00
H953   H     0.43383   0.44848   0.62497   0.00000  Uiso   1.00
H954   H     0.52379   0.40727   0.90540   0.00000  Uiso   1.00
H955   H     0.52630   0.40505   0.82541   0.00000  Uiso   1.00
H956   H     0.47613   0.59396   0.67257   0.00000  Uiso   1.00
H957   H     0.61241   0.42311   0.96297   0.00000  Uiso   1.00
H958   H     0.48194   0.51220   0.60565   0.00000  Uiso   1.00
H959   H     0.52142   0.48174   0.89046   0.00000  Uiso   1.00
H960   H     0.61766   0.46624   0.60718   0.00000  Uiso   1.00
H961   H     0.37660   0.51019   0.89901   0.00000  Uiso   1.00
H962   H     0.34772   0.50338   0.98399   0.00000  Uiso   1.00
H963   H     0.63742   0.43884   0.52815   0.00000  Uiso   1.00
H964   H     0.53176   0.62476   0.80052   0.00000  Uiso   1.00
N965   N     0.38093   0.50001   0.75001   0.00000  Uiso   1.00
N966   N     0.61907   0.49999   0.74999   0.00000  Uiso   1.00
O967   O     0.46179   0.56108   0.75001   0.00000  Uiso   1.00
O968   O     0.59514   0.40842   0.89002   0.00000  Uiso   1.00
O969   O     0.55934   0.35314   0.83342   0.00000  Uiso   1.00
O970   O     0.44676   0.64634   0.66030   0.00000  Uiso   1.00
O971   O     0.53821   0.43892   0.75000   0.00000  Uiso   1.00
O972   O     0.53823   0.56107   0.75000   0.00000  Uiso   1.00
O973   O     0.46177   0.43893   0.75000   0.00000  Uiso   1.00
O974   O     0.43994   0.50001   0.81613   0.00000  Uiso   1.00
O975   O     0.56006   0.49999   0.68388   0.00000  Uiso   1.00
O976   O     0.51639   0.50000   0.81612   0.00000  Uiso   1.00
O977   O     0.48361   0.50000   0.68388   0.00000  Uiso   1.00
O978   O     0.37231   0.47749   0.63162   0.00000  Uiso   1.00
Zn979  Zn    0.44896   0.50001   0.75000   0.00000  Uiso   1.00
Zn980  Zn    0.55104   0.49999   0.75000   0.00000  Uiso   1.00
C981   C     0.83400   0.57988   0.74801   0.00000  Uiso   1.00
C982   C     0.81655   0.64676   0.71708   0.00000  Uiso   1.00
C983   C     0.83292   0.37583   0.75154   0.00000  Uiso   1.00
C984   C     0.83445   0.62404   0.74684   0.00000  Uiso   1.00
C985   C     0.98103   0.46527   0.73732   0.00000  Uiso   1.00
C986   C     0.68548   0.53461   0.76309   0.00000  Uiso   1.00
C987   C     0.69560   0.46530   0.73725   0.00000  Uiso   1.00
C988   C     0.97094   0.53459   0.76310   0.00000  Uiso   1.00
C989   C     0.80319   0.49960   0.83814   0.00000  Uiso   1.00
C990   C     0.86343   0.49935   0.66190   0.00000  Uiso   1.00
C991   C     0.78447   0.49509   0.88897   0.00000  Uiso   1.00
C992   C     0.83296   0.42005   0.75122   0.00000  Uiso   1.00
C993   C     0.88080   0.49015   0.61214   0.00000  Uiso   1.00
C994   C     0.71872   0.49659   0.96381   0.00000  Uiso   1.00
C995   C     0.93594   0.45372   0.54541   0.00000  Uiso   1.00
C996   C     0.73525   0.50101   0.91546   0.00000  Uiso   1.00
C997   C     0.92533   0.47024   0.58979   0.00000  Uiso   1.00
C998   C     0.81643   0.48314   0.91098   0.00000  Uiso   1.00
C999   C     0.84759   0.49362   0.58974   0.00000  Uiso   1.00
C1000  C     0.79976   0.47482   0.95901   0.00000  Uiso   1.00
C1001  C     0.85461   0.47205   0.54868   0.00000  Uiso   1.00
C1002  C     0.75086   0.48447   0.98580   0.00000  Uiso   1.00
C1003  C     0.76716   0.47441   0.55693   0.00000  Uiso   1.00
C1004  C     0.90093   0.45494   0.52446   0.00000  Uiso   1.00
C1005  C     0.83171   0.46157   0.98157   0.00000  Uiso   1.00
C1006  C     0.81757   0.46945   0.52986   0.00000  Uiso   1.00
C1007  C     0.74645   0.46581   0.60800   0.00000  Uiso   1.00
C1008  C     0.88707   0.41744   0.91500   0.00000  Uiso   1.00
C1009  C     0.86855   0.37285   0.81534   0.00000  Uiso   1.00
C1010  C     0.80140   0.62655   0.68121   0.00000  Uiso   1.00
C1011  C     0.87722   0.44143   0.95833   0.00000  Uiso   1.00
C1012  C     0.73468   0.48224   0.53422   0.00000  Uiso   1.00
C1013  C     0.91118   0.43844   0.98029   0.00000  Uiso   1.00
C1014  C     0.85217   0.64344   0.77768   0.00000  Uiso   1.00
C1015  C     0.81545   0.35644   0.72039   0.00000  Uiso   1.00
C1016  C     0.85158   0.35301   0.78063   0.00000  Uiso   1.00
H1017  H     0.69663   0.48733   0.55436   0.00000  Uiso   1.00
H1018  H     0.80250   0.37517   0.69762   0.00000  Uiso   1.00
H1019  H     0.96715   0.43751   0.72685   0.00000  Uiso   1.00
H1020  H     0.69933   0.56232   0.77366   0.00000  Uiso   1.00
H1021  H     0.71771   0.43758   0.72667   0.00000  Uiso   1.00
H1022  H     0.94881   0.56230   0.77371   0.00000  Uiso   1.00
H1023  H     0.76716   0.44848   0.62497   0.00000  Uiso   1.00
H1024  H     0.85713   0.40727   0.90540   0.00000  Uiso   1.00
H1025  H     0.85963   0.40505   0.82541   0.00000  Uiso   1.00
H1026  H     0.80947   0.59396   0.67257   0.00000  Uiso   1.00
H1027  H     0.94574   0.42311   0.96297   0.00000  Uiso   1.00
H1028  H     0.81527   0.51220   0.60565   0.00000  Uiso   1.00
H1029  H     0.85475   0.48174   0.89046   0.00000  Uiso   1.00
H1030  H     0.95099   0.46624   0.60718   0.00000  Uiso   1.00
H1031  H     0.70993   0.51019   0.89901   0.00000  Uiso   1.00
H1032  H     0.68105   0.50338   0.98399   0.00000  Uiso   1.00
H1033  H     0.97075   0.43884   0.52815   0.00000  Uiso   1.00
H1034  H     0.86509   0.62476   0.80052   0.00000  Uiso   1.00
N1035  N     0.71426   0.50001   0.75001   0.00000  Uiso   1.00
N1036  N     0.95241   0.49999   0.74999   0.00000  Uiso   1.00
O1037  O     0.79512   0.56108   0.75001   0.00000  Uiso   1.00
O1038  O     0.92847   0.40842   0.89002   0.00000  Uiso   1.00
O1039  O     0.89267   0.35314   0.83342   0.00000  Uiso   1.00
O1040  O     0.78010   0.64634   0.66030   0.00000  Uiso   1.00
O1041  O     0.87154   0.43892   0.75000   0.00000  Uiso   1.00
O1042  O     0.87157   0.56107   0.75000   0.00000  Uiso   1.00
O1043  O     0.79510   0.43893   0.75000   0.00000  Uiso   1.00
O1044  O     0.77328   0.50001   0.81613   0.00000  Uiso   1.00
O1045  O     0.89339   0.49999   0.68388   0.00000  Uiso   1.00
O1046  O     0.84972   0.50000   0.81612   0.00000  Uiso   1.00
O1047  O     0.81695   0.50000   0.68388   0.00000  Uiso   1.00
O1048  O     0.70564   0.47749   0.63162   0.00000  Uiso   1.00
Zn1049 Zn    0.78229   0.50001   0.75000   0.00000  Uiso   1.00
Zn1050 Zn    0.88438   0.49999   0.75000   0.00000  Uiso   1.00
C1051  C     0.16733   0.91322   0.74801   0.00000  Uiso   1.00
C1052  C     0.14988   0.98009   0.71708   0.00000  Uiso   1.00
C1053  C     0.16626   0.70917   0.75154   0.00000  Uiso   1.00
C1054  C     0.16778   0.95737   0.74684   0.00000  Uiso   1.00
C1055  C     0.31436   0.79860   0.73732   0.00000  Uiso   1.00
C1056  C     0.01881   0.86794   0.76309   0.00000  Uiso   1.00
C1057  C     0.02893   0.79864   0.73725   0.00000  Uiso   1.00
C1058  C     0.30427   0.86793   0.76310   0.00000  Uiso   1.00
C1059  C     0.13653   0.83294   0.83814   0.00000  Uiso   1.00
C1060  C     0.19677   0.83268   0.66190   0.00000  Uiso   1.00
C1061  C     0.11780   0.82842   0.88897   0.00000  Uiso   1.00
C1062  C     0.16629   0.75338   0.75122   0.00000  Uiso   1.00
C1063  C     0.21413   0.82348   0.61214   0.00000  Uiso   1.00
C1064  C     0.05205   0.82993   0.96381   0.00000  Uiso   1.00
C1065  C     0.26927   0.78705   0.54541   0.00000  Uiso   1.00
C1066  C     0.06859   0.83434   0.91546   0.00000  Uiso   1.00
C1067  C     0.25867   0.80357   0.58979   0.00000  Uiso   1.00
C1068  C     0.14976   0.81647   0.91098   0.00000  Uiso   1.00
C1069  C     0.18093   0.82695   0.58974   0.00000  Uiso   1.00
C1070  C     0.13310   0.80816   0.95901   0.00000  Uiso   1.00
C1071  C     0.18794   0.80538   0.54868   0.00000  Uiso   1.00
C1072  C     0.08419   0.81781   0.98580   0.00000  Uiso   1.00
C1073  C     0.10050   0.80774   0.55693   0.00000  Uiso   1.00
C1074  C     0.23427   0.78828   0.52446   0.00000  Uiso   1.00
C1075  C     0.16504   0.79490   0.98157   0.00000  Uiso   1.00
C1076  C     0.15090   0.80279   0.52986   0.00000  Uiso   1.00
C1077  C     0.07978   0.79914   0.60800   0.00000  Uiso   1.00
C1078  C     0.22041   0.75078   0.91500   0.00000  Uiso   1.00
C1079  C     0.20188   0.70619   0.81534   0.00000  Uiso   1.00
C1080  C     0.13473   0.95989   0.68121   0.00000  Uiso   1.00
C1081  C     0.21056   0.77477   0.95833   0.00000  Uiso   1.00
C1082  C     0.06801   0.81557   0.53422   0.00000  Uiso   1.00
C1083  C     0.24451   0.77178   0.98029   0.00000  Uiso   1.00
C1084  C     0.18550   0.97677   0.77768   0.00000  Uiso   1.00
C1085  C     0.14878   0.68977   0.72039   0.00000  Uiso   1.00
C1086  C     0.18491   0.68634   0.78063   0.00000  Uiso   1.00
H1087  H     0.02997   0.82066   0.55436   0.00000  Uiso   1.00
H1088  H     0.13584   0.70850   0.69762   0.00000  Uiso   1.00
H1089  H     0.30048   0.77085   0.72685   0.00000  Uiso   1.00
H1090  H     0.03266   0.89566   0.77366   0.00000  Uiso   1.00
H1091  H     0.05104   0.77091   0.72667   0.00000  Uiso   1.00
H1092  H     0.28215   0.89563   0.77371   0.00000  Uiso   1.00
H1093  H     0.10050   0.78181   0.62497   0.00000  Uiso   1.00
H1094  H     0.19046   0.74061   0.90540   0.00000  Uiso   1.00
H1095  H     0.19296   0.73838   0.82541   0.00000  Uiso   1.00
H1096  H     0.14280   0.92730   0.67257   0.00000  Uiso   1.00
H1097  H     0.27907   0.75644   0.96297   0.00000  Uiso   1.00
H1098  H     0.14860   0.84553   0.60565   0.00000  Uiso   1.00
H1099  H     0.18809   0.81507   0.89046   0.00000  Uiso   1.00
H1100  H     0.28433   0.79957   0.60718   0.00000  Uiso   1.00
H1101  H     0.04327   0.84352   0.89901   0.00000  Uiso   1.00
H1102  H     0.01439   0.83671   0.98399   0.00000  Uiso   1.00
H1103  H     0.30409   0.77217   0.52815   0.00000  Uiso   1.00
H1104  H     0.19842   0.95809   0.80052   0.00000  Uiso   1.00
N1105  N     0.04759   0.83334   0.75001   0.00000  Uiso   1.00
N1106  N     0.28574   0.83332   0.74999   0.00000  Uiso   1.00
O1107  O     0.12846   0.89442   0.75001   0.00000  Uiso   1.00
O1108  O     0.26180   0.74175   0.89002   0.00000  Uiso   1.00
O1109  O     0.22601   0.68648   0.83342   0.00000  Uiso   1.00
O1110  O     0.11343   0.97968   0.66030   0.00000  Uiso   1.00
O1111  O     0.20488   0.77225   0.75000   0.00000  Uiso   1.00
O1112  O     0.20490   0.89441   0.75000   0.00000  Uiso   1.00
O1113  O     0.12843   0.77226   0.75000   0.00000  Uiso   1.00
O1114  O     0.10661   0.83334   0.81613   0.00000  Uiso   1.00
O1115  O     0.22672   0.83333   0.68388   0.00000  Uiso   1.00
O1116  O     0.18305   0.83333   0.81612   0.00000  Uiso   1.00
O1117  O     0.15028   0.83334   0.68388   0.00000  Uiso   1.00
O1118  O     0.03897   0.81082   0.63162   0.00000  Uiso   1.00
Zn1119 Zn    0.11562   0.83334   0.75000   0.00000  Uiso   1.00
Zn1120 Zn    0.21771   0.83333   0.75000   0.00000  Uiso   1.00
C1121  C     0.50066   0.91322   0.74801   0.00000  Uiso   1.00
C1122  C     0.48321   0.98009   0.71708   0.00000  Uiso   1.00
C1123  C     0.49959   0.70917   0.75154   0.00000  Uiso   1.00
C1124  C     0.50111   0.95737   0.74684   0.00000  Uiso   1.00
C1125  C     0.64770   0.79860   0.73732   0.00000  Uiso   1.00
C1126  C     0.35215   0.86794   0.76309   0.00000  Uiso   1.00
C1127  C     0.36227   0.79864   0.73725   0.00000  Uiso   1.00
C1128  C     0.63761   0.86793   0.76310   0.00000  Uiso   1.00
C1129  C     0.46986   0.83294   0.83814   0.00000  Uiso   1.00
C1130  C     0.53010   0.83268   0.66190   0.00000  Uiso   1.00
C1131  C     0.45114   0.82842   0.88897   0.00000  Uiso   1.00
C1132  C     0.49962   0.75338   0.75122   0.00000  Uiso   1.00
C1133  C     0.54747   0.82348   0.61214   0.00000  Uiso   1.00
C1134  C     0.38539   0.82993   0.96381   0.00000  Uiso   1.00
C1135  C     0.60261   0.78705   0.54541   0.00000  Uiso   1.00
C1136  C     0.40192   0.83434   0.91546   0.00000  Uiso   1.00
C1137  C     0.59200   0.80357   0.58979   0.00000  Uiso   1.00
C1138  C     0.48309   0.81647   0.91098   0.00000  Uiso   1.00
C1139  C     0.51426   0.82695   0.58974   0.00000  Uiso   1.00
C1140  C     0.46643   0.80816   0.95901   0.00000  Uiso   1.00
C1141  C     0.52127   0.80538   0.54868   0.00000  Uiso   1.00
C1142  C     0.41753   0.81781   0.98580   0.00000  Uiso   1.00
C1143  C     0.43383   0.80774   0.55693   0.00000  Uiso   1.00
C1144  C     0.56760   0.78828   0.52446   0.00000  Uiso   1.00
C1145  C     0.49838   0.79490   0.98157   0.00000  Uiso   1.00
C1146  C     0.48424   0.80279   0.52986   0.00000  Uiso   1.00
C1147  C     0.41312   0.79914   0.60800   0.00000  Uiso   1.00
C1148  C     0.55374   0.75078   0.91500   0.00000  Uiso   1.00
C1149  C     0.53521   0.70619   0.81534   0.00000  Uiso   1.00
C1150  C     0.46807   0.95989   0.68121   0.00000  Uiso   1.00
C1151  C     0.54389   0.77477   0.95833   0.00000  Uiso   1.00
C1152  C     0.40134   0.81557   0.53422   0.00000  Uiso   1.00
C1153  C     0.57784   0.77178   0.98029   0.00000  Uiso   1.00
C1154  C     0.51883   0.97677   0.77768   0.00000  Uiso   1.00
C1155  C     0.48211   0.68977   0.72039   0.00000  Uiso   1.00
C1156  C     0.51825   0.68634   0.78063   0.00000  Uiso   1.00
H1157  H     0.36330   0.82066   0.55436   0.00000  Uiso   1.00
H1158  H     0.46917   0.70850   0.69762   0.00000  Uiso   1.00
H1159  H     0.63382   0.77085   0.72685   0.00000  Uiso   1.00
H1160  H     0.36600   0.89566   0.77366   0.00000  Uiso   1.00
H1161  H     0.38438   0.77091   0.72667   0.00000  Uiso   1.00
H1162  H     0.61548   0.89563   0.77371   0.00000  Uiso   1.00
H1163  H     0.43383   0.78181   0.62497   0.00000  Uiso   1.00
H1164  H     0.52379   0.74061   0.90540   0.00000  Uiso   1.00
H1165  H     0.52630   0.73838   0.82541   0.00000  Uiso   1.00
H1166  H     0.47613   0.92730   0.67257   0.00000  Uiso   1.00
H1167  H     0.61241   0.75644   0.96297   0.00000  Uiso   1.00
H1168  H     0.48194   0.84553   0.60565   0.00000  Uiso   1.00
H1169  H     0.52142   0.81507   0.89046   0.00000  Uiso   1.00
H1170  H     0.61766   0.79957   0.60718   0.00000  Uiso   1.00
H1171  H     0.37660   0.84352   0.89901   0.00000  Uiso   1.00
H1172  H     0.34772   0.83671   0.98399   0.00000  Uiso   1.00
H1173  H     0.63742   0.77217   0.52815   0.00000  Uiso   1.00
H1174  H     0.53176   0.95809   0.80052   0.00000  Uiso   1.00
N1175  N     0.38093   0.83334   0.75001   0.00000  Uiso   1.00
N1176  N     0.61907   0.83332   0.74999   0.00000  Uiso   1.00
O1177  O     0.46179   0.89442   0.75001   0.00000  Uiso   1.00
O1178  O     0.59514   0.74175   0.89002   0.00000  Uiso   1.00
O1179  O     0.55934   0.68648   0.83342   0.00000  Uiso   1.00
O1180  O     0.44676   0.97968   0.66030   0.00000  Uiso   1.00
O1181  O     0.53821   0.77225   0.75000   0.00000  Uiso   1.00
O1182  O     0.53823   0.89441   0.75000   0.00000  Uiso   1.00
O1183  O     0.46177   0.77226   0.75000   0.00000  Uiso   1.00
O1184  O     0.43994   0.83334   0.81613   0.00000  Uiso   1.00
O1185  O     0.56006   0.83333   0.68388   0.00000  Uiso   1.00
O1186  O     0.51639   0.83333   0.81612   0.00000  Uiso   1.00
O1187  O     0.48361   0.83334   0.68388   0.00000  Uiso   1.00
O1188  O     0.37231   0.81082   0.63162   0.00000  Uiso   1.00
Zn1189 Zn    0.44896   0.83334   0.75000   0.00000  Uiso   1.00
Zn1190 Zn    0.55104   0.83333   0.75000   0.00000  Uiso   1.00
C1191  C     0.83400   0.91322   0.74801   0.00000  Uiso   1.00
C1192  C     0.81655   0.98009   0.71708   0.00000  Uiso   1.00
C1193  C     0.83292   0.70917   0.75154   0.00000  Uiso   1.00
C1194  C     0.83445   0.95737   0.74684   0.00000  Uiso   1.00
C1195  C     0.98103   0.79860   0.73732   0.00000  Uiso   1.00
C1196  C     0.68548   0.86794   0.76309   0.00000  Uiso   1.00
C1197  C     0.69560   0.79864   0.73725   0.00000  Uiso   1.00
C1198  C     0.97094   0.86793   0.76310   0.00000  Uiso   1.00
C1199  C     0.80319   0.83294   0.83814   0.00000  Uiso   1.00
C1200  C     0.86343   0.83268   0.66190   0.00000  Uiso   1.00
C1201  C     0.78447   0.82842   0.88897   0.00000  Uiso   1.00
C1202  C     0.83296   0.75338   0.75122   0.00000  Uiso   1.00
C1203  C     0.88080   0.82348   0.61214   0.00000  Uiso   1.00
C1204  C     0.71872   0.82993   0.96381   0.00000  Uiso   1.00
C1205  C     0.93594   0.78705   0.54541   0.00000  Uiso   1.00
C1206  C     0.73525   0.83434   0.91546   0.00000  Uiso   1.00
C1207  C     0.92533   0.80357   0.58979   0.00000  Uiso   1.00
C1208  C     0.81643   0.81647   0.91098   0.00000  Uiso   1.00
C1209  C     0.84759   0.82695   0.58974   0.00000  Uiso   1.00
C1210  C     0.79976   0.80816   0.95901   0.00000  Uiso   1.00
C1211  C     0.85461   0.80538   0.54868   0.00000  Uiso   1.00
C1212  C     0.75086   0.81781   0.98580   0.00000  Uiso   1.00
C1213  C     0.76716   0.80774   0.55693   0.00000  Uiso   1.00
C1214  C     0.90093   0.78828   0.52446   0.00000  Uiso   1.00
C1215  C     0.83171   0.79490   0.98157   0.00000  Uiso   1.00
C1216  C     0.81757   0.80279   0.52986   0.00000  Uiso   1.00
C1217  C     0.74645   0.79914   0.60800   0.00000  Uiso   1.00
C1218  C     0.88707   0.75078   0.91500   0.00000  Uiso   1.00
C1219  C     0.86855   0.70619   0.81534   0.00000  Uiso   1.00
C1220  C     0.80140   0.95989   0.68121   0.00000  Uiso   1.00
C1221  C     0.87722   0.77477   0.95833   0.00000  Uiso   1.00
C1222  C     0.73468   0.81557   0.53422   0.00000  Uiso   1.00
C1223  C     0.91118   0.77178   0.98029   0.00000  Uiso   1.00
C1224  C     0.85217   0.97677   0.77768   0.00000  Uiso   1.00
C1225  C     0.81545   0.68977   0.72039   0.00000  Uiso   1.00
C1226  C     0.85158   0.68634   0.78063   0.00000  Uiso   1.00
H1227  H     0.69663   0.82066   0.55436   0.00000  Uiso   1.00
H1228  H     0.80250   0.70850   0.69762   0.00000  Uiso   1.00
H1229  H     0.96715   0.77085   0.72685   0.00000  Uiso   1.00
H1230  H     0.69933   0.89566   0.77366   0.00000  Uiso   1.00
H1231  H     0.71771   0.77091   0.72667   0.00000  Uiso   1.00
H1232  H     0.94881   0.89563   0.77371   0.00000  Uiso   1.00
H1233  H     0.76716   0.78181   0.62497   0.00000  Uiso   1.00
H1234  H     0.85713   0.74061   0.90540   0.00000  Uiso   1.00
H1235  H     0.85963   0.73838   0.82541   0.00000  Uiso   1.00
H1236  H     0.80947   0.92730   0.67257   0.00000  Uiso   1.00
H1237  H     0.94574   0.75644   0.96297   0.00000  Uiso   1.00
H1238  H     0.81527   0.84553   0.60565   0.00000  Uiso   1.00
H1239  H     0.85475   0.81507   0.89046   0.00000  Uiso   1.00
H1240  H     0.95099   0.79957   0.60718   0.00000  Uiso   1.00
H1241  H     0.70993   0.84352   0.89901   0.00000  Uiso   1.00
H1242  H     0.68105   0.83671   0.98399   0.00000  Uiso   1.00
H1243  H     0.97075   0.77217   0.52815   0.00000  Uiso   1.00
H1244  H     0.86509   0.95809   0.80052   0.00000  Uiso   1.00
N1245  N     0.71426   0.83334   0.75001   0.00000  Uiso   1.00
N1246  N     0.95241   0.83332   0.74999   0.00000  Uiso   1.00
O1247  O     0.79512   0.89442   0.75001   0.00000  Uiso   1.00
O1248  O     0.92847   0.74175   0.89002   0.00000  Uiso   1.00
O1249  O     0.89267   0.68648   0.83342   0.00000  Uiso   1.00
O1250  O     0.78010   0.97968   0.66030   0.00000  Uiso   1.00
O1251  O     0.87154   0.77225   0.75000   0.00000  Uiso   1.00
O1252  O     0.87157   0.89441   0.75000   0.00000  Uiso   1.00
O1253  O     0.79510   0.77226   0.75000   0.00000  Uiso   1.00
O1254  O     0.77328   0.83334   0.81613   0.00000  Uiso   1.00
O1255  O     0.89339   0.83333   0.68388   0.00000  Uiso   1.00
O1256  O     0.84972   0.83333   0.81612   0.00000  Uiso   1.00
O1257  O     0.81695   0.83334   0.68388   0.00000  Uiso   1.00
O1258  O     0.70564   0.81082   0.63162   0.00000  Uiso   1.00
Zn1259 Zn    0.78229   0.83334   0.75000   0.00000  Uiso   1.00
Zn1260 Zn    0.88438   0.83333   0.75000   0.00000  Uiso   1.00
loop_
_geom_bond_atom_site_label_1
_geom_bond_atom_site_label_2
_geom_bond_distance
_geom_bond_site_symmetry_2
_ccdc_geom_bond_type
C1     C4      1.413   .     S
C1     O62     1.282   .     A
C1     O57     1.282   .     A
C2     C4      1.407   .     A
C2     C30     1.489   .     S
C2     C245    1.382   .     S
C3     C35     1.396   .     A
C3     C36     1.406   .     A
C3     C12     1.415   .     S
C4     C34     1.393   .     A
C5     N56     1.367   .     A
C5     H39     1.081   .     S
C5     C77     1.416   .     S
C6     N55     1.367   .     A
C6     H40     1.081   .     S
C6     C148    1.416   1_455 S
C7     H41     1.081   .     S
C7     N55     1.367   .     A
C7     C145    1.416   1_455 S
C8     N56     1.367   .     A
C8     H42     1.081   .     S
C8     C76     1.416   .     S
C9     O64     1.295   .     A
C9     O66     1.294   .     A
C9     C11     1.462   .     S
C10    C13     1.460   .     S
C10    O67     1.293   .     A
C10    O65     1.296   .     A
C11    C18     1.398   .     A
C11    C16     1.400   .     A
C12    O61     1.282   .     A
C12    O63     1.282   .     A
C13    C17     1.400   .     A
C13    C19     1.393   .     A
C14    C22     1.403   .     A
C14    H52     1.083   .     S
C14    C16     1.391   .     A
C15    H53     1.084   .     S
C15    C24     1.405   .     A
C15    C17     1.396   .     A
C16    H51     1.083   .     S
C17    H50     1.082   .     S
C18    C20     1.399   .     A
C18    H49     1.080   .     S
C19    C21     1.395   .     A
C19    H48     1.082   .     S
C20    C22     1.415   .     A
C20    C25     1.421   .     A
C21    C26     1.416   .     A
C21    C24     1.412   .     A
C22    C662    1.390   .     S
C23    C32     1.398   .     A
C23    C27     1.486   .     S
C23    C26     1.428   .     A
C24    C663    1.391   1_554 S
C25    C31     1.430   .     A
C25    C656    1.415   .     S
C26    C655    1.415   1_554 S
C27    O68     1.221   .     D
C27    H43     1.085   .     S
C28    O58     1.222   .     D
C28    C31     1.481   .     S
C28    H44     1.083   .     S
C29    C36     1.485   .     S
C29    H45     1.084   .     S
C29    O59     1.221   .     D
C30    O60     1.222   .     D
C30    H46     1.084   .     S
C31    C33     1.402   .     A
C32    H37     1.082   .     S
C32    C652    1.390   1_554 S
C33    H47     1.085   .     S
C33    C654    1.391   .     S
C34    H54     1.086   .     S
C34    C246    1.377   .     S
C35    H38     1.085   .     S
C35    C422    1.382   1_545 S
C36    C454    1.377   1_545 S
N55    Zn69    2.012   .     S
N56    Zn70    2.012   .     S
O57    Zn69    1.993   .     S
O61    Zn70    1.993   .     S
O62    Zn70    1.990   .     S
O63    Zn69    1.990   .     S
O64    Zn69    1.953   .     S
O65    Zn70    1.953   .     S
O66    Zn70    1.916   .     S
O67    Zn69    1.916   .     S
C71    C74     1.413   .     S
C71    O132    1.282   .     A
C71    O127    1.282   .     A
C72    C74     1.407   .     A
C72    C100    1.489   .     S
C72    C315    1.382   .     S
C73    C105    1.396   .     A
C73    C106    1.406   .     A
C73    C82     1.415   .     S
C74    C104    1.393   .     A
C75    N126    1.367   .     A
C75    H109    1.081   .     S
C75    C147    1.416   .     S
C76    N125    1.367   .     A
C76    H110    1.081   .     S
C77    H111    1.081   .     S
C77    N125    1.367   .     A
C78    N126    1.367   .     A
C78    H112    1.081   .     S
C78    C146    1.416   .     S
C79    O134    1.295   .     A
C79    O136    1.294   .     A
C79    C81     1.462   .     S
C80    C83     1.460   .     S
C80    O137    1.293   .     A
C80    O135    1.296   .     A
C81    C88     1.398   .     A
C81    C86     1.400   .     A
C82    O131    1.282   .     A
C82    O133    1.282   .     A
C83    C87     1.400   .     A
C83    C89     1.393   .     A
C84    C92     1.403   .     A
C84    H122    1.083   .     S
C84    C86     1.391   .     A
C85    H123    1.084   .     S
C85    C94     1.405   .     A
C85    C87     1.396   .     A
C86    H121    1.083   .     S
C87    H120    1.082   .     S
C88    C90     1.399   .     A
C88    H119    1.080   .     S
C89    C91     1.395   .     A
C89    H118    1.082   .     S
C90    C92     1.415   .     A
C90    C95     1.421   .     A
C91    C96     1.416   .     A
C91    C94     1.412   .     A
C92    C732    1.390   .     S
C93    C102    1.398   .     A
C93    C97     1.486   .     S
C93    C96     1.428   .     A
C94    C733    1.391   1_554 S
C95    C101    1.430   .     A
C95    C726    1.415   .     S
C96    C725    1.415   1_554 S
C97    O138    1.221   .     D
C97    H113    1.085   .     S
C98    O128    1.222   .     D
C98    C101    1.481   .     S
C98    H114    1.083   .     S
C99    C106    1.485   .     S
C99    H115    1.084   .     S
C99    O129    1.221   .     D
C100   O130    1.222   .     D
C100   H116    1.084   .     S
C101   C103    1.402   .     A
C102   H107    1.082   .     S
C102   C722    1.390   1_554 S
C103   H117    1.085   .     S
C103   C724    1.391   .     S
C104   H124    1.086   .     S
C104   C316    1.377   .     S
C105   H108    1.085   .     S
C105   C492    1.382   1_545 S
C106   C524    1.377   1_545 S
N125   Zn139   2.012   .     S
N126   Zn140   2.012   .     S
O127   Zn139   1.993   .     S
O131   Zn140   1.993   .     S
O132   Zn140   1.990   .     S
O133   Zn139   1.990   .     S
O134   Zn139   1.953   .     S
O135   Zn140   1.953   .     S
O136   Zn140   1.916   .     S
O137   Zn139   1.916   .     S
C141   C144    1.413   .     S
C141   O202    1.282   .     A
C141   O197    1.282   .     A
C142   C144    1.407   .     A
C142   C170    1.489   .     S
C142   C385    1.382   .     S
C143   C175    1.396   .     A
C143   C176    1.406   .     A
C143   C152    1.415   .     S
C144   C174    1.393   .     A
C145   N196    1.367   .     A
C145   H179    1.081   .     S
C145   C7      1.416   1_655 S
C146   N195    1.367   .     A
C146   H180    1.081   .     S
C147   H181    1.081   .     S
C147   N195    1.367   .     A
C148   N196    1.367   .     A
C148   H182    1.081   .     S
C148   C6      1.416   1_655 S
C149   O204    1.295   .     A
C149   O206    1.294   .     A
C149   C151    1.462   .     S
C150   C153    1.460   .     S
C150   O207    1.293   .     A
C150   O205    1.296   .     A
C151   C158    1.398   .     A
C151   C156    1.400   .     A
C152   O201    1.282   .     A
C152   O203    1.282   .     A
C153   C157    1.400   .     A
C153   C159    1.393   .     A
C154   C162    1.403   .     A
C154   H192    1.083   .     S
C154   C156    1.391   .     A
C155   H193    1.084   .     S
C155   C164    1.405   .     A
C155   C157    1.396   .     A
C156   H191    1.083   .     S
C157   H190    1.082   .     S
C158   C160    1.399   .     A
C158   H189    1.080   .     S
C159   C161    1.395   .     A
C159   H188    1.082   .     S
C160   C162    1.415   .     A
C160   C165    1.421   .     A
C161   C166    1.416   .     A
C161   C164    1.412   .     A
C162   C802    1.390   .     S
C163   C172    1.398   .     A
C163   C167    1.486   .     S
C163   C166    1.428   .     A
C164   C803    1.391   1_554 S
C165   C171    1.430   .     A
C165   C796    1.415   .     S
C166   C795    1.415   1_554 S
C167   O208    1.221   .     D
C167   H183    1.085   .     S
C168   O198    1.222   .     D
C168   C171    1.481   .     S
C168   H184    1.083   .     S
C169   C176    1.485   .     S
C169   H185    1.084   .     S
C169   O199    1.221   .     D
C170   O200    1.222   .     D
C170   H186    1.084   .     S
C171   C173    1.402   .     A
C172   H177    1.082   .     S
C172   C792    1.390   1_554 S
C173   H187    1.085   .     S
C173   C794    1.391   .     S
C174   H194    1.086   .     S
C174   C386    1.377   .     S
C175   H178    1.085   .     S
C175   C562    1.382   1_545 S
C176   C594    1.377   1_545 S
N195   Zn209   2.012   .     S
N196   Zn210   2.012   .     S
O197   Zn209   1.993   .     S
O201   Zn210   1.993   .     S
O202   Zn210   1.990   .     S
O203   Zn209   1.990   .     S
O204   Zn209   1.953   .     S
O205   Zn210   1.953   .     S
O206   Zn210   1.916   .     S
O207   Zn209   1.916   .     S
C211   C214    1.413   .     S
C211   O272    1.282   .     A
C211   O267    1.282   .     A
C212   C214    1.407   .     A
C212   C240    1.489   .     S
C212   C455    1.382   .     S
C213   C245    1.396   .     A
C213   C246    1.406   .     A
C213   C222    1.415   .     S
C214   C244    1.393   .     A
C215   N266    1.367   .     A
C215   H249    1.081   .     S
C215   C287    1.416   .     S
C216   N265    1.367   .     A
C216   H250    1.081   .     S
C216   C358    1.416   1_455 S
C217   H251    1.081   .     S
C217   N265    1.367   .     A
C217   C355    1.416   1_455 S
C218   N266    1.367   .     A
C218   H252    1.081   .     S
C218   C286    1.416   .     S
C219   O274    1.295   .     A
C219   O276    1.294   .     A
C219   C221    1.462   .     S
C220   C223    1.460   .     S
C220   O277    1.293   .     A
C220   O275    1.296   .     A
C221   C228    1.398   .     A
C221   C226    1.400   .     A
C222   O271    1.282   .     A
C222   O273    1.282   .     A
C223   C227    1.400   .     A
C223   C229    1.393   .     A
C224   C232    1.403   .     A
C224   H262    1.083   .     S
C224   C226    1.391   .     A
C225   H263    1.084   .     S
C225   C234    1.405   .     A
C225   C227    1.396   .     A
C226   H261    1.083   .     S
C227   H260    1.082   .     S
C228   C230    1.399   .     A
C228   H259    1.080   .     S
C229   C231    1.395   .     A
C229   H258    1.082   .     S
C230   C232    1.415   .     A
C230   C235    1.421   .     A
C231   C236    1.416   .     A
C231   C234    1.412   .     A
C232   C872    1.390   .     S
C233   C242    1.398   .     A
C233   C237    1.486   .     S
C233   C236    1.428   .     A
C234   C873    1.391   1_554 S
C235   C241    1.430   .     A
C235   C866    1.415   .     S
C236   C865    1.415   1_554 S
C237   O278    1.221   .     D
C237   H253    1.085   .     S
C238   O268    1.222   .     D
C238   C241    1.481   .     S
C238   H254    1.083   .     S
C239   C246    1.485   .     S
C239   H255    1.084   .     S
C239   O269    1.221   .     D
C240   O270    1.222   .     D
C240   H256    1.084   .     S
C241   C243    1.402   .     A
C242   H247    1.082   .     S
C242   C862    1.390   1_554 S
C243   H257    1.085   .     S
C243   C864    1.391   .     S
C244   H264    1.086   .     S
C244   C456    1.377   .     S
C245   H248    1.085   .     S
N265   Zn279   2.012   .     S
N266   Zn280   2.012   .     S
O267   Zn279   1.993   .     S
O271   Zn280   1.993   .     S
O272   Zn280   1.990   .     S
O273   Zn279   1.990   .     S
O274   Zn279   1.953   .     S
O275   Zn280   1.953   .     S
O276   Zn280   1.916   .     S
O277   Zn279   1.916   .     S
C281   C284    1.413   .     S
C281   O342    1.282   .     A
C281   O337    1.282   .     A
C282   C284    1.407   .     A
C282   C310    1.489   .     S
C282   C525    1.382   .     S
C283   C315    1.396   .     A
C283   C316    1.406   .     A
C283   C292    1.415   .     S
C284   C314    1.393   .     A
C285   N336    1.367   .     A
C285   H319    1.081   .     S
C285   C357    1.416   .     S
C286   N335    1.367   .     A
C286   H320    1.081   .     S
C287   H321    1.081   .     S
C287   N335    1.367   .     A
C288   N336    1.367   .     A
C288   H322    1.081   .     S
C288   C356    1.416   .     S
C289   O344    1.295   .     A
C289   O346    1.294   .     A
C289   C291    1.462   .     S
C290   C293    1.460   .     S
C290   O347    1.293   .     A
C290   O345    1.296   .     A
C291   C298    1.398   .     A
C291   C296    1.400   .     A
C292   O341    1.282   .     A
C292   O343    1.282   .     A
C293   C297    1.400   .     A
C293   C299    1.393   .     A
C294   C302    1.403   .     A
C294   H332    1.083   .     S
C294   C296    1.391   .     A
C295   H333    1.084   .     S
C295   C304    1.405   .     A
C295   C297    1.396   .     A
C296   H331    1.083   .     S
C297   H330    1.082   .     S
C298   C300    1.399   .     A
C298   H329    1.080   .     S
C299   C301    1.395   .     A
C299   H328    1.082   .     S
C300   C302    1.415   .     A
C300   C305    1.421   .     A
C301   C306    1.416   .     A
C301   C304    1.412   .     A
C302   C942    1.390   .     S
C303   C312    1.398   .     A
C303   C307    1.486   .     S
C303   C306    1.428   .     A
C304   C943    1.391   1_554 S
C305   C311    1.430   .     A
C305   C936    1.415   .     S
C306   C935    1.415   1_554 S
C307   O348    1.221   .     D
C307   H323    1.085   .     S
C308   O338    1.222   .     D
C308   C311    1.481   .     S
C308   H324    1.083   .     S
C309   C316    1.485   .     S
C309   H325    1.084   .     S
C309   O339    1.221   .     D
C310   O340    1.222   .     D
C310   H326    1.084   .     S
C311   C313    1.402   .     A
C312   H317    1.082   .     S
C312   C932    1.390   1_554 S
C313   H327    1.085   .     S
C313   C934    1.391   .     S
C314   H334    1.086   .     S
C314   C526    1.377   .     S
C315   H318    1.085   .     S
N335   Zn349   2.012   .     S
N336   Zn350   2.012   .     S
O337   Zn349   1.993   .     S
O341   Zn350   1.993   .     S
O342   Zn350   1.990   .     S
O343   Zn349   1.990   .     S
O344   Zn349   1.953   .     S
O345   Zn350   1.953   .     S
O346   Zn350   1.916   .     S
O347   Zn349   1.916   .     S
C351   C354    1.413   .     S
C351   O412    1.282   .     A
C351   O407    1.282   .     A
C352   C354    1.407   .     A
C352   C380    1.489   .     S
C352   C595    1.382   .     S
C353   C385    1.396   .     A
C353   C386    1.406   .     A
C353   C362    1.415   .     S
C354   C384    1.393   .     A
C355   N406    1.367   .     A
C355   H389    1.081   .     S
C355   C217    1.416   1_655 S
C356   N405    1.367   .     A
C356   H390    1.081   .     S
C357   H391    1.081   .     S
C357   N405    1.367   .     A
C358   N406    1.367   .     A
C358   H392    1.081   .     S
C358   C216    1.416   1_655 S
C359   O414    1.295   .     A
C359   O416    1.294   .     A
C359   C361    1.462   .     S
C360   C363    1.460   .     S
C360   O417    1.293   .     A
C360   O415    1.296   .     A
C361   C368    1.398   .     A
C361   C366    1.400   .     A
C362   O411    1.282   .     A
C362   O413    1.282   .     A
C363   C367    1.400   .     A
C363   C369    1.393   .     A
C364   C372    1.403   .     A
C364   H402    1.083   .     S
C364   C366    1.391   .     A
C365   H403    1.084   .     S
C365   C374    1.405   .     A
C365   C367    1.396   .     A
C366   H401    1.083   .     S
C367   H400    1.082   .     S
C368   C370    1.399   .     A
C368   H399    1.080   .     S
C369   C371    1.395   .     A
C369   H398    1.082   .     S
C370   C372    1.415   .     A
C370   C375    1.421   .     A
C371   C376    1.416   .     A
C371   C374    1.412   .     A
C372   C1012   1.390   .     S
C373   C382    1.398   .     A
C373   C377    1.486   .     S
C373   C376    1.428   .     A
C374   C1013   1.391   1_554 S
C375   C381    1.430   .     A
C375   C1006   1.415   .     S
C376   C1005   1.415   1_554 S
C377   O418    1.221   .     D
C377   H393    1.085   .     S
C378   O408    1.222   .     D
C378   C381    1.481   .     S
C378   H394    1.083   .     S
C379   C386    1.485   .     S
C379   H395    1.084   .     S
C379   O409    1.221   .     D
C380   O410    1.222   .     D
C380   H396    1.084   .     S
C381   C383    1.402   .     A
C382   H387    1.082   .     S
C382   C1002   1.390   1_554 S
C383   H397    1.085   .     S
C383   C1004   1.391   .     S
C384   H404    1.086   .     S
C384   C596    1.377   .     S
C385   H388    1.085   .     S
N405   Zn419   2.012   .     S
N406   Zn420   2.012   .     S
O407   Zn419   1.993   .     S
O411   Zn420   1.993   .     S
O412   Zn420   1.990   .     S
O413   Zn419   1.990   .     S
O414   Zn419   1.953   .     S
O415   Zn420   1.953   .     S
O416   Zn420   1.916   .     S
O417   Zn419   1.916   .     S
C421   C424    1.413   .     S
C421   O482    1.282   .     A
C421   O477    1.282   .     A
C422   C424    1.407   .     A
C422   C450    1.489   .     S
C422   C35     1.382   1_565 S
C423   C455    1.396   .     A
C423   C456    1.406   .     A
C423   C432    1.415   .     S
C424   C454    1.393   .     A
C425   N476    1.367   .     A
C425   H459    1.081   .     S
C425   C497    1.416   .     S
C426   N475    1.367   .     A
C426   H460    1.081   .     S
C426   C568    1.416   1_455 S
C427   H461    1.081   .     S
C427   N475    1.367   .     A
C427   C565    1.416   1_455 S
C428   N476    1.367   .     A
C428   H462    1.081   .     S
C428   C496    1.416   .     S
C429   O484    1.295   .     A
C429   O486    1.294   .     A
C429   C431    1.462   .     S
C430   C433    1.460   .     S
C430   O487    1.293   .     A
C430   O485    1.296   .     A
C431   C438    1.398   .     A
C431   C436    1.400   .     A
C432   O481    1.282   .     A
C432   O483    1.282   .     A
C433   C437    1.400   .     A
C433   C439    1.393   .     A
C434   C442    1.403   .     A
C434   H472    1.083   .     S
C434   C436    1.391   .     A
C435   H473    1.084   .     S
C435   C444    1.405   .     A
C435   C437    1.396   .     A
C436   H471    1.083   .     S
C437   H470    1.082   .     S
C438   C440    1.399   .     A
C438   H469    1.080   .     S
C439   C441    1.395   .     A
C439   H468    1.082   .     S
C440   C442    1.415   .     A
C440   C445    1.421   .     A
C441   C446    1.416   .     A
C441   C444    1.412   .     A
C442   C1082   1.390   .     S
C443   C452    1.398   .     A
C443   C447    1.486   .     S
C443   C446    1.428   .     A
C444   C1083   1.391   1_554 S
C445   C451    1.430   .     A
C445   C1076   1.415   .     S
C446   C1075   1.415   1_554 S
C447   O488    1.221   .     D
C447   H463    1.085   .     S
C448   O478    1.222   .     D
C448   C451    1.481   .     S
C448   H464    1.083   .     S
C449   C456    1.485   .     S
C449   H465    1.084   .     S
C449   O479    1.221   .     D
C450   O480    1.222   .     D
C450   H466    1.084   .     S
C451   C453    1.402   .     A
C452   H457    1.082   .     S
C452   C1072   1.390   1_554 S
C453   H467    1.085   .     S
C453   C1074   1.391   .     S
C454   H474    1.086   .     S
C454   C36     1.377   1_565 S
C455   H458    1.085   .     S
N475   Zn489   2.012   .     S
N476   Zn490   2.012   .     S
O477   Zn489   1.993   .     S
O481   Zn490   1.993   .     S
O482   Zn490   1.990   .     S
O483   Zn489   1.990   .     S
O484   Zn489   1.953   .     S
O485   Zn490   1.953   .     S
O486   Zn490   1.916   .     S
O487   Zn489   1.916   .     S
C491   C494    1.413   .     S
C491   O552    1.282   .     A
C491   O547    1.282   .     A
C492   C494    1.407   .     A
C492   C520    1.489   .     S
C492   C105    1.382   1_565 S
C493   C525    1.396   .     A
C493   C526    1.406   .     A
C493   C502    1.415   .     S
C494   C524    1.393   .     A
C495   N546    1.367   .     A
C495   H529    1.081   .     S
C495   C567    1.416   .     S
C496   N545    1.367   .     A
C496   H530    1.081   .     S
C497   H531    1.081   .     S
C497   N545    1.367   .     A
C498   N546    1.367   .     A
C498   H532    1.081   .     S
C498   C566    1.416   .     S
C499   O554    1.295   .     A
C499   O556    1.294   .     A
C499   C501    1.462   .     S
C500   C503    1.460   .     S
C500   O557    1.293   .     A
C500   O555    1.296   .     A
C501   C508    1.398   .     A
C501   C506    1.400   .     A
C502   O551    1.282   .     A
C502   O553    1.282   .     A
C503   C507    1.400   .     A
C503   C509    1.393   .     A
C504   C512    1.403   .     A
C504   H542    1.083   .     S
C504   C506    1.391   .     A
C505   H543    1.084   .     S
C505   C514    1.405   .     A
C505   C507    1.396   .     A
C506   H541    1.083   .     S
C507   H540    1.082   .     S
C508   C510    1.399   .     A
C508   H539    1.080   .     S
C509   C511    1.395   .     A
C509   H538    1.082   .     S
C510   C512    1.415   .     A
C510   C515    1.421   .     A
C511   C516    1.416   .     A
C511   C514    1.412   .     A
C512   C1152   1.390   .     S
C513   C522    1.398   .     A
C513   C517    1.486   .     S
C513   C516    1.428   .     A
C514   C1153   1.391   1_554 S
C515   C521    1.430   .     A
C515   C1146   1.415   .     S
C516   C1145   1.415   1_554 S
C517   O558    1.221   .     D
C517   H533    1.085   .     S
C518   O548    1.222   .     D
C518   C521    1.481   .     S
C518   H534    1.083   .     S
C519   C526    1.485   .     S
C519   H535    1.084   .     S
C519   O549    1.221   .     D
C520   O550    1.222   .     D
C520   H536    1.084   .     S
C521   C523    1.402   .     A
C522   H527    1.082   .     S
C522   C1142   1.390   1_554 S
C523   H537    1.085   .     S
C523   C1144   1.391   .     S
C524   H544    1.086   .     S
C524   C106    1.377   1_565 S
C525   H528    1.085   .     S
N545   Zn559   2.012   .     S
N546   Zn560   2.012   .     S
O547   Zn559   1.993   .     S
O551   Zn560   1.993   .     S
O552   Zn560   1.990   .     S
O553   Zn559   1.990   .     S
O554   Zn559   1.953   .     S
O555   Zn560   1.953   .     S
O556   Zn560   1.916   .     S
O557   Zn559   1.916   .     S
C561   C564    1.413   .     S
C561   O622    1.282   .     A
C561   O617    1.282   .     A
C562   C564    1.407   .     A
C562   C590    1.489   .     S
C562   C175    1.382   1_565 S
C563   C595    1.396   .     A
C563   C596    1.406   .     A
C563   C572    1.415   .     S
C564   C594    1.393   .     A
C565   N616    1.367   .     A
C565   H599    1.081   .     S
C565   C427    1.416   1_655 S
C566   N615    1.367   .     A
C566   H600    1.081   .     S
C567   H601    1.081   .     S
C567   N615    1.367   .     A
C568   N616    1.367   .     A
C568   H602    1.081   .     S
C568   C426    1.416   1_655 S
C569   O624    1.295   .     A
C569   O626    1.294   .     A
C569   C571    1.462   .     S
C570   C573    1.460   .     S
C570   O627    1.293   .     A
C570   O625    1.296   .     A
C571   C578    1.398   .     A
C571   C576    1.400   .     A
C572   O621    1.282   .     A
C572   O623    1.282   .     A
C573   C577    1.400   .     A
C573   C579    1.393   .     A
C574   C582    1.403   .     A
C574   H612    1.083   .     S
C574   C576    1.391   .     A
C575   H613    1.084   .     S
C575   C584    1.405   .     A
C575   C577    1.396   .     A
C576   H611    1.083   .     S
C577   H610    1.082   .     S
C578   C580    1.399   .     A
C578   H609    1.080   .     S
C579   C581    1.395   .     A
C579   H608    1.082   .     S
C580   C582    1.415   .     A
C580   C585    1.421   .     A
C581   C586    1.416   .     A
C581   C584    1.412   .     A
C582   C1222   1.390   .     S
C583   C592    1.398   .     A
C583   C587    1.486   .     S
C583   C586    1.428   .     A
C584   C1223   1.391   1_554 S
C585   C591    1.430   .     A
C585   C1216   1.415   .     S
C586   C1215   1.415   1_554 S
C587   O628    1.221   .     D
C587   H603    1.085   .     S
C588   O618    1.222   .     D
C588   C591    1.481   .     S
C588   H604    1.083   .     S
C589   C596    1.485   .     S
C589   H605    1.084   .     S
C589   O619    1.221   .     D
C590   O620    1.222   .     D
C590   H606    1.084   .     S
C591   C593    1.402   .     A
C592   H597    1.082   .     S
C592   C1212   1.390   1_554 S
C593   H607    1.085   .     S
C593   C1214   1.391   .     S
C594   H614    1.086   .     S
C594   C176    1.377   1_565 S
C595   H598    1.085   .     S
N615   Zn629   2.012   .     S
N616   Zn630   2.012   .     S
O617   Zn629   1.993   .     S
O621   Zn630   1.993   .     S
O622   Zn630   1.990   .     S
O623   Zn629   1.990   .     S
O624   Zn629   1.953   .     S
O625   Zn630   1.953   .     S
O626   Zn630   1.916   .     S
O627   Zn629   1.916   .     S
C631   C634    1.413   .     S
C631   O692    1.282   .     A
C631   O687    1.282   .     A
C632   C634    1.407   .     A
C632   C660    1.489   .     S
C632   C875    1.382   .     S
C633   C665    1.396   .     A
C633   C666    1.406   .     A
C633   C642    1.415   .     S
C634   C664    1.393   .     A
C635   N686    1.367   .     A
C635   H669    1.081   .     S
C635   C707    1.416   .     S
C636   N685    1.367   .     A
C636   H670    1.081   .     S
C636   C778    1.416   1_455 S
C637   H671    1.081   .     S
C637   N685    1.367   .     A
C637   C775    1.416   1_455 S
C638   N686    1.367   .     A
C638   H672    1.081   .     S
C638   C706    1.416   .     S
C639   O694    1.295   .     A
C639   O696    1.294   .     A
C639   C641    1.462   .     S
C640   C643    1.460   .     S
C640   O697    1.293   .     A
C640   O695    1.296   .     A
C641   C648    1.398   .     A
C641   C646    1.400   .     A
C642   O691    1.282   .     A
C642   O693    1.282   .     A
C643   C647    1.400   .     A
C643   C649    1.393   .     A
C644   C652    1.403   .     A
C644   H682    1.083   .     S
C644   C646    1.391   .     A
C645   H683    1.084   .     S
C645   C654    1.405   .     A
C645   C647    1.396   .     A
C646   H681    1.083   .     S
C647   H680    1.082   .     S
C648   C650    1.399   .     A
C648   H679    1.080   .     S
C649   C651    1.395   .     A
C649   H678    1.082   .     S
C650   C652    1.415   .     A
C650   C655    1.421   .     A
C651   C656    1.416   .     A
C651   C654    1.412   .     A
C652   C32     1.390   1_556 S
C653   C662    1.398   .     A
C653   C657    1.486   .     S
C653   C656    1.428   .     A
C655   C661    1.430   .     A
C655   C26     1.415   1_556 S
C657   O698    1.221   .     D
C657   H673    1.085   .     S
C658   O688    1.222   .     D
C658   C661    1.481   .     S
C658   H674    1.083   .     S
C659   C666    1.485   .     S
C659   H675    1.084   .     S
C659   O689    1.221   .     D
C660   O690    1.222   .     D
C660   H676    1.084   .     S
C661   C663    1.402   .     A
C662   H667    1.082   .     S
C663   H677    1.085   .     S
C663   C24     1.391   1_556 S
C664   H684    1.086   .     S
C664   C876    1.377   .     S
C665   H668    1.085   .     S
C665   C1052   1.382   1_545 S
C666   C1084   1.377   1_545 S
N685   Zn699   2.012   .     S
N686   Zn700   2.012   .     S
O687   Zn699   1.993   .     S
O691   Zn700   1.993   .     S
O692   Zn700   1.990   .     S
O693   Zn699   1.990   .     S
O694   Zn699   1.953   .     S
O695   Zn700   1.953   .     S
O696   Zn700   1.916   .     S
O697   Zn699   1.916   .     S
C701   C704    1.413   .     S
C701   O762    1.282   .     A
C701   O757    1.282   .     A
C702   C704    1.407   .     A
C702   C730    1.489   .     S
C702   C945    1.382   .     S
C703   C735    1.396   .     A
C703   C736    1.406   .     A
C703   C712    1.415   .     S
C704   C734    1.393   .     A
C705   N756    1.367   .     A
C705   H739    1.081   .     S
C705   C777    1.416   .     S
C706   N755    1.367   .     A
C706   H740    1.081   .     S
C707   H741    1.081   .     S
C707   N755    1.367   .     A
C708   N756    1.367   .     A
C708   H742    1.081   .     S
C708   C776    1.416   .     S
C709   O764    1.295   .     A
C709   O766    1.294   .     A
C709   C711    1.462   .     S
C710   C713    1.460   .     S
C710   O767    1.293   .     A
C710   O765    1.296   .     A
C711   C718    1.398   .     A
C711   C716    1.400   .     A
C712   O761    1.282   .     A
C712   O763    1.282   .     A
C713   C717    1.400   .     A
C713   C719    1.393   .     A
C714   C722    1.403   .     A
C714   H752    1.083   .     S
C714   C716    1.391   .     A
C715   H753    1.084   .     S
C715   C724    1.405   .     A
C715   C717    1.396   .     A
C716   H751    1.083   .     S
C717   H750    1.082   .     S
C718   C720    1.399   .     A
C718   H749    1.080   .     S
C719   C721    1.395   .     A
C719   H748    1.082   .     S
C720   C722    1.415   .     A
C720   C725    1.421   .     A
C721   C726    1.416   .     A
C721   C724    1.412   .     A
C722   C102    1.390   1_556 S
C723   C732    1.398   .     A
C723   C727    1.486   .     S
C723   C726    1.428   .     A
C725   C731    1.430   .     A
C725   C96     1.415   1_556 S
C727   O768    1.221   .     D
C727   H743    1.085   .     S
C728   O758    1.222   .     D
C728   C731    1.481   .     S
C728   H744    1.083   .     S
C729   C736    1.485   .     S
C729   H745    1.084   .     S
C729   O759    1.221   .     D
C730   O760    1.222   .     D
C730   H746    1.084   .     S
C731   C733    1.402   .     A
C732   H737    1.082   .     S
C733   H747    1.085   .     S
C733   C94     1.391   1_556 S
C734   H754    1.086   .     S
C734   C946    1.377   .     S
C735   H738    1.085   .     S
C735   C1122   1.382   1_545 S
C736   C1154   1.377   1_545 S
N755   Zn769   2.012   .     S
N756   Zn770   2.012   .     S
O757   Zn769   1.993   .     S
O761   Zn770   1.993   .     S
O762   Zn770   1.990   .     S
O763   Zn769   1.990   .     S
O764   Zn769   1.953   .     S
O765   Zn770   1.953   .     S
O766   Zn770   1.916   .     S
O767   Zn769   1.916   .     S
C771   C774    1.413   .     S
C771   O832    1.282   .     A
C771   O827    1.282   .     A
C772   C774    1.407   .     A
C772   C800    1.489   .     S
C772   C1015   1.382   .     S
C773   C805    1.396   .     A
C773   C806    1.406   .     A
C773   C782    1.415   .     S
C774   C804    1.393   .     A
C775   N826    1.367   .     A
C775   H809    1.081   .     S
C775   C637    1.416   1_655 S
C776   N825    1.367   .     A
C776   H810    1.081   .     S
C777   H811    1.081   .     S
C777   N825    1.367   .     A
C778   N826    1.367   .     A
C778   H812    1.081   .     S
C778   C636    1.416   1_655 S
C779   O834    1.295   .     A
C779   O836    1.294   .     A
C779   C781    1.462   .     S
C780   C783    1.460   .     S
C780   O837    1.293   .     A
C780   O835    1.296   .     A
C781   C788    1.398   .     A
C781   C786    1.400   .     A
C782   O831    1.282   .     A
C782   O833    1.282   .     A
C783   C787    1.400   .     A
C783   C789    1.393   .     A
C784   C792    1.403   .     A
C784   H822    1.083   .     S
C784   C786    1.391   .     A
C785   H823    1.084   .     S
C785   C794    1.405   .     A
C785   C787    1.396   .     A
C786   H821    1.083   .     S
C787   H820    1.082   .     S
C788   C790    1.399   .     A
C788   H819    1.080   .     S
C789   C791    1.395   .     A
C789   H818    1.082   .     S
C790   C792    1.415   .     A
C790   C795    1.421   .     A
C791   C796    1.416   .     A
C791   C794    1.412   .     A
C792   C172    1.390   1_556 S
C793   C802    1.398   .     A
C793   C797    1.486   .     S
C793   C796    1.428   .     A
C795   C801    1.430   .     A
C795   C166    1.415   1_556 S
C797   O838    1.221   .     D
C797   H813    1.085   .     S
C798   O828    1.222   .     D
C798   C801    1.481   .     S
C798   H814    1.083   .     S
C799   C806    1.485   .     S
C799   H815    1.084   .     S
C799   O829    1.221   .     D
C800   O830    1.222   .     D
C800   H816    1.084   .     S
C801   C803    1.402   .     A
C802   H807    1.082   .     S
C803   H817    1.085   .     S
C803   C164    1.391   1_556 S
C804   H824    1.086   .     S
C804   C1016   1.377   .     S
C805   H808    1.085   .     S
C805   C1192   1.382   1_545 S
C806   C1224   1.377   1_545 S
N825   Zn839   2.012   .     S
N826   Zn840   2.012   .     S
O827   Zn839   1.993   .     S
O831   Zn840   1.993   .     S
O832   Zn840   1.990   .     S
O833   Zn839   1.990   .     S
O834   Zn839   1.953   .     S
O835   Zn840   1.953   .     S
O836   Zn840   1.916   .     S
O837   Zn839   1.916   .     S
C841   C844    1.413   .     S
C841   O902    1.282   .     A
C841   O897    1.282   .     A
C842   C844    1.407   .     A
C842   C870    1.489   .     S
C842   C1085   1.382   .     S
C843   C875    1.396   .     A
C843   C876    1.406   .     A
C843   C852    1.415   .     S
C844   C874    1.393   .     A
C845   N896    1.367   .     A
C845   H879    1.081   .     S
C845   C917    1.416   .     S
C846   N895    1.367   .     A
C846   H880    1.081   .     S
C846   C988    1.416   1_455 S
C847   H881    1.081   .     S
C847   N895    1.367   .     A
C847   C985    1.416   1_455 S
C848   N896    1.367   .     A
C848   H882    1.081   .     S
C848   C916    1.416   .     S
C849   O904    1.295   .     A
C849   O906    1.294   .     A
C849   C851    1.462   .     S
C850   C853    1.460   .     S
C850   O907    1.293   .     A
C850   O905    1.296   .     A
C851   C858    1.398   .     A
C851   C856    1.400   .     A
C852   O901    1.282   .     A
C852   O903    1.282   .     A
C853   C857    1.400   .     A
C853   C859    1.393   .     A
C854   C862    1.403   .     A
C854   H892    1.083   .     S
C854   C856    1.391   .     A
C855   H893    1.084   .     S
C855   C864    1.405   .     A
C855   C857    1.396   .     A
C856   H891    1.083   .     S
C857   H890    1.082   .     S
C858   C860    1.399   .     A
C858   H889    1.080   .     S
C859   C861    1.395   .     A
C859   H888    1.082   .     S
C860   C862    1.415   .     A
C860   C865    1.421   .     A
C861   C866    1.416   .     A
C861   C864    1.412   .     A
C862   C242    1.390   1_556 S
C863   C872    1.398   .     A
C863   C867    1.486   .     S
C863   C866    1.428   .     A
C865   C871    1.430   .     A
C865   C236    1.415   1_556 S
C867   O908    1.221   .     D
C867   H883    1.085   .     S
C868   O898    1.222   .     D
C868   C871    1.481   .     S
C868   H884    1.083   .     S
C869   C876    1.485   .     S
C869   H885    1.084   .     S
C869   O899    1.221   .     D
C870   O900    1.222   .     D
C870   H886    1.084   .     S
C871   C873    1.402   .     A
C872   H877    1.082   .     S
C873   H887    1.085   .     S
C873   C234    1.391   1_556 S
C874   H894    1.086   .     S
C874   C1086   1.377   .     S
C875   H878    1.085   .     S
N895   Zn909   2.012   .     S
N896   Zn910   2.012   .     S
O897   Zn909   1.993   .     S
O901   Zn910   1.993   .     S
O902   Zn910   1.990   .     S
O903   Zn909   1.990   .     S
O904   Zn909   1.953   .     S
O905   Zn910   1.953   .     S
O906   Zn910   1.916   .     S
O907   Zn909   1.916   .     S
C911   C914    1.413   .     S
C911   O972    1.282   .     A
C911   O967    1.282   .     A
C912   C914    1.407   .     A
C912   C940    1.489   .     S
C912   C1155   1.382   .     S
C913   C945    1.396   .     A
C913   C946    1.406   .     A
C913   C922    1.415   .     S
C914   C944    1.393   .     A
C915   N966    1.367   .     A
C915   H949    1.081   .     S
C915   C987    1.416   .     S
C916   N965    1.367   .     A
C916   H950    1.081   .     S
C917   H951    1.081   .     S
C917   N965    1.367   .     A
C918   N966    1.367   .     A
C918   H952    1.081   .     S
C918   C986    1.416   .     S
C919   O974    1.295   .     A
C919   O976    1.294   .     A
C919   C921    1.462   .     S
C920   C923    1.460   .     S
C920   O977    1.293   .     A
C920   O975    1.296   .     A
C921   C928    1.398   .     A
C921   C926    1.400   .     A
C922   O971    1.282   .     A
C922   O973    1.282   .     A
C923   C927    1.400   .     A
C923   C929    1.393   .     A
C924   C932    1.403   .     A
C924   H962    1.083   .     S
C924   C926    1.391   .     A
C925   H963    1.084   .     S
C925   C934    1.405   .     A
C925   C927    1.396   .     A
C926   H961    1.083   .     S
C927   H960    1.082   .     S
C928   C930    1.399   .     A
C928   H959    1.080   .     S
C929   C931    1.395   .     A
C929   H958    1.082   .     S
C930   C932    1.415   .     A
C930   C935    1.421   .     A
C931   C936    1.416   .     A
C931   C934    1.412   .     A
C932   C312    1.390   1_556 S
C933   C942    1.398   .     A
C933   C937    1.486   .     S
C933   C936    1.428   .     A
C935   C941    1.430   .     A
C935   C306    1.415   1_556 S
C937   O978    1.221   .     D
C937   H953    1.085   .     S
C938   O968    1.222   .     D
C938   C941    1.481   .     S
C938   H954    1.083   .     S
C939   C946    1.485   .     S
C939   H955    1.084   .     S
C939   O969    1.221   .     D
C940   O970    1.222   .     D
C940   H956    1.084   .     S
C941   C943    1.402   .     A
C942   H947    1.082   .     S
C943   H957    1.085   .     S
C943   C304    1.391   1_556 S
C944   H964    1.086   .     S
C944   C1156   1.377   .     S
C945   H948    1.085   .     S
N965   Zn979   2.012   .     S
N966   Zn980   2.012   .     S
O967   Zn979   1.993   .     S
O971   Zn980   1.993   .     S
O972   Zn980   1.990   .     S
O973   Zn979   1.990   .     S
O974   Zn979   1.953   .     S
O975   Zn980   1.953   .     S
O976   Zn980   1.916   .     S
O977   Zn979   1.916   .     S
C981   C984    1.413   .     S
C981   O1042   1.282   .     A
C981   O1037   1.282   .     A
C982   C984    1.407   .     A
C982   C1010   1.489   .     S
C982   C1225   1.382   .     S
C983   C1015   1.396   .     A
C983   C1016   1.406   .     A
C983   C992    1.415   .     S
C984   C1014   1.393   .     A
C985   N1036   1.367   .     A
C985   H1019   1.081   .     S
C985   C847    1.416   1_655 S
C986   N1035   1.367   .     A
C986   H1020   1.081   .     S
C987   H1021   1.081   .     S
C987   N1035   1.367   .     A
C988   N1036   1.367   .     A
C988   H1022   1.081   .     S
C988   C846    1.416   1_655 S
C989   O1044   1.295   .     A
C989   O1046   1.294   .     A
C989   C991    1.462   .     S
C990   C993    1.460   .     S
C990   O1047   1.293   .     A
C990   O1045   1.296   .     A
C991   C998    1.398   .     A
C991   C996    1.400   .     A
C992   O1041   1.282   .     A
C992   O1043   1.282   .     A
C993   C997    1.400   .     A
C993   C999    1.393   .     A
C994   C1002   1.403   .     A
C994   H1032   1.083   .     S
C994   C996    1.391   .     A
C995   H1033   1.084   .     S
C995   C1004   1.405   .     A
C995   C997    1.396   .     A
C996   H1031   1.083   .     S
C997   H1030   1.082   .     S
C998   C1000   1.399   .     A
C998   H1029   1.080   .     S
C999   C1001   1.395   .     A
C999   H1028   1.082   .     S
C1000  C1002   1.415   .     A
C1000  C1005   1.421   .     A
C1001  C1006   1.416   .     A
C1001  C1004   1.412   .     A
C1002  C382    1.390   1_556 S
C1003  C1012   1.398   .     A
C1003  C1007   1.486   .     S
C1003  C1006   1.428   .     A
C1005  C1011   1.430   .     A
C1005  C376    1.415   1_556 S
C1007  O1048   1.221   .     D
C1007  H1023   1.085   .     S
C1008  O1038   1.222   .     D
C1008  C1011   1.481   .     S
C1008  H1024   1.083   .     S
C1009  C1016   1.485   .     S
C1009  H1025   1.084   .     S
C1009  O1039   1.221   .     D
C1010  O1040   1.222   .     D
C1010  H1026   1.084   .     S
C1011  C1013   1.402   .     A
C1012  H1017   1.082   .     S
C1013  H1027   1.085   .     S
C1013  C374    1.391   1_556 S
C1014  H1034   1.086   .     S
C1014  C1226   1.377   .     S
C1015  H1018   1.085   .     S
N1035  Zn1049  2.012   .     S
N1036  Zn1050  2.012   .     S
O1037  Zn1049  1.993   .     S
O1041  Zn1050  1.993   .     S
O1042  Zn1050  1.990   .     S
O1043  Zn1049  1.990   .     S
O1044  Zn1049  1.953   .     S
O1045  Zn1050  1.953   .     S
O1046  Zn1050  1.916   .     S
O1047  Zn1049  1.916   .     S
C1051  C1054   1.413   .     S
C1051  O1112   1.282   .     A
C1051  O1107   1.282   .     A
C1052  C1054   1.407   .     A
C1052  C1080   1.489   .     S
C1052  C665    1.382   1_565 S
C1053  C1085   1.396   .     A
C1053  C1086   1.406   .     A
C1053  C1062   1.415   .     S
C1054  C1084   1.393   .     A
C1055  N1106   1.367   .     A
C1055  H1089   1.081   .     S
C1055  C1127   1.416   .     S
C1056  N1105   1.367   .     A
C1056  H1090   1.081   .     S
C1056  C1198   1.416   1_455 S
C1057  H1091   1.081   .     S
C1057  N1105   1.367   .     A
C1057  C1195   1.416   1_455 S
C1058  N1106   1.367   .     A
C1058  H1092   1.081   .     S
C1058  C1126   1.416   .     S
C1059  O1114   1.295   .     A
C1059  O1116   1.294   .     A
C1059  C1061   1.462   .     S
C1060  C1063   1.460   .     S
C1060  O1117   1.293   .     A
C1060  O1115   1.296   .     A
C1061  C1068   1.398   .     A
C1061  C1066   1.400   .     A
C1062  O1111   1.282   .     A
C1062  O1113   1.282   .     A
C1063  C1067   1.400   .     A
C1063  C1069   1.393   .     A
C1064  C1072   1.403   .     A
C1064  H1102   1.083   .     S
C1064  C1066   1.391   .     A
C1065  H1103   1.084   .     S
C1065  C1074   1.405   .     A
C1065  C1067   1.396   .     A
C1066  H1101   1.083   .     S
C1067  H1100   1.082   .     S
C1068  C1070   1.399   .     A
C1068  H1099   1.080   .     S
C1069  C1071   1.395   .     A
C1069  H1098   1.082   .     S
C1070  C1072   1.415   .     A
C1070  C1075   1.421   .     A
C1071  C1076   1.416   .     A
C1071  C1074   1.412   .     A
C1072  C452    1.390   1_556 S
C1073  C1082   1.398   .     A
C1073  C1077   1.486   .     S
C1073  C1076   1.428   .     A
C1075  C1081   1.430   .     A
C1075  C446    1.415   1_556 S
C1077  O1118   1.221   .     D
C1077  H1093   1.085   .     S
C1078  O1108   1.222   .     D
C1078  C1081   1.481   .     S
C1078  H1094   1.083   .     S
C1079  C1086   1.485   .     S
C1079  H1095   1.084   .     S
C1079  O1109   1.221   .     D
C1080  O1110   1.222   .     D
C1080  H1096   1.084   .     S
C1081  C1083   1.402   .     A
C1082  H1087   1.082   .     S
C1083  H1097   1.085   .     S
C1083  C444    1.391   1_556 S
C1084  H1104   1.086   .     S
C1084  C666    1.377   1_565 S
C1085  H1088   1.085   .     S
N1105  Zn1119  2.012   .     S
N1106  Zn1120  2.012   .     S
O1107  Zn1119  1.993   .     S
O1111  Zn1120  1.993   .     S
O1112  Zn1120  1.990   .     S
O1113  Zn1119  1.990   .     S
O1114  Zn1119  1.953   .     S
O1115  Zn1120  1.953   .     S
O1116  Zn1120  1.916   .     S
O1117  Zn1119  1.916   .     S
C1121  C1124   1.413   .     S
C1121  O1182   1.282   .     A
C1121  O1177   1.282   .     A
C1122  C1124   1.407   .     A
C1122  C1150   1.489   .     S
C1122  C735    1.382   1_565 S
C1123  C1155   1.396   .     A
C1123  C1156   1.406   .     A
C1123  C1132   1.415   .     S
C1124  C1154   1.393   .     A
C1125  N1176   1.367   .     A
C1125  H1159   1.081   .     S
C1125  C1197   1.416   .     S
C1126  N1175   1.367   .     A
C1126  H1160   1.081   .     S
C1127  H1161   1.081   .     S
C1127  N1175   1.367   .     A
C1128  N1176   1.367   .     A
C1128  H1162   1.081   .     S
C1128  C1196   1.416   .     S
C1129  O1184   1.295   .     A
C1129  O1186   1.294   .     A
C1129  C1131   1.462   .     S
C1130  C1133   1.460   .     S
C1130  O1187   1.293   .     A
C1130  O1185   1.296   .     A
C1131  C1138   1.398   .     A
C1131  C1136   1.400   .     A
C1132  O1181   1.282   .     A
C1132  O1183   1.282   .     A
C1133  C1137   1.400   .     A
C1133  C1139   1.393   .     A
C1134  C1142   1.403   .     A
C1134  H1172   1.083   .     S
C1134  C1136   1.391   .     A
C1135  H1173   1.084   .     S
C1135  C1144   1.405   .     A
C1135  C1137   1.396   .     A
C1136  H1171   1.083   .     S
C1137  H1170   1.082   .     S
C1138  C1140   1.399   .     A
C1138  H1169   1.080   .     S
C1139  C1141   1.395   .     A
C1139  H1168   1.082   .     S
C1140  C1142   1.415   .     A
C1140  C1145   1.421   .     A
C1141  C1146   1.416   .     A
C1141  C1144   1.412   .     A
C1142  C522    1.390   1_556 S
C1143  C1152   1.398   .     A
C1143  C1147   1.486   .     S
C1143  C1146   1.428   .     A
C1145  C1151   1.430   .     A
C1145  C516    1.415   1_556 S
C1147  O1188   1.221   .     D
C1147  H1163   1.085   .     S
C1148  O1178   1.222   .     D
C1148  C1151   1.481   .     S
C1148  H1164   1.083   .     S
C1149  C1156   1.485   .     S
C1149  H1165   1.084   .     S
C1149  O1179   1.221   .     D
C1150  O1180   1.222   .     D
C1150  H1166   1.084   .     S
C1151  C1153   1.402   .     A
C1152  H1157   1.082   .     S
C1153  H1167   1.085   .     S
C1153  C514    1.391   1_556 S
C1154  H1174   1.086   .     S
C1154  C736    1.377   1_565 S
C1155  H1158   1.085   .     S
N1175  Zn1189  2.012   .     S
N1176  Zn1190  2.012   .     S
O1177  Zn1189  1.993   .     S
O1181  Zn1190  1.993   .     S
O1182  Zn1190  1.990   .     S
O1183  Zn1189  1.990   .     S
O1184  Zn1189  1.953   .     S
O1185  Zn1190  1.953   .     S
O1186  Zn1190  1.916   .     S
O1187  Zn1189  1.916   .     S
C1191  C1194   1.413   .     S
C1191  O1252   1.282   .     A
C1191  O1247   1.282   .     A
C1192  C1194   1.407   .     A
C1192  C1220   1.489   .     S
C1192  C805    1.382   1_565 S
C1193  C1225   1.396   .     A
C1193  C1226   1.406   .     A
C1193  C1202   1.415   .     S
C1194  C1224   1.393   .     A
C1195  N1246   1.367   .     A
C1195  H1229   1.081   .     S
C1195  C1057   1.416   1_655 S
C1196  N1245   1.367   .     A
C1196  H1230   1.081   .     S
C1197  H1231   1.081   .     S
C1197  N1245   1.367   .     A
C1198  N1246   1.367   .     A
C1198  H1232   1.081   .     S
C1198  C1056   1.416   1_655 S
C1199  O1254   1.295   .     A
C1199  O1256   1.294   .     A
C1199  C1201   1.462   .     S
C1200  C1203   1.460   .     S
C1200  O1257   1.293   .     A
C1200  O1255   1.296   .     A
C1201  C1208   1.398   .     A
C1201  C1206   1.400   .     A
C1202  O1251   1.282   .     A
C1202  O1253   1.282   .     A
C1203  C1207   1.400   .     A
C1203  C1209   1.393   .     A
C1204  C1212   1.403   .     A
C1204  H1242   1.083   .     S
C1204  C1206   1.391   .     A
C1205  H1243   1.084   .     S
C1205  C1214   1.405   .     A
C1205  C1207   1.396   .     A
C1206  H1241   1.083   .     S
C1207  H1240   1.082   .     S
C1208  C1210   1.399   .     A
C1208  H1239   1.080   .     S
C1209  C1211   1.395   .     A
C1209  H1238   1.082   .     S
C1210  C1212   1.415   .     A
C1210  C1215   1.421   .     A
C1211  C1216   1.416   .     A
C1211  C1214   1.412   .     A
C1212  C592    1.390   1_556 S
C1213  C1222   1.398   .     A
C1213  C1217   1.486   .     S
C1213  C1216   1.428   .     A
C1215  C1221   1.430   .     A
C1215  C586    1.415   1_556 S
C1217  O1258   1.221   .     D
C1217  H1233   1.085   .     S
C1218  O1248   1.222   .     D
C1218  C1221   1.481   .     S
C1218  H1234   1.083   .     S
C1219  C1226   1.485   .     S
C1219  H1235   1.084   .     S
C1219  O1249   1.221   .     D
C1220  O1250   1.222   .     D
C1220  H1236   1.084   .     S
C1221  C1223   1.402   .     A
C1222  H1227   1.082   .     S
C1223  H1237   1.085   .     S
C1223  C584    1.391   1_556 S
C1224  H1244   1.086   .     S
C1224  C806    1.377   1_565 S
C1225  H1228   1.085   .     S
N1245  Zn1259  2.012   .     S
N1246  Zn1260  2.012   .     S
O1247  Zn1259  1.993   .     S
O1251  Zn1260  1.993   .     S
O1252  Zn1260  1.990   .     S
O1253  Zn1259  1.990   .     S
O1254  Zn1259  1.953   .     S
O1255  Zn1260  1.953   .     S
O1256  Zn1260  1.916   .     S
O1257  Zn1259  1.916   .     S
