data_str_m3_o10_o17_pcu_sym.177
_audit_creation_date              2020-01-03
_audit_creation_method            'Materials Studio'
_symmetry_space_group_name_H-M    'P1'
_symmetry_Int_Tables_number       1
_symmetry_cell_setting            triclinic
loop_
_symmetry_equiv_pos_as_xyz
  x,y,z
_cell_length_a                    23.3130
_cell_length_b                    25.6677
_cell_length_c                    29.8452
_cell_angle_alpha                 91.1520
_cell_angle_beta                  85.9267
_cell_angle_gamma                 93.7224
loop_
_atom_site_label
_atom_site_type_symbol
_atom_site_fract_x
_atom_site_fract_y
_atom_site_fract_z
_atom_site_U_iso_or_equiv
_atom_site_adp_type
_atom_site_occupancy
C1     C     0.18194   0.26491   0.24908   0.00000  Uiso   1.00
C2     C     0.15139   0.06842   0.25092   0.00000  Uiso   1.00
C3     C     0.21527   0.25402   0.47365   0.00000  Uiso   1.00
C4     C     0.11805   0.07932   0.02635   0.00000  Uiso   1.00
C5     C     0.18997   0.31943   0.24825   0.00000  Uiso   1.00
C6     C     0.14336   0.01391   0.25175   0.00000  Uiso   1.00
C7     C     0.16728   0.16580   0.33628   0.00000  Uiso   1.00
C8     C     0.16605   0.16754   0.16372   0.00000  Uiso   1.00
C9     C     0.14063   0.12676   0.09485   0.00000  Uiso   1.00
C10    C     0.19270   0.20658   0.40515   0.00000  Uiso   1.00
C11    C     0.16484   0.17027   0.11627   0.00000  Uiso   1.00
C12    C     0.16849   0.16306   0.38373   0.00000  Uiso   1.00
C13    C     0.18914   0.21413   0.09280   0.00000  Uiso   1.00
C14    C     0.14419   0.11920   0.40720   0.00000  Uiso   1.00
C15    C     0.18971   0.21270   0.04566   0.00000  Uiso   1.00
C16    C     0.14361   0.12064   0.45434   0.00000  Uiso   1.00
C17    C     0.16603   0.16758   0.02351   0.00000  Uiso   1.00
C18    C     0.16729   0.16576   0.47649   0.00000  Uiso   1.00
C19    C     0.14117   0.12428   0.04838   0.00000  Uiso   1.00
C20    C     0.19215   0.20906   0.45162   0.00000  Uiso   1.00
C21    C     0.21377   0.25521   0.02027   0.00000  Uiso   1.00
C22    C     0.11955   0.07813   0.47973   0.00000  Uiso   1.00
H23    H     0.12258   0.09438   0.11518   0.00000  Uiso   1.00
H24    H     0.21075   0.23895   0.38482   0.00000  Uiso   1.00
H25    H     0.23191   0.28995   0.03641   0.00000  Uiso   1.00
H26    H     0.10140   0.04339   0.46359   0.00000  Uiso   1.00
H27    H     0.23398   0.00314   0.24466   0.00000  Uiso   1.00
H28    H     0.09936   0.33019   0.25534   0.00000  Uiso   1.00
H29    H     0.00456   0.12754   0.21604   0.00000  Uiso   1.00
H30    H     0.32877   0.20579   0.28396   0.00000  Uiso   1.00
N31    N     0.31678   0.15265   0.23783   0.00000  Uiso   1.00
N32    N     0.01656   0.18068   0.26217   0.00000  Uiso   1.00
O33    O     0.12975   0.24619   0.25299   0.00000  Uiso   1.00
O34    O     0.20358   0.08714   0.24702   0.00000  Uiso   1.00
O35    O     0.22613   0.23721   0.24519   0.00000  Uiso   1.00
O36    O     0.10720   0.09613   0.25482   0.00000  Uiso   1.00
O37    O     0.11847   0.17117   0.31998   0.00000  Uiso   1.00
O38    O     0.21486   0.16216   0.18003   0.00000  Uiso   1.00
O39    O     0.21485   0.16219   0.31218   0.00000  Uiso   1.00
O40    O     0.11848   0.17115   0.18783   0.00000  Uiso   1.00
Zn41   Zn    0.10231   0.17266   0.25521   0.00000  Uiso   1.00
Zn42   Zn    0.23102   0.16067   0.24479   0.00000  Uiso   1.00
C43    C     0.21378   0.26196   0.11757   0.00000  Uiso   1.00
H44    H     0.19106   0.29680   0.10924   0.00000  Uiso   1.00
H45    H     0.20909   0.25894   0.15455   0.00000  Uiso   1.00
H46    H     0.26050   0.26846   0.10779   0.00000  Uiso   1.00
C47    C     0.11956   0.07137   0.38243   0.00000  Uiso   1.00
H48    H     0.14226   0.03654   0.39077   0.00000  Uiso   1.00
H49    H     0.07283   0.06488   0.39220   0.00000  Uiso   1.00
H50    H     0.12426   0.07438   0.34545   0.00000  Uiso   1.00
C51    C     0.24162   0.30125   0.44843   0.00000  Uiso   1.00
H52    H     0.25732   0.33281   0.47138   0.00000  Uiso   1.00
H53    H     0.27894   0.29006   0.42591   0.00000  Uiso   1.00
H54    H     0.20894   0.31751   0.42833   0.00000  Uiso   1.00
C55    C     0.09170   0.03209   0.05157   0.00000  Uiso   1.00
H56    H     0.07600   0.00053   0.02862   0.00000  Uiso   1.00
H57    H     0.12438   0.01583   0.07167   0.00000  Uiso   1.00
H58    H     0.05438   0.04328   0.07409   0.00000  Uiso   1.00
C59    C     0.51527   0.26491   0.24908   0.00000  Uiso   1.00
C60    C     0.48473   0.06842   0.25092   0.00000  Uiso   1.00
C61    C     0.54861   0.25402   0.47365   0.00000  Uiso   1.00
C62    C     0.45138   0.07932   0.02635   0.00000  Uiso   1.00
C63    C     0.52331   0.31943   0.24825   0.00000  Uiso   1.00
C64    C     0.47669   0.01391   0.25175   0.00000  Uiso   1.00
C65    C     0.50061   0.16580   0.33628   0.00000  Uiso   1.00
C66    C     0.49939   0.16754   0.16372   0.00000  Uiso   1.00
C67    C     0.47396   0.12676   0.09485   0.00000  Uiso   1.00
C68    C     0.52603   0.20658   0.40515   0.00000  Uiso   1.00
C69    C     0.49817   0.17027   0.11627   0.00000  Uiso   1.00
C70    C     0.50183   0.16306   0.38373   0.00000  Uiso   1.00
C71    C     0.52247   0.21413   0.09280   0.00000  Uiso   1.00
C72    C     0.47752   0.11920   0.40720   0.00000  Uiso   1.00
C73    C     0.52305   0.21270   0.04566   0.00000  Uiso   1.00
C74    C     0.47694   0.12064   0.45434   0.00000  Uiso   1.00
C75    C     0.49936   0.16758   0.02351   0.00000  Uiso   1.00
C76    C     0.50063   0.16576   0.47649   0.00000  Uiso   1.00
C77    C     0.47451   0.12428   0.04838   0.00000  Uiso   1.00
C78    C     0.52548   0.20906   0.45162   0.00000  Uiso   1.00
C79    C     0.54710   0.25521   0.02027   0.00000  Uiso   1.00
C80    C     0.45288   0.07813   0.47973   0.00000  Uiso   1.00
H81    H     0.45591   0.09438   0.11518   0.00000  Uiso   1.00
H82    H     0.54408   0.23895   0.38482   0.00000  Uiso   1.00
H83    H     0.56524   0.28995   0.03641   0.00000  Uiso   1.00
H84    H     0.43474   0.04339   0.46359   0.00000  Uiso   1.00
H85    H     0.56731   0.00314   0.24466   0.00000  Uiso   1.00
H86    H     0.43269   0.33019   0.25534   0.00000  Uiso   1.00
H87    H     0.33790   0.12754   0.21604   0.00000  Uiso   1.00
H88    H     0.66210   0.20579   0.28396   0.00000  Uiso   1.00
N89    N     0.65011   0.15265   0.23783   0.00000  Uiso   1.00
N90    N     0.34989   0.18068   0.26217   0.00000  Uiso   1.00
O91    O     0.46308   0.24619   0.25299   0.00000  Uiso   1.00
O92    O     0.53692   0.08714   0.24702   0.00000  Uiso   1.00
O93    O     0.55946   0.23721   0.24519   0.00000  Uiso   1.00
O94    O     0.44054   0.09613   0.25482   0.00000  Uiso   1.00
O95    O     0.45181   0.17117   0.31998   0.00000  Uiso   1.00
O96    O     0.54819   0.16216   0.18003   0.00000  Uiso   1.00
O97    O     0.54819   0.16219   0.31218   0.00000  Uiso   1.00
O98    O     0.45181   0.17115   0.18783   0.00000  Uiso   1.00
Zn99   Zn    0.43565   0.17266   0.25521   0.00000  Uiso   1.00
Zn100  Zn    0.56435   0.16067   0.24479   0.00000  Uiso   1.00
C101   C     0.54711   0.26196   0.11757   0.00000  Uiso   1.00
H102   H     0.52440   0.29680   0.10924   0.00000  Uiso   1.00
H103   H     0.54243   0.25894   0.15455   0.00000  Uiso   1.00
H104   H     0.59384   0.26846   0.10779   0.00000  Uiso   1.00
C105   C     0.45289   0.07137   0.38243   0.00000  Uiso   1.00
H106   H     0.47559   0.03654   0.39077   0.00000  Uiso   1.00
H107   H     0.40616   0.06488   0.39220   0.00000  Uiso   1.00
H108   H     0.45760   0.07438   0.34545   0.00000  Uiso   1.00
C109   C     0.57495   0.30125   0.44843   0.00000  Uiso   1.00
H110   H     0.59065   0.33281   0.47138   0.00000  Uiso   1.00
H111   H     0.61228   0.29006   0.42591   0.00000  Uiso   1.00
H112   H     0.54227   0.31751   0.42833   0.00000  Uiso   1.00
C113   C     0.42503   0.03209   0.05157   0.00000  Uiso   1.00
H114   H     0.40933   0.00053   0.02862   0.00000  Uiso   1.00
H115   H     0.45771   0.01583   0.07167   0.00000  Uiso   1.00
H116   H     0.38771   0.04328   0.07409   0.00000  Uiso   1.00
C117   C     0.84861   0.26491   0.24908   0.00000  Uiso   1.00
C118   C     0.81806   0.06842   0.25092   0.00000  Uiso   1.00
C119   C     0.88194   0.25402   0.47365   0.00000  Uiso   1.00
C120   C     0.78471   0.07932   0.02635   0.00000  Uiso   1.00
C121   C     0.85664   0.31943   0.24825   0.00000  Uiso   1.00
C122   C     0.81003   0.01391   0.25175   0.00000  Uiso   1.00
C123   C     0.83395   0.16580   0.33628   0.00000  Uiso   1.00
C124   C     0.83272   0.16754   0.16372   0.00000  Uiso   1.00
C125   C     0.80729   0.12676   0.09485   0.00000  Uiso   1.00
C126   C     0.85937   0.20658   0.40515   0.00000  Uiso   1.00
C127   C     0.83151   0.17027   0.11627   0.00000  Uiso   1.00
C128   C     0.83516   0.16306   0.38373   0.00000  Uiso   1.00
C129   C     0.85581   0.21413   0.09280   0.00000  Uiso   1.00
C130   C     0.81086   0.11920   0.40720   0.00000  Uiso   1.00
C131   C     0.85638   0.21270   0.04566   0.00000  Uiso   1.00
C132   C     0.81028   0.12064   0.45434   0.00000  Uiso   1.00
C133   C     0.83269   0.16758   0.02351   0.00000  Uiso   1.00
C134   C     0.83396   0.16576   0.47649   0.00000  Uiso   1.00
C135   C     0.80784   0.12428   0.04838   0.00000  Uiso   1.00
C136   C     0.85882   0.20906   0.45162   0.00000  Uiso   1.00
C137   C     0.88043   0.25521   0.02027   0.00000  Uiso   1.00
C138   C     0.78622   0.07813   0.47973   0.00000  Uiso   1.00
H139   H     0.78925   0.09438   0.11518   0.00000  Uiso   1.00
H140   H     0.87742   0.23895   0.38482   0.00000  Uiso   1.00
H141   H     0.89857   0.28995   0.03641   0.00000  Uiso   1.00
H142   H     0.76807   0.04339   0.46359   0.00000  Uiso   1.00
H143   H     0.90064   0.00314   0.24466   0.00000  Uiso   1.00
H144   H     0.76602   0.33019   0.25534   0.00000  Uiso   1.00
H145   H     0.67123   0.12754   0.21604   0.00000  Uiso   1.00
H146   H     0.99544   0.20579   0.28396   0.00000  Uiso   1.00
N147   N     0.98344   0.15265   0.23783   0.00000  Uiso   1.00
N148   N     0.68322   0.18068   0.26217   0.00000  Uiso   1.00
O149   O     0.79642   0.24619   0.25299   0.00000  Uiso   1.00
O150   O     0.87025   0.08714   0.24702   0.00000  Uiso   1.00
O151   O     0.89280   0.23721   0.24519   0.00000  Uiso   1.00
O152   O     0.77387   0.09613   0.25482   0.00000  Uiso   1.00
O153   O     0.78514   0.17117   0.31998   0.00000  Uiso   1.00
O154   O     0.88153   0.16216   0.18003   0.00000  Uiso   1.00
O155   O     0.88152   0.16219   0.31218   0.00000  Uiso   1.00
O156   O     0.78515   0.17115   0.18783   0.00000  Uiso   1.00
Zn157  Zn    0.76898   0.17266   0.25521   0.00000  Uiso   1.00
Zn158  Zn    0.89769   0.16067   0.24479   0.00000  Uiso   1.00
C159   C     0.88044   0.26196   0.11757   0.00000  Uiso   1.00
H160   H     0.85773   0.29680   0.10924   0.00000  Uiso   1.00
H161   H     0.87576   0.25894   0.15455   0.00000  Uiso   1.00
H162   H     0.92717   0.26846   0.10779   0.00000  Uiso   1.00
C163   C     0.78622   0.07137   0.38243   0.00000  Uiso   1.00
H164   H     0.80893   0.03654   0.39077   0.00000  Uiso   1.00
H165   H     0.73949   0.06488   0.39220   0.00000  Uiso   1.00
H166   H     0.79093   0.07438   0.34545   0.00000  Uiso   1.00
C167   C     0.90829   0.30125   0.44843   0.00000  Uiso   1.00
H168   H     0.92398   0.33281   0.47138   0.00000  Uiso   1.00
H169   H     0.94561   0.29006   0.42591   0.00000  Uiso   1.00
H170   H     0.87561   0.31751   0.42833   0.00000  Uiso   1.00
C171   C     0.75837   0.03209   0.05157   0.00000  Uiso   1.00
H172   H     0.74267   0.00053   0.02862   0.00000  Uiso   1.00
H173   H     0.79105   0.01583   0.07167   0.00000  Uiso   1.00
H174   H     0.72105   0.04328   0.07409   0.00000  Uiso   1.00
C175   C     0.18194   0.59824   0.24908   0.00000  Uiso   1.00
C176   C     0.15139   0.40176   0.25092   0.00000  Uiso   1.00
C177   C     0.21527   0.58736   0.47365   0.00000  Uiso   1.00
C178   C     0.11805   0.41265   0.02635   0.00000  Uiso   1.00
C179   C     0.18997   0.65276   0.24825   0.00000  Uiso   1.00
C180   C     0.14336   0.34724   0.25175   0.00000  Uiso   1.00
C181   C     0.16728   0.49913   0.33628   0.00000  Uiso   1.00
C182   C     0.16605   0.50087   0.16372   0.00000  Uiso   1.00
C183   C     0.14063   0.46009   0.09485   0.00000  Uiso   1.00
C184   C     0.19270   0.53991   0.40515   0.00000  Uiso   1.00
C185   C     0.16484   0.50361   0.11627   0.00000  Uiso   1.00
C186   C     0.16849   0.49639   0.38373   0.00000  Uiso   1.00
C187   C     0.18914   0.54747   0.09280   0.00000  Uiso   1.00
C188   C     0.14419   0.45254   0.40720   0.00000  Uiso   1.00
C189   C     0.18971   0.54603   0.04566   0.00000  Uiso   1.00
C190   C     0.14361   0.45398   0.45434   0.00000  Uiso   1.00
C191   C     0.16603   0.50091   0.02351   0.00000  Uiso   1.00
C192   C     0.16729   0.49909   0.47649   0.00000  Uiso   1.00
C193   C     0.14117   0.45761   0.04838   0.00000  Uiso   1.00
C194   C     0.19215   0.54239   0.45162   0.00000  Uiso   1.00
C195   C     0.21377   0.58855   0.02027   0.00000  Uiso   1.00
C196   C     0.11955   0.41146   0.47973   0.00000  Uiso   1.00
H197   H     0.12258   0.42771   0.11518   0.00000  Uiso   1.00
H198   H     0.21075   0.57229   0.38482   0.00000  Uiso   1.00
H199   H     0.23191   0.62329   0.03641   0.00000  Uiso   1.00
H200   H     0.10140   0.37672   0.46359   0.00000  Uiso   1.00
H201   H     0.23398   0.33648   0.24466   0.00000  Uiso   1.00
H202   H     0.09936   0.66352   0.25534   0.00000  Uiso   1.00
H203   H     0.00456   0.46088   0.21604   0.00000  Uiso   1.00
H204   H     0.32877   0.53913   0.28396   0.00000  Uiso   1.00
N205   N     0.31678   0.48598   0.23783   0.00000  Uiso   1.00
N206   N     0.01656   0.51402   0.26217   0.00000  Uiso   1.00
O207   O     0.12975   0.57952   0.25299   0.00000  Uiso   1.00
O208   O     0.20358   0.42048   0.24702   0.00000  Uiso   1.00
O209   O     0.22613   0.57054   0.24519   0.00000  Uiso   1.00
O210   O     0.10720   0.42946   0.25482   0.00000  Uiso   1.00
O211   O     0.11847   0.50450   0.31998   0.00000  Uiso   1.00
O212   O     0.21486   0.49550   0.18003   0.00000  Uiso   1.00
O213   O     0.21485   0.49552   0.31218   0.00000  Uiso   1.00
O214   O     0.11848   0.50448   0.18783   0.00000  Uiso   1.00
Zn215  Zn    0.10231   0.50600   0.25521   0.00000  Uiso   1.00
Zn216  Zn    0.23102   0.49400   0.24479   0.00000  Uiso   1.00
C217   C     0.21378   0.59530   0.11757   0.00000  Uiso   1.00
H218   H     0.19106   0.63013   0.10924   0.00000  Uiso   1.00
H219   H     0.20909   0.59228   0.15455   0.00000  Uiso   1.00
H220   H     0.26050   0.60179   0.10779   0.00000  Uiso   1.00
C221   C     0.11956   0.40471   0.38243   0.00000  Uiso   1.00
H222   H     0.14226   0.36987   0.39077   0.00000  Uiso   1.00
H223   H     0.07283   0.39822   0.39220   0.00000  Uiso   1.00
H224   H     0.12426   0.40771   0.34545   0.00000  Uiso   1.00
C225   C     0.24162   0.63458   0.44843   0.00000  Uiso   1.00
H226   H     0.25732   0.66614   0.47138   0.00000  Uiso   1.00
H227   H     0.27894   0.62339   0.42591   0.00000  Uiso   1.00
H228   H     0.20894   0.65084   0.42833   0.00000  Uiso   1.00
C229   C     0.09170   0.36543   0.05157   0.00000  Uiso   1.00
H230   H     0.07600   0.33386   0.02862   0.00000  Uiso   1.00
H231   H     0.12438   0.34916   0.07167   0.00000  Uiso   1.00
H232   H     0.05438   0.37662   0.07409   0.00000  Uiso   1.00
C233   C     0.51527   0.59824   0.24908   0.00000  Uiso   1.00
C234   C     0.48473   0.40176   0.25092   0.00000  Uiso   1.00
C235   C     0.54861   0.58736   0.47365   0.00000  Uiso   1.00
C236   C     0.45138   0.41265   0.02635   0.00000  Uiso   1.00
C237   C     0.52331   0.65276   0.24825   0.00000  Uiso   1.00
C238   C     0.47669   0.34724   0.25175   0.00000  Uiso   1.00
C239   C     0.50061   0.49913   0.33628   0.00000  Uiso   1.00
C240   C     0.49939   0.50087   0.16372   0.00000  Uiso   1.00
C241   C     0.47396   0.46009   0.09485   0.00000  Uiso   1.00
C242   C     0.52603   0.53991   0.40515   0.00000  Uiso   1.00
C243   C     0.49817   0.50361   0.11627   0.00000  Uiso   1.00
C244   C     0.50183   0.49639   0.38373   0.00000  Uiso   1.00
C245   C     0.52247   0.54747   0.09280   0.00000  Uiso   1.00
C246   C     0.47752   0.45254   0.40720   0.00000  Uiso   1.00
C247   C     0.52305   0.54603   0.04566   0.00000  Uiso   1.00
C248   C     0.47694   0.45398   0.45434   0.00000  Uiso   1.00
C249   C     0.49936   0.50091   0.02351   0.00000  Uiso   1.00
C250   C     0.50063   0.49909   0.47649   0.00000  Uiso   1.00
C251   C     0.47451   0.45761   0.04838   0.00000  Uiso   1.00
C252   C     0.52548   0.54239   0.45162   0.00000  Uiso   1.00
C253   C     0.54710   0.58855   0.02027   0.00000  Uiso   1.00
C254   C     0.45288   0.41146   0.47973   0.00000  Uiso   1.00
H255   H     0.45591   0.42771   0.11518   0.00000  Uiso   1.00
H256   H     0.54408   0.57229   0.38482   0.00000  Uiso   1.00
H257   H     0.56524   0.62329   0.03641   0.00000  Uiso   1.00
H258   H     0.43474   0.37672   0.46359   0.00000  Uiso   1.00
H259   H     0.56731   0.33648   0.24466   0.00000  Uiso   1.00
H260   H     0.43269   0.66352   0.25534   0.00000  Uiso   1.00
H261   H     0.33790   0.46088   0.21604   0.00000  Uiso   1.00
H262   H     0.66210   0.53913   0.28396   0.00000  Uiso   1.00
N263   N     0.65011   0.48598   0.23783   0.00000  Uiso   1.00
N264   N     0.34989   0.51402   0.26217   0.00000  Uiso   1.00
O265   O     0.46308   0.57952   0.25299   0.00000  Uiso   1.00
O266   O     0.53692   0.42048   0.24702   0.00000  Uiso   1.00
O267   O     0.55946   0.57054   0.24519   0.00000  Uiso   1.00
O268   O     0.44054   0.42946   0.25482   0.00000  Uiso   1.00
O269   O     0.45181   0.50450   0.31998   0.00000  Uiso   1.00
O270   O     0.54819   0.49550   0.18003   0.00000  Uiso   1.00
O271   O     0.54819   0.49552   0.31218   0.00000  Uiso   1.00
O272   O     0.45181   0.50448   0.18783   0.00000  Uiso   1.00
Zn273  Zn    0.43565   0.50600   0.25521   0.00000  Uiso   1.00
Zn274  Zn    0.56435   0.49400   0.24479   0.00000  Uiso   1.00
C275   C     0.54711   0.59530   0.11757   0.00000  Uiso   1.00
H276   H     0.52440   0.63013   0.10924   0.00000  Uiso   1.00
H277   H     0.54243   0.59228   0.15455   0.00000  Uiso   1.00
H278   H     0.59384   0.60179   0.10779   0.00000  Uiso   1.00
C279   C     0.45289   0.40471   0.38243   0.00000  Uiso   1.00
H280   H     0.47559   0.36987   0.39077   0.00000  Uiso   1.00
H281   H     0.40616   0.39822   0.39220   0.00000  Uiso   1.00
H282   H     0.45760   0.40771   0.34545   0.00000  Uiso   1.00
C283   C     0.57495   0.63458   0.44843   0.00000  Uiso   1.00
H284   H     0.59065   0.66614   0.47138   0.00000  Uiso   1.00
H285   H     0.61228   0.62339   0.42591   0.00000  Uiso   1.00
H286   H     0.54227   0.65084   0.42833   0.00000  Uiso   1.00
C287   C     0.42503   0.36543   0.05157   0.00000  Uiso   1.00
H288   H     0.40933   0.33386   0.02862   0.00000  Uiso   1.00
H289   H     0.45771   0.34916   0.07167   0.00000  Uiso   1.00
H290   H     0.38771   0.37662   0.07409   0.00000  Uiso   1.00
C291   C     0.84861   0.59824   0.24908   0.00000  Uiso   1.00
C292   C     0.81806   0.40176   0.25092   0.00000  Uiso   1.00
C293   C     0.88194   0.58736   0.47365   0.00000  Uiso   1.00
C294   C     0.78471   0.41265   0.02635   0.00000  Uiso   1.00
C295   C     0.85664   0.65276   0.24825   0.00000  Uiso   1.00
C296   C     0.81003   0.34724   0.25175   0.00000  Uiso   1.00
C297   C     0.83395   0.49913   0.33628   0.00000  Uiso   1.00
C298   C     0.83272   0.50087   0.16372   0.00000  Uiso   1.00
C299   C     0.80729   0.46009   0.09485   0.00000  Uiso   1.00
C300   C     0.85937   0.53991   0.40515   0.00000  Uiso   1.00
C301   C     0.83151   0.50361   0.11627   0.00000  Uiso   1.00
C302   C     0.83516   0.49639   0.38373   0.00000  Uiso   1.00
C303   C     0.85581   0.54747   0.09280   0.00000  Uiso   1.00
C304   C     0.81086   0.45254   0.40720   0.00000  Uiso   1.00
C305   C     0.85638   0.54603   0.04566   0.00000  Uiso   1.00
C306   C     0.81028   0.45398   0.45434   0.00000  Uiso   1.00
C307   C     0.83269   0.50091   0.02351   0.00000  Uiso   1.00
C308   C     0.83396   0.49909   0.47649   0.00000  Uiso   1.00
C309   C     0.80784   0.45761   0.04838   0.00000  Uiso   1.00
C310   C     0.85882   0.54239   0.45162   0.00000  Uiso   1.00
C311   C     0.88043   0.58855   0.02027   0.00000  Uiso   1.00
C312   C     0.78622   0.41146   0.47973   0.00000  Uiso   1.00
H313   H     0.78925   0.42771   0.11518   0.00000  Uiso   1.00
H314   H     0.87742   0.57229   0.38482   0.00000  Uiso   1.00
H315   H     0.89857   0.62329   0.03641   0.00000  Uiso   1.00
H316   H     0.76807   0.37672   0.46359   0.00000  Uiso   1.00
H317   H     0.90064   0.33648   0.24466   0.00000  Uiso   1.00
H318   H     0.76602   0.66352   0.25534   0.00000  Uiso   1.00
H319   H     0.67123   0.46088   0.21604   0.00000  Uiso   1.00
H320   H     0.99544   0.53913   0.28396   0.00000  Uiso   1.00
N321   N     0.98344   0.48598   0.23783   0.00000  Uiso   1.00
N322   N     0.68322   0.51402   0.26217   0.00000  Uiso   1.00
O323   O     0.79642   0.57952   0.25299   0.00000  Uiso   1.00
O324   O     0.87025   0.42048   0.24702   0.00000  Uiso   1.00
O325   O     0.89280   0.57054   0.24519   0.00000  Uiso   1.00
O326   O     0.77387   0.42946   0.25482   0.00000  Uiso   1.00
O327   O     0.78514   0.50450   0.31998   0.00000  Uiso   1.00
O328   O     0.88153   0.49550   0.18003   0.00000  Uiso   1.00
O329   O     0.88152   0.49552   0.31218   0.00000  Uiso   1.00
O330   O     0.78515   0.50448   0.18783   0.00000  Uiso   1.00
Zn331  Zn    0.76898   0.50600   0.25521   0.00000  Uiso   1.00
Zn332  Zn    0.89769   0.49400   0.24479   0.00000  Uiso   1.00
C333   C     0.88044   0.59530   0.11757   0.00000  Uiso   1.00
H334   H     0.85773   0.63013   0.10924   0.00000  Uiso   1.00
H335   H     0.87576   0.59228   0.15455   0.00000  Uiso   1.00
H336   H     0.92717   0.60179   0.10779   0.00000  Uiso   1.00
C337   C     0.78622   0.40471   0.38243   0.00000  Uiso   1.00
H338   H     0.80893   0.36987   0.39077   0.00000  Uiso   1.00
H339   H     0.73949   0.39822   0.39220   0.00000  Uiso   1.00
H340   H     0.79093   0.40771   0.34545   0.00000  Uiso   1.00
C341   C     0.90829   0.63458   0.44843   0.00000  Uiso   1.00
H342   H     0.92398   0.66614   0.47138   0.00000  Uiso   1.00
H343   H     0.94561   0.62339   0.42591   0.00000  Uiso   1.00
H344   H     0.87561   0.65084   0.42833   0.00000  Uiso   1.00
C345   C     0.75837   0.36543   0.05157   0.00000  Uiso   1.00
H346   H     0.74267   0.33386   0.02862   0.00000  Uiso   1.00
H347   H     0.79105   0.34916   0.07167   0.00000  Uiso   1.00
H348   H     0.72105   0.37662   0.07409   0.00000  Uiso   1.00
C349   C     0.18194   0.93158   0.24908   0.00000  Uiso   1.00
C350   C     0.15139   0.73509   0.25092   0.00000  Uiso   1.00
C351   C     0.21527   0.92069   0.47365   0.00000  Uiso   1.00
C352   C     0.11805   0.74598   0.02635   0.00000  Uiso   1.00
C353   C     0.18997   0.98609   0.24825   0.00000  Uiso   1.00
C354   C     0.14336   0.68057   0.25175   0.00000  Uiso   1.00
C355   C     0.16728   0.83247   0.33628   0.00000  Uiso   1.00
C356   C     0.16605   0.83420   0.16372   0.00000  Uiso   1.00
C357   C     0.14063   0.79342   0.09485   0.00000  Uiso   1.00
C358   C     0.19270   0.87325   0.40515   0.00000  Uiso   1.00
C359   C     0.16484   0.83694   0.11627   0.00000  Uiso   1.00
C360   C     0.16849   0.82973   0.38373   0.00000  Uiso   1.00
C361   C     0.18914   0.88080   0.09280   0.00000  Uiso   1.00
C362   C     0.14419   0.78587   0.40720   0.00000  Uiso   1.00
C363   C     0.18971   0.87936   0.04566   0.00000  Uiso   1.00
C364   C     0.14361   0.78731   0.45434   0.00000  Uiso   1.00
C365   C     0.16603   0.83425   0.02351   0.00000  Uiso   1.00
C366   C     0.16729   0.83242   0.47649   0.00000  Uiso   1.00
C367   C     0.14117   0.79094   0.04838   0.00000  Uiso   1.00
C368   C     0.19215   0.87573   0.45162   0.00000  Uiso   1.00
C369   C     0.21377   0.92188   0.02027   0.00000  Uiso   1.00
C370   C     0.11955   0.74479   0.47973   0.00000  Uiso   1.00
H371   H     0.12258   0.76105   0.11518   0.00000  Uiso   1.00
H372   H     0.21075   0.90562   0.38482   0.00000  Uiso   1.00
H373   H     0.23191   0.95662   0.03641   0.00000  Uiso   1.00
H374   H     0.10140   0.71006   0.46359   0.00000  Uiso   1.00
H375   H     0.23398   0.66981   0.24466   0.00000  Uiso   1.00
H376   H     0.09936   0.99686   0.25534   0.00000  Uiso   1.00
H377   H     0.00456   0.79421   0.21604   0.00000  Uiso   1.00
H378   H     0.32877   0.87246   0.28396   0.00000  Uiso   1.00
N379   N     0.31678   0.81932   0.23783   0.00000  Uiso   1.00
N380   N     0.01656   0.84735   0.26217   0.00000  Uiso   1.00
O381   O     0.12975   0.91286   0.25299   0.00000  Uiso   1.00
O382   O     0.20358   0.75381   0.24702   0.00000  Uiso   1.00
O383   O     0.22613   0.90387   0.24519   0.00000  Uiso   1.00
O384   O     0.10720   0.76279   0.25482   0.00000  Uiso   1.00
O385   O     0.11847   0.83784   0.31998   0.00000  Uiso   1.00
O386   O     0.21486   0.82883   0.18003   0.00000  Uiso   1.00
O387   O     0.21485   0.82885   0.31218   0.00000  Uiso   1.00
O388   O     0.11848   0.83781   0.18783   0.00000  Uiso   1.00
Zn389  Zn    0.10231   0.83933   0.25521   0.00000  Uiso   1.00
Zn390  Zn    0.23102   0.82734   0.24479   0.00000  Uiso   1.00
C391   C     0.21378   0.92863   0.11757   0.00000  Uiso   1.00
H392   H     0.19106   0.96346   0.10924   0.00000  Uiso   1.00
H393   H     0.20909   0.92561   0.15455   0.00000  Uiso   1.00
H394   H     0.26050   0.93513   0.10779   0.00000  Uiso   1.00
C395   C     0.11956   0.73804   0.38243   0.00000  Uiso   1.00
H396   H     0.14226   0.70320   0.39077   0.00000  Uiso   1.00
H397   H     0.07283   0.73155   0.39220   0.00000  Uiso   1.00
H398   H     0.12426   0.74105   0.34545   0.00000  Uiso   1.00
C399   C     0.24162   0.96791   0.44843   0.00000  Uiso   1.00
H400   H     0.25732   0.99948   0.47138   0.00000  Uiso   1.00
H401   H     0.27894   0.95672   0.42591   0.00000  Uiso   1.00
H402   H     0.20894   0.98418   0.42833   0.00000  Uiso   1.00
C403   C     0.09170   0.69876   0.05157   0.00000  Uiso   1.00
H404   H     0.07600   0.66720   0.02862   0.00000  Uiso   1.00
H405   H     0.12438   0.68249   0.07167   0.00000  Uiso   1.00
H406   H     0.05438   0.70995   0.07409   0.00000  Uiso   1.00
C407   C     0.51527   0.93158   0.24908   0.00000  Uiso   1.00
C408   C     0.48473   0.73509   0.25092   0.00000  Uiso   1.00
C409   C     0.54861   0.92069   0.47365   0.00000  Uiso   1.00
C410   C     0.45138   0.74598   0.02635   0.00000  Uiso   1.00
C411   C     0.52331   0.98609   0.24825   0.00000  Uiso   1.00
C412   C     0.47669   0.68057   0.25175   0.00000  Uiso   1.00
C413   C     0.50061   0.83247   0.33628   0.00000  Uiso   1.00
C414   C     0.49939   0.83420   0.16372   0.00000  Uiso   1.00
C415   C     0.47396   0.79342   0.09485   0.00000  Uiso   1.00
C416   C     0.52603   0.87325   0.40515   0.00000  Uiso   1.00
C417   C     0.49817   0.83694   0.11627   0.00000  Uiso   1.00
C418   C     0.50183   0.82973   0.38373   0.00000  Uiso   1.00
C419   C     0.52247   0.88080   0.09280   0.00000  Uiso   1.00
C420   C     0.47752   0.78587   0.40720   0.00000  Uiso   1.00
C421   C     0.52305   0.87936   0.04566   0.00000  Uiso   1.00
C422   C     0.47694   0.78731   0.45434   0.00000  Uiso   1.00
C423   C     0.49936   0.83425   0.02351   0.00000  Uiso   1.00
C424   C     0.50063   0.83242   0.47649   0.00000  Uiso   1.00
C425   C     0.47451   0.79094   0.04838   0.00000  Uiso   1.00
C426   C     0.52548   0.87573   0.45162   0.00000  Uiso   1.00
C427   C     0.54710   0.92188   0.02027   0.00000  Uiso   1.00
C428   C     0.45288   0.74479   0.47973   0.00000  Uiso   1.00
H429   H     0.45591   0.76105   0.11518   0.00000  Uiso   1.00
H430   H     0.54408   0.90562   0.38482   0.00000  Uiso   1.00
H431   H     0.56524   0.95662   0.03641   0.00000  Uiso   1.00
H432   H     0.43474   0.71006   0.46359   0.00000  Uiso   1.00
H433   H     0.56731   0.66981   0.24466   0.00000  Uiso   1.00
H434   H     0.43269   0.99686   0.25534   0.00000  Uiso   1.00
H435   H     0.33790   0.79421   0.21604   0.00000  Uiso   1.00
H436   H     0.66210   0.87246   0.28396   0.00000  Uiso   1.00
N437   N     0.65011   0.81932   0.23783   0.00000  Uiso   1.00
N438   N     0.34989   0.84735   0.26217   0.00000  Uiso   1.00
O439   O     0.46308   0.91286   0.25299   0.00000  Uiso   1.00
O440   O     0.53692   0.75381   0.24702   0.00000  Uiso   1.00
O441   O     0.55946   0.90387   0.24519   0.00000  Uiso   1.00
O442   O     0.44054   0.76279   0.25482   0.00000  Uiso   1.00
O443   O     0.45181   0.83784   0.31998   0.00000  Uiso   1.00
O444   O     0.54819   0.82883   0.18003   0.00000  Uiso   1.00
O445   O     0.54819   0.82885   0.31218   0.00000  Uiso   1.00
O446   O     0.45181   0.83781   0.18783   0.00000  Uiso   1.00
Zn447  Zn    0.43565   0.83933   0.25521   0.00000  Uiso   1.00
Zn448  Zn    0.56435   0.82734   0.24479   0.00000  Uiso   1.00
C449   C     0.54711   0.92863   0.11757   0.00000  Uiso   1.00
H450   H     0.52440   0.96346   0.10924   0.00000  Uiso   1.00
H451   H     0.54243   0.92561   0.15455   0.00000  Uiso   1.00
H452   H     0.59384   0.93513   0.10779   0.00000  Uiso   1.00
C453   C     0.45289   0.73804   0.38243   0.00000  Uiso   1.00
H454   H     0.47559   0.70320   0.39077   0.00000  Uiso   1.00
H455   H     0.40616   0.73155   0.39220   0.00000  Uiso   1.00
H456   H     0.45760   0.74105   0.34545   0.00000  Uiso   1.00
C457   C     0.57495   0.96791   0.44843   0.00000  Uiso   1.00
H458   H     0.59065   0.99948   0.47138   0.00000  Uiso   1.00
H459   H     0.61228   0.95672   0.42591   0.00000  Uiso   1.00
H460   H     0.54227   0.98418   0.42833   0.00000  Uiso   1.00
C461   C     0.42503   0.69876   0.05157   0.00000  Uiso   1.00
H462   H     0.40933   0.66720   0.02862   0.00000  Uiso   1.00
H463   H     0.45771   0.68249   0.07167   0.00000  Uiso   1.00
H464   H     0.38771   0.70995   0.07409   0.00000  Uiso   1.00
C465   C     0.84861   0.93158   0.24908   0.00000  Uiso   1.00
C466   C     0.81806   0.73509   0.25092   0.00000  Uiso   1.00
C467   C     0.88194   0.92069   0.47365   0.00000  Uiso   1.00
C468   C     0.78471   0.74598   0.02635   0.00000  Uiso   1.00
C469   C     0.85664   0.98609   0.24825   0.00000  Uiso   1.00
C470   C     0.81003   0.68057   0.25175   0.00000  Uiso   1.00
C471   C     0.83395   0.83247   0.33628   0.00000  Uiso   1.00
C472   C     0.83272   0.83420   0.16372   0.00000  Uiso   1.00
C473   C     0.80729   0.79342   0.09485   0.00000  Uiso   1.00
C474   C     0.85937   0.87325   0.40515   0.00000  Uiso   1.00
C475   C     0.83151   0.83694   0.11627   0.00000  Uiso   1.00
C476   C     0.83516   0.82973   0.38373   0.00000  Uiso   1.00
C477   C     0.85581   0.88080   0.09280   0.00000  Uiso   1.00
C478   C     0.81086   0.78587   0.40720   0.00000  Uiso   1.00
C479   C     0.85638   0.87936   0.04566   0.00000  Uiso   1.00
C480   C     0.81028   0.78731   0.45434   0.00000  Uiso   1.00
C481   C     0.83269   0.83425   0.02351   0.00000  Uiso   1.00
C482   C     0.83396   0.83242   0.47649   0.00000  Uiso   1.00
C483   C     0.80784   0.79094   0.04838   0.00000  Uiso   1.00
C484   C     0.85882   0.87573   0.45162   0.00000  Uiso   1.00
C485   C     0.88043   0.92188   0.02027   0.00000  Uiso   1.00
C486   C     0.78622   0.74479   0.47973   0.00000  Uiso   1.00
H487   H     0.78925   0.76105   0.11518   0.00000  Uiso   1.00
H488   H     0.87742   0.90562   0.38482   0.00000  Uiso   1.00
H489   H     0.89857   0.95662   0.03641   0.00000  Uiso   1.00
H490   H     0.76807   0.71006   0.46359   0.00000  Uiso   1.00
H491   H     0.90064   0.66981   0.24466   0.00000  Uiso   1.00
H492   H     0.76602   0.99686   0.25534   0.00000  Uiso   1.00
H493   H     0.67123   0.79421   0.21604   0.00000  Uiso   1.00
H494   H     0.99544   0.87246   0.28396   0.00000  Uiso   1.00
N495   N     0.98344   0.81932   0.23783   0.00000  Uiso   1.00
N496   N     0.68322   0.84735   0.26217   0.00000  Uiso   1.00
O497   O     0.79642   0.91286   0.25299   0.00000  Uiso   1.00
O498   O     0.87025   0.75381   0.24702   0.00000  Uiso   1.00
O499   O     0.89280   0.90387   0.24519   0.00000  Uiso   1.00
O500   O     0.77387   0.76279   0.25482   0.00000  Uiso   1.00
O501   O     0.78514   0.83784   0.31998   0.00000  Uiso   1.00
O502   O     0.88153   0.82883   0.18003   0.00000  Uiso   1.00
O503   O     0.88152   0.82885   0.31218   0.00000  Uiso   1.00
O504   O     0.78515   0.83781   0.18783   0.00000  Uiso   1.00
Zn505  Zn    0.76898   0.83933   0.25521   0.00000  Uiso   1.00
Zn506  Zn    0.89769   0.82734   0.24479   0.00000  Uiso   1.00
C507   C     0.88044   0.92863   0.11757   0.00000  Uiso   1.00
H508   H     0.85773   0.96346   0.10924   0.00000  Uiso   1.00
H509   H     0.87576   0.92561   0.15455   0.00000  Uiso   1.00
H510   H     0.92717   0.93513   0.10779   0.00000  Uiso   1.00
C511   C     0.78622   0.73804   0.38243   0.00000  Uiso   1.00
H512   H     0.80893   0.70320   0.39077   0.00000  Uiso   1.00
H513   H     0.73949   0.73155   0.39220   0.00000  Uiso   1.00
H514   H     0.79093   0.74105   0.34545   0.00000  Uiso   1.00
C515   C     0.90829   0.96791   0.44843   0.00000  Uiso   1.00
H516   H     0.92398   0.99948   0.47138   0.00000  Uiso   1.00
H517   H     0.94561   0.95672   0.42591   0.00000  Uiso   1.00
H518   H     0.87561   0.98418   0.42833   0.00000  Uiso   1.00
C519   C     0.75837   0.69876   0.05157   0.00000  Uiso   1.00
H520   H     0.74267   0.66720   0.02862   0.00000  Uiso   1.00
H521   H     0.79105   0.68249   0.07167   0.00000  Uiso   1.00
H522   H     0.72105   0.70995   0.07409   0.00000  Uiso   1.00
C523   C     0.18194   0.26491   0.74908   0.00000  Uiso   1.00
C524   C     0.15139   0.06842   0.75092   0.00000  Uiso   1.00
C525   C     0.21527   0.25402   0.97365   0.00000  Uiso   1.00
C526   C     0.11805   0.07932   0.52635   0.00000  Uiso   1.00
C527   C     0.18997   0.31943   0.74825   0.00000  Uiso   1.00
C528   C     0.14336   0.01391   0.75175   0.00000  Uiso   1.00
C529   C     0.16728   0.16580   0.83628   0.00000  Uiso   1.00
C530   C     0.16605   0.16754   0.66372   0.00000  Uiso   1.00
C531   C     0.14063   0.12676   0.59485   0.00000  Uiso   1.00
C532   C     0.19270   0.20658   0.90515   0.00000  Uiso   1.00
C533   C     0.16484   0.17027   0.61627   0.00000  Uiso   1.00
C534   C     0.16849   0.16306   0.88373   0.00000  Uiso   1.00
C535   C     0.18914   0.21413   0.59280   0.00000  Uiso   1.00
C536   C     0.14419   0.11920   0.90720   0.00000  Uiso   1.00
C537   C     0.18971   0.21270   0.54566   0.00000  Uiso   1.00
C538   C     0.14361   0.12064   0.95434   0.00000  Uiso   1.00
C539   C     0.16603   0.16758   0.52351   0.00000  Uiso   1.00
C540   C     0.16729   0.16576   0.97649   0.00000  Uiso   1.00
C541   C     0.14117   0.12428   0.54838   0.00000  Uiso   1.00
C542   C     0.19215   0.20906   0.95162   0.00000  Uiso   1.00
C543   C     0.21377   0.25521   0.52027   0.00000  Uiso   1.00
C544   C     0.11955   0.07813   0.97973   0.00000  Uiso   1.00
H545   H     0.12258   0.09438   0.61518   0.00000  Uiso   1.00
H546   H     0.21075   0.23895   0.88482   0.00000  Uiso   1.00
H547   H     0.23191   0.28995   0.53641   0.00000  Uiso   1.00
H548   H     0.10140   0.04339   0.96359   0.00000  Uiso   1.00
H549   H     0.23398   0.00314   0.74466   0.00000  Uiso   1.00
H550   H     0.09936   0.33019   0.75534   0.00000  Uiso   1.00
H551   H     0.00456   0.12754   0.71604   0.00000  Uiso   1.00
H552   H     0.32877   0.20579   0.78396   0.00000  Uiso   1.00
N553   N     0.31678   0.15265   0.73783   0.00000  Uiso   1.00
N554   N     0.01656   0.18068   0.76217   0.00000  Uiso   1.00
O555   O     0.12975   0.24619   0.75299   0.00000  Uiso   1.00
O556   O     0.20358   0.08714   0.74702   0.00000  Uiso   1.00
O557   O     0.22613   0.23721   0.74519   0.00000  Uiso   1.00
O558   O     0.10720   0.09613   0.75482   0.00000  Uiso   1.00
O559   O     0.11847   0.17117   0.81998   0.00000  Uiso   1.00
O560   O     0.21486   0.16216   0.68003   0.00000  Uiso   1.00
O561   O     0.21485   0.16219   0.81218   0.00000  Uiso   1.00
O562   O     0.11848   0.17115   0.68783   0.00000  Uiso   1.00
Zn563  Zn    0.10231   0.17266   0.75521   0.00000  Uiso   1.00
Zn564  Zn    0.23102   0.16067   0.74479   0.00000  Uiso   1.00
C565   C     0.21378   0.26196   0.61757   0.00000  Uiso   1.00
H566   H     0.19106   0.29680   0.60924   0.00000  Uiso   1.00
H567   H     0.20909   0.25894   0.65455   0.00000  Uiso   1.00
H568   H     0.26050   0.26846   0.60779   0.00000  Uiso   1.00
C569   C     0.11956   0.07137   0.88243   0.00000  Uiso   1.00
H570   H     0.14226   0.03654   0.89077   0.00000  Uiso   1.00
H571   H     0.07283   0.06488   0.89220   0.00000  Uiso   1.00
H572   H     0.12426   0.07438   0.84545   0.00000  Uiso   1.00
C573   C     0.24162   0.30125   0.94843   0.00000  Uiso   1.00
H574   H     0.25732   0.33281   0.97138   0.00000  Uiso   1.00
H575   H     0.27894   0.29006   0.92591   0.00000  Uiso   1.00
H576   H     0.20894   0.31751   0.92833   0.00000  Uiso   1.00
C577   C     0.09170   0.03209   0.55157   0.00000  Uiso   1.00
H578   H     0.07600   0.00053   0.52862   0.00000  Uiso   1.00
H579   H     0.12438   0.01583   0.57167   0.00000  Uiso   1.00
H580   H     0.05438   0.04328   0.57409   0.00000  Uiso   1.00
C581   C     0.51527   0.26491   0.74908   0.00000  Uiso   1.00
C582   C     0.48473   0.06842   0.75092   0.00000  Uiso   1.00
C583   C     0.54861   0.25402   0.97365   0.00000  Uiso   1.00
C584   C     0.45138   0.07932   0.52635   0.00000  Uiso   1.00
C585   C     0.52331   0.31943   0.74825   0.00000  Uiso   1.00
C586   C     0.47669   0.01391   0.75175   0.00000  Uiso   1.00
C587   C     0.50061   0.16580   0.83628   0.00000  Uiso   1.00
C588   C     0.49939   0.16754   0.66372   0.00000  Uiso   1.00
C589   C     0.47396   0.12676   0.59485   0.00000  Uiso   1.00
C590   C     0.52603   0.20658   0.90515   0.00000  Uiso   1.00
C591   C     0.49817   0.17027   0.61627   0.00000  Uiso   1.00
C592   C     0.50183   0.16306   0.88373   0.00000  Uiso   1.00
C593   C     0.52247   0.21413   0.59280   0.00000  Uiso   1.00
C594   C     0.47752   0.11920   0.90720   0.00000  Uiso   1.00
C595   C     0.52305   0.21270   0.54566   0.00000  Uiso   1.00
C596   C     0.47694   0.12064   0.95434   0.00000  Uiso   1.00
C597   C     0.49936   0.16758   0.52351   0.00000  Uiso   1.00
C598   C     0.50063   0.16576   0.97649   0.00000  Uiso   1.00
C599   C     0.47451   0.12428   0.54838   0.00000  Uiso   1.00
C600   C     0.52548   0.20906   0.95162   0.00000  Uiso   1.00
C601   C     0.54710   0.25521   0.52027   0.00000  Uiso   1.00
C602   C     0.45288   0.07813   0.97973   0.00000  Uiso   1.00
H603   H     0.45591   0.09438   0.61518   0.00000  Uiso   1.00
H604   H     0.54408   0.23895   0.88482   0.00000  Uiso   1.00
H605   H     0.56524   0.28995   0.53641   0.00000  Uiso   1.00
H606   H     0.43474   0.04339   0.96359   0.00000  Uiso   1.00
H607   H     0.56731   0.00314   0.74466   0.00000  Uiso   1.00
H608   H     0.43269   0.33019   0.75534   0.00000  Uiso   1.00
H609   H     0.33790   0.12754   0.71604   0.00000  Uiso   1.00
H610   H     0.66210   0.20579   0.78396   0.00000  Uiso   1.00
N611   N     0.65011   0.15265   0.73783   0.00000  Uiso   1.00
N612   N     0.34989   0.18068   0.76217   0.00000  Uiso   1.00
O613   O     0.46308   0.24619   0.75299   0.00000  Uiso   1.00
O614   O     0.53692   0.08714   0.74702   0.00000  Uiso   1.00
O615   O     0.55946   0.23721   0.74519   0.00000  Uiso   1.00
O616   O     0.44054   0.09613   0.75482   0.00000  Uiso   1.00
O617   O     0.45181   0.17117   0.81998   0.00000  Uiso   1.00
O618   O     0.54819   0.16216   0.68003   0.00000  Uiso   1.00
O619   O     0.54819   0.16219   0.81218   0.00000  Uiso   1.00
O620   O     0.45181   0.17115   0.68783   0.00000  Uiso   1.00
Zn621  Zn    0.43565   0.17266   0.75521   0.00000  Uiso   1.00
Zn622  Zn    0.56435   0.16067   0.74479   0.00000  Uiso   1.00
C623   C     0.54711   0.26196   0.61757   0.00000  Uiso   1.00
H624   H     0.52440   0.29680   0.60924   0.00000  Uiso   1.00
H625   H     0.54243   0.25894   0.65455   0.00000  Uiso   1.00
H626   H     0.59384   0.26846   0.60779   0.00000  Uiso   1.00
C627   C     0.45289   0.07137   0.88243   0.00000  Uiso   1.00
H628   H     0.47559   0.03654   0.89077   0.00000  Uiso   1.00
H629   H     0.40616   0.06488   0.89220   0.00000  Uiso   1.00
H630   H     0.45760   0.07438   0.84545   0.00000  Uiso   1.00
C631   C     0.57495   0.30125   0.94843   0.00000  Uiso   1.00
H632   H     0.59065   0.33281   0.97138   0.00000  Uiso   1.00
H633   H     0.61228   0.29006   0.92591   0.00000  Uiso   1.00
H634   H     0.54227   0.31751   0.92833   0.00000  Uiso   1.00
C635   C     0.42503   0.03209   0.55157   0.00000  Uiso   1.00
H636   H     0.40933   0.00053   0.52862   0.00000  Uiso   1.00
H637   H     0.45771   0.01583   0.57167   0.00000  Uiso   1.00
H638   H     0.38771   0.04328   0.57409   0.00000  Uiso   1.00
C639   C     0.84861   0.26491   0.74908   0.00000  Uiso   1.00
C640   C     0.81806   0.06842   0.75092   0.00000  Uiso   1.00
C641   C     0.88194   0.25402   0.97365   0.00000  Uiso   1.00
C642   C     0.78471   0.07932   0.52635   0.00000  Uiso   1.00
C643   C     0.85664   0.31943   0.74825   0.00000  Uiso   1.00
C644   C     0.81003   0.01391   0.75175   0.00000  Uiso   1.00
C645   C     0.83395   0.16580   0.83628   0.00000  Uiso   1.00
C646   C     0.83272   0.16754   0.66372   0.00000  Uiso   1.00
C647   C     0.80729   0.12676   0.59485   0.00000  Uiso   1.00
C648   C     0.85937   0.20658   0.90515   0.00000  Uiso   1.00
C649   C     0.83151   0.17027   0.61627   0.00000  Uiso   1.00
C650   C     0.83516   0.16306   0.88373   0.00000  Uiso   1.00
C651   C     0.85581   0.21413   0.59280   0.00000  Uiso   1.00
C652   C     0.81086   0.11920   0.90720   0.00000  Uiso   1.00
C653   C     0.85638   0.21270   0.54566   0.00000  Uiso   1.00
C654   C     0.81028   0.12064   0.95434   0.00000  Uiso   1.00
C655   C     0.83269   0.16758   0.52351   0.00000  Uiso   1.00
C656   C     0.83396   0.16576   0.97649   0.00000  Uiso   1.00
C657   C     0.80784   0.12428   0.54838   0.00000  Uiso   1.00
C658   C     0.85882   0.20906   0.95162   0.00000  Uiso   1.00
C659   C     0.88043   0.25521   0.52027   0.00000  Uiso   1.00
C660   C     0.78622   0.07813   0.97973   0.00000  Uiso   1.00
H661   H     0.78925   0.09438   0.61518   0.00000  Uiso   1.00
H662   H     0.87742   0.23895   0.88482   0.00000  Uiso   1.00
H663   H     0.89857   0.28995   0.53641   0.00000  Uiso   1.00
H664   H     0.76807   0.04339   0.96359   0.00000  Uiso   1.00
H665   H     0.90064   0.00314   0.74466   0.00000  Uiso   1.00
H666   H     0.76602   0.33019   0.75534   0.00000  Uiso   1.00
H667   H     0.67123   0.12754   0.71604   0.00000  Uiso   1.00
H668   H     0.99544   0.20579   0.78396   0.00000  Uiso   1.00
N669   N     0.98344   0.15265   0.73783   0.00000  Uiso   1.00
N670   N     0.68322   0.18068   0.76217   0.00000  Uiso   1.00
O671   O     0.79642   0.24619   0.75299   0.00000  Uiso   1.00
O672   O     0.87025   0.08714   0.74702   0.00000  Uiso   1.00
O673   O     0.89280   0.23721   0.74519   0.00000  Uiso   1.00
O674   O     0.77387   0.09613   0.75482   0.00000  Uiso   1.00
O675   O     0.78514   0.17117   0.81998   0.00000  Uiso   1.00
O676   O     0.88153   0.16216   0.68003   0.00000  Uiso   1.00
O677   O     0.88152   0.16219   0.81218   0.00000  Uiso   1.00
O678   O     0.78515   0.17115   0.68783   0.00000  Uiso   1.00
Zn679  Zn    0.76898   0.17266   0.75521   0.00000  Uiso   1.00
Zn680  Zn    0.89769   0.16067   0.74479   0.00000  Uiso   1.00
C681   C     0.88044   0.26196   0.61757   0.00000  Uiso   1.00
H682   H     0.85773   0.29680   0.60924   0.00000  Uiso   1.00
H683   H     0.87576   0.25894   0.65455   0.00000  Uiso   1.00
H684   H     0.92717   0.26846   0.60779   0.00000  Uiso   1.00
C685   C     0.78622   0.07137   0.88243   0.00000  Uiso   1.00
H686   H     0.80893   0.03654   0.89077   0.00000  Uiso   1.00
H687   H     0.73949   0.06488   0.89220   0.00000  Uiso   1.00
H688   H     0.79093   0.07438   0.84545   0.00000  Uiso   1.00
C689   C     0.90829   0.30125   0.94843   0.00000  Uiso   1.00
H690   H     0.92398   0.33281   0.97138   0.00000  Uiso   1.00
H691   H     0.94561   0.29006   0.92591   0.00000  Uiso   1.00
H692   H     0.87561   0.31751   0.92833   0.00000  Uiso   1.00
C693   C     0.75837   0.03209   0.55157   0.00000  Uiso   1.00
H694   H     0.74267   0.00053   0.52862   0.00000  Uiso   1.00
H695   H     0.79105   0.01583   0.57167   0.00000  Uiso   1.00
H696   H     0.72105   0.04328   0.57409   0.00000  Uiso   1.00
C697   C     0.18194   0.59824   0.74908   0.00000  Uiso   1.00
C698   C     0.15139   0.40176   0.75092   0.00000  Uiso   1.00
C699   C     0.21527   0.58736   0.97365   0.00000  Uiso   1.00
C700   C     0.11805   0.41265   0.52635   0.00000  Uiso   1.00
C701   C     0.18997   0.65276   0.74825   0.00000  Uiso   1.00
C702   C     0.14336   0.34724   0.75175   0.00000  Uiso   1.00
C703   C     0.16728   0.49913   0.83628   0.00000  Uiso   1.00
C704   C     0.16605   0.50087   0.66372   0.00000  Uiso   1.00
C705   C     0.14063   0.46009   0.59485   0.00000  Uiso   1.00
C706   C     0.19270   0.53991   0.90515   0.00000  Uiso   1.00
C707   C     0.16484   0.50361   0.61627   0.00000  Uiso   1.00
C708   C     0.16849   0.49639   0.88373   0.00000  Uiso   1.00
C709   C     0.18914   0.54747   0.59280   0.00000  Uiso   1.00
C710   C     0.14419   0.45254   0.90720   0.00000  Uiso   1.00
C711   C     0.18971   0.54603   0.54566   0.00000  Uiso   1.00
C712   C     0.14361   0.45398   0.95434   0.00000  Uiso   1.00
C713   C     0.16603   0.50091   0.52351   0.00000  Uiso   1.00
C714   C     0.16729   0.49909   0.97649   0.00000  Uiso   1.00
C715   C     0.14117   0.45761   0.54838   0.00000  Uiso   1.00
C716   C     0.19215   0.54239   0.95162   0.00000  Uiso   1.00
C717   C     0.21377   0.58855   0.52027   0.00000  Uiso   1.00
C718   C     0.11955   0.41146   0.97973   0.00000  Uiso   1.00
H719   H     0.12258   0.42771   0.61518   0.00000  Uiso   1.00
H720   H     0.21075   0.57229   0.88482   0.00000  Uiso   1.00
H721   H     0.23191   0.62329   0.53641   0.00000  Uiso   1.00
H722   H     0.10140   0.37672   0.96359   0.00000  Uiso   1.00
H723   H     0.23398   0.33648   0.74466   0.00000  Uiso   1.00
H724   H     0.09936   0.66352   0.75534   0.00000  Uiso   1.00
H725   H     0.00456   0.46088   0.71604   0.00000  Uiso   1.00
H726   H     0.32877   0.53913   0.78396   0.00000  Uiso   1.00
N727   N     0.31678   0.48598   0.73783   0.00000  Uiso   1.00
N728   N     0.01656   0.51402   0.76217   0.00000  Uiso   1.00
O729   O     0.12975   0.57952   0.75299   0.00000  Uiso   1.00
O730   O     0.20358   0.42048   0.74702   0.00000  Uiso   1.00
O731   O     0.22613   0.57054   0.74519   0.00000  Uiso   1.00
O732   O     0.10720   0.42946   0.75482   0.00000  Uiso   1.00
O733   O     0.11847   0.50450   0.81998   0.00000  Uiso   1.00
O734   O     0.21486   0.49550   0.68003   0.00000  Uiso   1.00
O735   O     0.21485   0.49552   0.81218   0.00000  Uiso   1.00
O736   O     0.11848   0.50448   0.68783   0.00000  Uiso   1.00
Zn737  Zn    0.10231   0.50600   0.75521   0.00000  Uiso   1.00
Zn738  Zn    0.23102   0.49400   0.74479   0.00000  Uiso   1.00
C739   C     0.21378   0.59530   0.61757   0.00000  Uiso   1.00
H740   H     0.19106   0.63013   0.60924   0.00000  Uiso   1.00
H741   H     0.20909   0.59228   0.65455   0.00000  Uiso   1.00
H742   H     0.26050   0.60179   0.60779   0.00000  Uiso   1.00
C743   C     0.11956   0.40471   0.88243   0.00000  Uiso   1.00
H744   H     0.14226   0.36987   0.89077   0.00000  Uiso   1.00
H745   H     0.07283   0.39822   0.89220   0.00000  Uiso   1.00
H746   H     0.12426   0.40771   0.84545   0.00000  Uiso   1.00
C747   C     0.24162   0.63458   0.94843   0.00000  Uiso   1.00
H748   H     0.25732   0.66614   0.97138   0.00000  Uiso   1.00
H749   H     0.27894   0.62339   0.92591   0.00000  Uiso   1.00
H750   H     0.20894   0.65084   0.92833   0.00000  Uiso   1.00
C751   C     0.09170   0.36543   0.55157   0.00000  Uiso   1.00
H752   H     0.07600   0.33386   0.52862   0.00000  Uiso   1.00
H753   H     0.12438   0.34916   0.57167   0.00000  Uiso   1.00
H754   H     0.05438   0.37662   0.57409   0.00000  Uiso   1.00
C755   C     0.51527   0.59824   0.74908   0.00000  Uiso   1.00
C756   C     0.48473   0.40176   0.75092   0.00000  Uiso   1.00
C757   C     0.54861   0.58736   0.97365   0.00000  Uiso   1.00
C758   C     0.45138   0.41265   0.52635   0.00000  Uiso   1.00
C759   C     0.52331   0.65276   0.74825   0.00000  Uiso   1.00
C760   C     0.47669   0.34724   0.75175   0.00000  Uiso   1.00
C761   C     0.50061   0.49913   0.83628   0.00000  Uiso   1.00
C762   C     0.49939   0.50087   0.66372   0.00000  Uiso   1.00
C763   C     0.47396   0.46009   0.59485   0.00000  Uiso   1.00
C764   C     0.52603   0.53991   0.90515   0.00000  Uiso   1.00
C765   C     0.49817   0.50361   0.61627   0.00000  Uiso   1.00
C766   C     0.50183   0.49639   0.88373   0.00000  Uiso   1.00
C767   C     0.52247   0.54747   0.59280   0.00000  Uiso   1.00
C768   C     0.47752   0.45254   0.90720   0.00000  Uiso   1.00
C769   C     0.52305   0.54603   0.54566   0.00000  Uiso   1.00
C770   C     0.47694   0.45398   0.95434   0.00000  Uiso   1.00
C771   C     0.49936   0.50091   0.52351   0.00000  Uiso   1.00
C772   C     0.50063   0.49909   0.97649   0.00000  Uiso   1.00
C773   C     0.47451   0.45761   0.54838   0.00000  Uiso   1.00
C774   C     0.52548   0.54239   0.95162   0.00000  Uiso   1.00
C775   C     0.54710   0.58855   0.52027   0.00000  Uiso   1.00
C776   C     0.45288   0.41146   0.97973   0.00000  Uiso   1.00
H777   H     0.45591   0.42771   0.61518   0.00000  Uiso   1.00
H778   H     0.54408   0.57229   0.88482   0.00000  Uiso   1.00
H779   H     0.56524   0.62329   0.53641   0.00000  Uiso   1.00
H780   H     0.43474   0.37672   0.96359   0.00000  Uiso   1.00
H781   H     0.56731   0.33648   0.74466   0.00000  Uiso   1.00
H782   H     0.43269   0.66352   0.75534   0.00000  Uiso   1.00
H783   H     0.33790   0.46088   0.71604   0.00000  Uiso   1.00
H784   H     0.66210   0.53913   0.78396   0.00000  Uiso   1.00
N785   N     0.65011   0.48598   0.73783   0.00000  Uiso   1.00
N786   N     0.34989   0.51402   0.76217   0.00000  Uiso   1.00
O787   O     0.46308   0.57952   0.75299   0.00000  Uiso   1.00
O788   O     0.53692   0.42048   0.74702   0.00000  Uiso   1.00
O789   O     0.55946   0.57054   0.74519   0.00000  Uiso   1.00
O790   O     0.44054   0.42946   0.75482   0.00000  Uiso   1.00
O791   O     0.45181   0.50450   0.81998   0.00000  Uiso   1.00
O792   O     0.54819   0.49550   0.68003   0.00000  Uiso   1.00
O793   O     0.54819   0.49552   0.81218   0.00000  Uiso   1.00
O794   O     0.45181   0.50448   0.68783   0.00000  Uiso   1.00
Zn795  Zn    0.43565   0.50600   0.75521   0.00000  Uiso   1.00
Zn796  Zn    0.56435   0.49400   0.74479   0.00000  Uiso   1.00
C797   C     0.54711   0.59530   0.61757   0.00000  Uiso   1.00
H798   H     0.52440   0.63013   0.60924   0.00000  Uiso   1.00
H799   H     0.54243   0.59228   0.65455   0.00000  Uiso   1.00
H800   H     0.59384   0.60179   0.60779   0.00000  Uiso   1.00
C801   C     0.45289   0.40471   0.88243   0.00000  Uiso   1.00
H802   H     0.47559   0.36987   0.89077   0.00000  Uiso   1.00
H803   H     0.40616   0.39822   0.89220   0.00000  Uiso   1.00
H804   H     0.45760   0.40771   0.84545   0.00000  Uiso   1.00
C805   C     0.57495   0.63458   0.94843   0.00000  Uiso   1.00
H806   H     0.59065   0.66614   0.97138   0.00000  Uiso   1.00
H807   H     0.61228   0.62339   0.92591   0.00000  Uiso   1.00
H808   H     0.54227   0.65084   0.92833   0.00000  Uiso   1.00
C809   C     0.42503   0.36543   0.55157   0.00000  Uiso   1.00
H810   H     0.40933   0.33386   0.52862   0.00000  Uiso   1.00
H811   H     0.45771   0.34916   0.57167   0.00000  Uiso   1.00
H812   H     0.38771   0.37662   0.57409   0.00000  Uiso   1.00
C813   C     0.84861   0.59824   0.74908   0.00000  Uiso   1.00
C814   C     0.81806   0.40176   0.75092   0.00000  Uiso   1.00
C815   C     0.88194   0.58736   0.97365   0.00000  Uiso   1.00
C816   C     0.78471   0.41265   0.52635   0.00000  Uiso   1.00
C817   C     0.85664   0.65276   0.74825   0.00000  Uiso   1.00
C818   C     0.81003   0.34724   0.75175   0.00000  Uiso   1.00
C819   C     0.83395   0.49913   0.83628   0.00000  Uiso   1.00
C820   C     0.83272   0.50087   0.66372   0.00000  Uiso   1.00
C821   C     0.80729   0.46009   0.59485   0.00000  Uiso   1.00
C822   C     0.85937   0.53991   0.90515   0.00000  Uiso   1.00
C823   C     0.83151   0.50361   0.61627   0.00000  Uiso   1.00
C824   C     0.83516   0.49639   0.88373   0.00000  Uiso   1.00
C825   C     0.85581   0.54747   0.59280   0.00000  Uiso   1.00
C826   C     0.81086   0.45254   0.90720   0.00000  Uiso   1.00
C827   C     0.85638   0.54603   0.54566   0.00000  Uiso   1.00
C828   C     0.81028   0.45398   0.95434   0.00000  Uiso   1.00
C829   C     0.83269   0.50091   0.52351   0.00000  Uiso   1.00
C830   C     0.83396   0.49909   0.97649   0.00000  Uiso   1.00
C831   C     0.80784   0.45761   0.54838   0.00000  Uiso   1.00
C832   C     0.85882   0.54239   0.95162   0.00000  Uiso   1.00
C833   C     0.88043   0.58855   0.52027   0.00000  Uiso   1.00
C834   C     0.78622   0.41146   0.97973   0.00000  Uiso   1.00
H835   H     0.78925   0.42771   0.61518   0.00000  Uiso   1.00
H836   H     0.87742   0.57229   0.88482   0.00000  Uiso   1.00
H837   H     0.89857   0.62329   0.53641   0.00000  Uiso   1.00
H838   H     0.76807   0.37672   0.96359   0.00000  Uiso   1.00
H839   H     0.90064   0.33648   0.74466   0.00000  Uiso   1.00
H840   H     0.76602   0.66352   0.75534   0.00000  Uiso   1.00
H841   H     0.67123   0.46088   0.71604   0.00000  Uiso   1.00
H842   H     0.99544   0.53913   0.78396   0.00000  Uiso   1.00
N843   N     0.98344   0.48598   0.73783   0.00000  Uiso   1.00
N844   N     0.68322   0.51402   0.76217   0.00000  Uiso   1.00
O845   O     0.79642   0.57952   0.75299   0.00000  Uiso   1.00
O846   O     0.87025   0.42048   0.74702   0.00000  Uiso   1.00
O847   O     0.89280   0.57054   0.74519   0.00000  Uiso   1.00
O848   O     0.77387   0.42946   0.75482   0.00000  Uiso   1.00
O849   O     0.78514   0.50450   0.81998   0.00000  Uiso   1.00
O850   O     0.88153   0.49550   0.68003   0.00000  Uiso   1.00
O851   O     0.88152   0.49552   0.81218   0.00000  Uiso   1.00
O852   O     0.78515   0.50448   0.68783   0.00000  Uiso   1.00
Zn853  Zn    0.76898   0.50600   0.75521   0.00000  Uiso   1.00
Zn854  Zn    0.89769   0.49400   0.74479   0.00000  Uiso   1.00
C855   C     0.88044   0.59530   0.61757   0.00000  Uiso   1.00
H856   H     0.85773   0.63013   0.60924   0.00000  Uiso   1.00
H857   H     0.87576   0.59228   0.65455   0.00000  Uiso   1.00
H858   H     0.92717   0.60179   0.60779   0.00000  Uiso   1.00
C859   C     0.78622   0.40471   0.88243   0.00000  Uiso   1.00
H860   H     0.80893   0.36987   0.89077   0.00000  Uiso   1.00
H861   H     0.73949   0.39822   0.89220   0.00000  Uiso   1.00
H862   H     0.79093   0.40771   0.84545   0.00000  Uiso   1.00
C863   C     0.90829   0.63458   0.94843   0.00000  Uiso   1.00
H864   H     0.92398   0.66614   0.97138   0.00000  Uiso   1.00
H865   H     0.94561   0.62339   0.92591   0.00000  Uiso   1.00
H866   H     0.87561   0.65084   0.92833   0.00000  Uiso   1.00
C867   C     0.75837   0.36543   0.55157   0.00000  Uiso   1.00
H868   H     0.74267   0.33386   0.52862   0.00000  Uiso   1.00
H869   H     0.79105   0.34916   0.57167   0.00000  Uiso   1.00
H870   H     0.72105   0.37662   0.57409   0.00000  Uiso   1.00
C871   C     0.18194   0.93158   0.74908   0.00000  Uiso   1.00
C872   C     0.15139   0.73509   0.75092   0.00000  Uiso   1.00
C873   C     0.21527   0.92069   0.97365   0.00000  Uiso   1.00
C874   C     0.11805   0.74598   0.52635   0.00000  Uiso   1.00
C875   C     0.18997   0.98609   0.74825   0.00000  Uiso   1.00
C876   C     0.14336   0.68057   0.75175   0.00000  Uiso   1.00
C877   C     0.16728   0.83247   0.83628   0.00000  Uiso   1.00
C878   C     0.16605   0.83420   0.66372   0.00000  Uiso   1.00
C879   C     0.14063   0.79342   0.59485   0.00000  Uiso   1.00
C880   C     0.19270   0.87325   0.90515   0.00000  Uiso   1.00
C881   C     0.16484   0.83694   0.61627   0.00000  Uiso   1.00
C882   C     0.16849   0.82973   0.88373   0.00000  Uiso   1.00
C883   C     0.18914   0.88080   0.59280   0.00000  Uiso   1.00
C884   C     0.14419   0.78587   0.90720   0.00000  Uiso   1.00
C885   C     0.18971   0.87936   0.54566   0.00000  Uiso   1.00
C886   C     0.14361   0.78731   0.95434   0.00000  Uiso   1.00
C887   C     0.16603   0.83425   0.52351   0.00000  Uiso   1.00
C888   C     0.16729   0.83242   0.97649   0.00000  Uiso   1.00
C889   C     0.14117   0.79094   0.54838   0.00000  Uiso   1.00
C890   C     0.19215   0.87573   0.95162   0.00000  Uiso   1.00
C891   C     0.21377   0.92188   0.52027   0.00000  Uiso   1.00
C892   C     0.11955   0.74479   0.97973   0.00000  Uiso   1.00
H893   H     0.12258   0.76105   0.61518   0.00000  Uiso   1.00
H894   H     0.21075   0.90562   0.88482   0.00000  Uiso   1.00
H895   H     0.23191   0.95662   0.53641   0.00000  Uiso   1.00
H896   H     0.10140   0.71006   0.96359   0.00000  Uiso   1.00
H897   H     0.23398   0.66981   0.74466   0.00000  Uiso   1.00
H898   H     0.09936   0.99686   0.75534   0.00000  Uiso   1.00
H899   H     0.00456   0.79421   0.71604   0.00000  Uiso   1.00
H900   H     0.32877   0.87246   0.78396   0.00000  Uiso   1.00
N901   N     0.31678   0.81932   0.73783   0.00000  Uiso   1.00
N902   N     0.01656   0.84735   0.76217   0.00000  Uiso   1.00
O903   O     0.12975   0.91286   0.75299   0.00000  Uiso   1.00
O904   O     0.20358   0.75381   0.74702   0.00000  Uiso   1.00
O905   O     0.22613   0.90387   0.74519   0.00000  Uiso   1.00
O906   O     0.10720   0.76279   0.75482   0.00000  Uiso   1.00
O907   O     0.11847   0.83784   0.81998   0.00000  Uiso   1.00
O908   O     0.21486   0.82883   0.68003   0.00000  Uiso   1.00
O909   O     0.21485   0.82885   0.81218   0.00000  Uiso   1.00
O910   O     0.11848   0.83781   0.68783   0.00000  Uiso   1.00
Zn911  Zn    0.10231   0.83933   0.75521   0.00000  Uiso   1.00
Zn912  Zn    0.23102   0.82734   0.74479   0.00000  Uiso   1.00
C913   C     0.21378   0.92863   0.61757   0.00000  Uiso   1.00
H914   H     0.19106   0.96346   0.60924   0.00000  Uiso   1.00
H915   H     0.20909   0.92561   0.65455   0.00000  Uiso   1.00
H916   H     0.26050   0.93513   0.60779   0.00000  Uiso   1.00
C917   C     0.11956   0.73804   0.88243   0.00000  Uiso   1.00
H918   H     0.14226   0.70320   0.89077   0.00000  Uiso   1.00
H919   H     0.07283   0.73155   0.89220   0.00000  Uiso   1.00
H920   H     0.12426   0.74105   0.84545   0.00000  Uiso   1.00
C921   C     0.24162   0.96791   0.94843   0.00000  Uiso   1.00
H922   H     0.25732   0.99948   0.97138   0.00000  Uiso   1.00
H923   H     0.27894   0.95672   0.92591   0.00000  Uiso   1.00
H924   H     0.20894   0.98418   0.92833   0.00000  Uiso   1.00
C925   C     0.09170   0.69876   0.55157   0.00000  Uiso   1.00
H926   H     0.07600   0.66720   0.52862   0.00000  Uiso   1.00
H927   H     0.12438   0.68249   0.57167   0.00000  Uiso   1.00
H928   H     0.05438   0.70995   0.57409   0.00000  Uiso   1.00
C929   C     0.51527   0.93158   0.74908   0.00000  Uiso   1.00
C930   C     0.48473   0.73509   0.75092   0.00000  Uiso   1.00
C931   C     0.54861   0.92069   0.97365   0.00000  Uiso   1.00
C932   C     0.45138   0.74598   0.52635   0.00000  Uiso   1.00
C933   C     0.52331   0.98609   0.74825   0.00000  Uiso   1.00
C934   C     0.47669   0.68057   0.75175   0.00000  Uiso   1.00
C935   C     0.50061   0.83247   0.83628   0.00000  Uiso   1.00
C936   C     0.49939   0.83420   0.66372   0.00000  Uiso   1.00
C937   C     0.47396   0.79342   0.59485   0.00000  Uiso   1.00
C938   C     0.52603   0.87325   0.90515   0.00000  Uiso   1.00
C939   C     0.49817   0.83694   0.61627   0.00000  Uiso   1.00
C940   C     0.50183   0.82973   0.88373   0.00000  Uiso   1.00
C941   C     0.52247   0.88080   0.59280   0.00000  Uiso   1.00
C942   C     0.47752   0.78587   0.90720   0.00000  Uiso   1.00
C943   C     0.52305   0.87936   0.54566   0.00000  Uiso   1.00
C944   C     0.47694   0.78731   0.95434   0.00000  Uiso   1.00
C945   C     0.49936   0.83425   0.52351   0.00000  Uiso   1.00
C946   C     0.50063   0.83242   0.97649   0.00000  Uiso   1.00
C947   C     0.47451   0.79094   0.54838   0.00000  Uiso   1.00
C948   C     0.52548   0.87573   0.95162   0.00000  Uiso   1.00
C949   C     0.54710   0.92188   0.52027   0.00000  Uiso   1.00
C950   C     0.45288   0.74479   0.97973   0.00000  Uiso   1.00
H951   H     0.45591   0.76105   0.61518   0.00000  Uiso   1.00
H952   H     0.54408   0.90562   0.88482   0.00000  Uiso   1.00
H953   H     0.56524   0.95662   0.53641   0.00000  Uiso   1.00
H954   H     0.43474   0.71006   0.96359   0.00000  Uiso   1.00
H955   H     0.56731   0.66981   0.74466   0.00000  Uiso   1.00
H956   H     0.43269   0.99686   0.75534   0.00000  Uiso   1.00
H957   H     0.33790   0.79421   0.71604   0.00000  Uiso   1.00
H958   H     0.66210   0.87246   0.78396   0.00000  Uiso   1.00
N959   N     0.65011   0.81932   0.73783   0.00000  Uiso   1.00
N960   N     0.34989   0.84735   0.76217   0.00000  Uiso   1.00
O961   O     0.46308   0.91286   0.75299   0.00000  Uiso   1.00
O962   O     0.53692   0.75381   0.74702   0.00000  Uiso   1.00
O963   O     0.55946   0.90387   0.74519   0.00000  Uiso   1.00
O964   O     0.44054   0.76279   0.75482   0.00000  Uiso   1.00
O965   O     0.45181   0.83784   0.81998   0.00000  Uiso   1.00
O966   O     0.54819   0.82883   0.68003   0.00000  Uiso   1.00
O967   O     0.54819   0.82885   0.81218   0.00000  Uiso   1.00
O968   O     0.45181   0.83781   0.68783   0.00000  Uiso   1.00
Zn969  Zn    0.43565   0.83933   0.75521   0.00000  Uiso   1.00
Zn970  Zn    0.56435   0.82734   0.74479   0.00000  Uiso   1.00
C971   C     0.54711   0.92863   0.61757   0.00000  Uiso   1.00
H972   H     0.52440   0.96346   0.60924   0.00000  Uiso   1.00
H973   H     0.54243   0.92561   0.65455   0.00000  Uiso   1.00
H974   H     0.59384   0.93513   0.60779   0.00000  Uiso   1.00
C975   C     0.45289   0.73804   0.88243   0.00000  Uiso   1.00
H976   H     0.47559   0.70320   0.89077   0.00000  Uiso   1.00
H977   H     0.40616   0.73155   0.89220   0.00000  Uiso   1.00
H978   H     0.45760   0.74105   0.84545   0.00000  Uiso   1.00
C979   C     0.57495   0.96791   0.94843   0.00000  Uiso   1.00
H980   H     0.59065   0.99948   0.97138   0.00000  Uiso   1.00
H981   H     0.61228   0.95672   0.92591   0.00000  Uiso   1.00
H982   H     0.54227   0.98418   0.92833   0.00000  Uiso   1.00
C983   C     0.42503   0.69876   0.55157   0.00000  Uiso   1.00
H984   H     0.40933   0.66720   0.52862   0.00000  Uiso   1.00
H985   H     0.45771   0.68249   0.57167   0.00000  Uiso   1.00
H986   H     0.38771   0.70995   0.57409   0.00000  Uiso   1.00
C987   C     0.84861   0.93158   0.74908   0.00000  Uiso   1.00
C988   C     0.81806   0.73509   0.75092   0.00000  Uiso   1.00
C989   C     0.88194   0.92069   0.97365   0.00000  Uiso   1.00
C990   C     0.78471   0.74598   0.52635   0.00000  Uiso   1.00
C991   C     0.85664   0.98609   0.74825   0.00000  Uiso   1.00
C992   C     0.81003   0.68057   0.75175   0.00000  Uiso   1.00
C993   C     0.83395   0.83247   0.83628   0.00000  Uiso   1.00
C994   C     0.83272   0.83420   0.66372   0.00000  Uiso   1.00
C995   C     0.80729   0.79342   0.59485   0.00000  Uiso   1.00
C996   C     0.85937   0.87325   0.90515   0.00000  Uiso   1.00
C997   C     0.83151   0.83694   0.61627   0.00000  Uiso   1.00
C998   C     0.83516   0.82973   0.88373   0.00000  Uiso   1.00
C999   C     0.85581   0.88080   0.59280   0.00000  Uiso   1.00
C1000  C     0.81086   0.78587   0.90720   0.00000  Uiso   1.00
C1001  C     0.85638   0.87936   0.54566   0.00000  Uiso   1.00
C1002  C     0.81028   0.78731   0.95434   0.00000  Uiso   1.00
C1003  C     0.83269   0.83425   0.52351   0.00000  Uiso   1.00
C1004  C     0.83396   0.83242   0.97649   0.00000  Uiso   1.00
C1005  C     0.80784   0.79094   0.54838   0.00000  Uiso   1.00
C1006  C     0.85882   0.87573   0.95162   0.00000  Uiso   1.00
C1007  C     0.88043   0.92188   0.52027   0.00000  Uiso   1.00
C1008  C     0.78622   0.74479   0.97973   0.00000  Uiso   1.00
H1009  H     0.78925   0.76105   0.61518   0.00000  Uiso   1.00
H1010  H     0.87742   0.90562   0.88482   0.00000  Uiso   1.00
H1011  H     0.89857   0.95662   0.53641   0.00000  Uiso   1.00
H1012  H     0.76807   0.71006   0.96359   0.00000  Uiso   1.00
H1013  H     0.90064   0.66981   0.74466   0.00000  Uiso   1.00
H1014  H     0.76602   0.99686   0.75534   0.00000  Uiso   1.00
H1015  H     0.67123   0.79421   0.71604   0.00000  Uiso   1.00
H1016  H     0.99544   0.87246   0.78396   0.00000  Uiso   1.00
N1017  N     0.98344   0.81932   0.73783   0.00000  Uiso   1.00
N1018  N     0.68322   0.84735   0.76217   0.00000  Uiso   1.00
O1019  O     0.79642   0.91286   0.75299   0.00000  Uiso   1.00
O1020  O     0.87025   0.75381   0.74702   0.00000  Uiso   1.00
O1021  O     0.89280   0.90387   0.74519   0.00000  Uiso   1.00
O1022  O     0.77387   0.76279   0.75482   0.00000  Uiso   1.00
O1023  O     0.78514   0.83784   0.81998   0.00000  Uiso   1.00
O1024  O     0.88153   0.82883   0.68003   0.00000  Uiso   1.00
O1025  O     0.88152   0.82885   0.81218   0.00000  Uiso   1.00
O1026  O     0.78515   0.83781   0.68783   0.00000  Uiso   1.00
Zn1027 Zn    0.76898   0.83933   0.75521   0.00000  Uiso   1.00
Zn1028 Zn    0.89769   0.82734   0.74479   0.00000  Uiso   1.00
C1029  C     0.88044   0.92863   0.61757   0.00000  Uiso   1.00
H1030  H     0.85773   0.96346   0.60924   0.00000  Uiso   1.00
H1031  H     0.87576   0.92561   0.65455   0.00000  Uiso   1.00
H1032  H     0.92717   0.93513   0.60779   0.00000  Uiso   1.00
C1033  C     0.78622   0.73804   0.88243   0.00000  Uiso   1.00
H1034  H     0.80893   0.70320   0.89077   0.00000  Uiso   1.00
H1035  H     0.73949   0.73155   0.89220   0.00000  Uiso   1.00
H1036  H     0.79093   0.74105   0.84545   0.00000  Uiso   1.00
C1037  C     0.90829   0.96791   0.94843   0.00000  Uiso   1.00
H1038  H     0.92398   0.99948   0.97138   0.00000  Uiso   1.00
H1039  H     0.94561   0.95672   0.92591   0.00000  Uiso   1.00
H1040  H     0.87561   0.98418   0.92833   0.00000  Uiso   1.00
C1041  C     0.75837   0.69876   0.55157   0.00000  Uiso   1.00
H1042  H     0.74267   0.66720   0.52862   0.00000  Uiso   1.00
H1043  H     0.79105   0.68249   0.57167   0.00000  Uiso   1.00
H1044  H     0.72105   0.70995   0.57409   0.00000  Uiso   1.00
loop_
_geom_bond_atom_site_label_1
_geom_bond_atom_site_label_2
_geom_bond_distance
_geom_bond_site_symmetry_2
_ccdc_geom_bond_type
C1     O33     1.277   .     A
C1     C5      1.400   .     S
C1     O35     1.287   .     A
C2     O34     1.277   .     A
C2     C6      1.400   .     S
C2     O36     1.287   .     A
C3     C20     1.412   .     A
C3     C51     1.512   .     S
C3     C543    1.389   .     S
C4     C55     1.512   .     S
C4     C19     1.412   .     A
C4     C544    1.389   1_554 S
C5     C180    1.335   .     S
C5     H201    1.088   .     S
C6     C353    1.335   1_545 S
C6     H376    1.088   1_545 S
C7     O37     1.285   .     A
C7     C12     1.422   .     S
C7     O39     1.286   .     A
C8     O38     1.285   .     A
C8     C11     1.422   .     S
C8     O40     1.286   .     A
C9     C11     1.384   .     A
C9     H23     1.084   .     S
C9     C19     1.386   .     A
C10    C12     1.384   .     A
C10    H24     1.084   .     S
C10    C20     1.386   .     A
C11    C13     1.404   .     A
C12    C14     1.404   .     A
C13    C15     1.406   .     A
C13    C43     1.522   .     S
C14    C47     1.522   .     S
C14    C16     1.406   .     A
C15    C21     1.405   .     A
C15    C17     1.422   .     A
C16    C18     1.422   .     A
C16    C22     1.405   .     A
C17    C19     1.418   .     A
C17    C540    1.401   1_554 S
C18    C20     1.418   .     A
C18    C539    1.401   .     S
C21    H25     1.081   .     S
C21    C525    1.389   1_554 S
C22    H26     1.081   .     S
C22    C526    1.389   .     S
H27    C353    1.088   1_545 S
H28    C180    1.088   .     S
H29    N147    1.029   1_455 S
H30    N90     1.029   .     S
N31    Zn42    2.019   .     S
N31    H87     1.029   .     S
N31    N90     1.276   .     S
N32    Zn41    2.019   .     S
N32    N147    1.276   1_455 S
N32    H146    1.029   1_455 S
O33    Zn41    1.954   .     S
O34    Zn42    1.954   .     S
O35    Zn42    1.975   .     S
O36    Zn41    1.975   .     S
O37    Zn41    1.997   .     S
O38    Zn42    1.997   .     S
O39    Zn42    2.020   .     S
O40    Zn41    2.020   .     S
C43    H45     1.105   .     S
C43    H44     1.109   .     S
C43    H46     1.110   .     S
C47    H48     1.109   .     S
C47    H50     1.105   .     S
C47    H49     1.110   .     S
C51    H54     1.109   .     S
C51    H52     1.111   .     S
C51    H53     1.110   .     S
C55    H56     1.111   .     S
C55    H57     1.109   .     S
C55    H58     1.110   .     S
C59    O91     1.277   .     A
C59    C63     1.400   .     S
C59    O93     1.287   .     A
C60    O92     1.277   .     A
C60    C64     1.400   .     S
C60    O94     1.287   .     A
C61    C78     1.412   .     A
C61    C109    1.512   .     S
C61    C601    1.389   .     S
C62    C113    1.512   .     S
C62    C77     1.412   .     A
C62    C602    1.389   1_554 S
C63    C238    1.335   .     S
C63    H259    1.088   .     S
C64    C411    1.335   1_545 S
C64    H434    1.088   1_545 S
C65    O95     1.285   .     A
C65    C70     1.422   .     S
C65    O97     1.286   .     A
C66    O96     1.285   .     A
C66    C69     1.422   .     S
C66    O98     1.286   .     A
C67    C69     1.384   .     A
C67    H81     1.084   .     S
C67    C77     1.386   .     A
C68    C70     1.384   .     A
C68    H82     1.084   .     S
C68    C78     1.386   .     A
C69    C71     1.404   .     A
C70    C72     1.404   .     A
C71    C73     1.406   .     A
C71    C101    1.522   .     S
C72    C105    1.522   .     S
C72    C74     1.406   .     A
C73    C79     1.405   .     A
C73    C75     1.422   .     A
C74    C76     1.422   .     A
C74    C80     1.405   .     A
C75    C77     1.418   .     A
C75    C598    1.401   1_554 S
C76    C78     1.418   .     A
C76    C597    1.401   .     S
C79    H83     1.081   .     S
C79    C583    1.389   1_554 S
C80    H84     1.081   .     S
C80    C584    1.389   .     S
H85    C411    1.088   1_545 S
H86    C238    1.088   .     S
H88    N148    1.029   .     S
N89    Zn100   2.019   .     S
N89    H145    1.029   .     S
N89    N148    1.276   .     S
N90    Zn99    2.019   .     S
O91    Zn99    1.954   .     S
O92    Zn100   1.954   .     S
O93    Zn100   1.975   .     S
O94    Zn99    1.975   .     S
O95    Zn99    1.997   .     S
O96    Zn100   1.997   .     S
O97    Zn100   2.020   .     S
O98    Zn99    2.020   .     S
C101   H103    1.105   .     S
C101   H102    1.109   .     S
C101   H104    1.110   .     S
C105   H106    1.109   .     S
C105   H108    1.105   .     S
C105   H107    1.110   .     S
C109   H112    1.109   .     S
C109   H110    1.111   .     S
C109   H111    1.110   .     S
C113   H114    1.111   .     S
C113   H115    1.109   .     S
C113   H116    1.110   .     S
C117   O149    1.277   .     A
C117   C121    1.400   .     S
C117   O151    1.287   .     A
C118   O150    1.277   .     A
C118   C122    1.400   .     S
C118   O152    1.287   .     A
C119   C136    1.412   .     A
C119   C167    1.512   .     S
C119   C659    1.389   .     S
C120   C171    1.512   .     S
C120   C135    1.412   .     A
C120   C660    1.389   1_554 S
C121   C296    1.335   .     S
C121   H317    1.088   .     S
C122   C469    1.335   1_545 S
C122   H492    1.088   1_545 S
C123   O153    1.285   .     A
C123   C128    1.422   .     S
C123   O155    1.286   .     A
C124   O154    1.285   .     A
C124   C127    1.422   .     S
C124   O156    1.286   .     A
C125   C127    1.384   .     A
C125   H139    1.084   .     S
C125   C135    1.386   .     A
C126   C128    1.384   .     A
C126   H140    1.084   .     S
C126   C136    1.386   .     A
C127   C129    1.404   .     A
C128   C130    1.404   .     A
C129   C131    1.406   .     A
C129   C159    1.522   .     S
C130   C163    1.522   .     S
C130   C132    1.406   .     A
C131   C137    1.405   .     A
C131   C133    1.422   .     A
C132   C134    1.422   .     A
C132   C138    1.405   .     A
C133   C135    1.418   .     A
C133   C656    1.401   1_554 S
C134   C136    1.418   .     A
C134   C655    1.401   .     S
C137   H141    1.081   .     S
C137   C641    1.389   1_554 S
C138   H142    1.081   .     S
C138   C642    1.389   .     S
H143   C469    1.088   1_545 S
H144   C296    1.088   .     S
H146   N32     1.029   1_655 S
N147   Zn158   2.019   .     S
N147   H29     1.029   1_655 S
N147   N32     1.276   1_655 S
N148   Zn157   2.019   .     S
O149   Zn157   1.954   .     S
O150   Zn158   1.954   .     S
O151   Zn158   1.975   .     S
O152   Zn157   1.975   .     S
O153   Zn157   1.997   .     S
O154   Zn158   1.997   .     S
O155   Zn158   2.020   .     S
O156   Zn157   2.020   .     S
C159   H161    1.105   .     S
C159   H160    1.109   .     S
C159   H162    1.110   .     S
C163   H164    1.109   .     S
C163   H166    1.105   .     S
C163   H165    1.110   .     S
C167   H170    1.109   .     S
C167   H168    1.111   .     S
C167   H169    1.110   .     S
C171   H172    1.111   .     S
C171   H173    1.109   .     S
C171   H174    1.110   .     S
C175   O207    1.277   .     A
C175   C179    1.400   .     S
C175   O209    1.287   .     A
C176   O208    1.277   .     A
C176   C180    1.400   .     S
C176   O210    1.287   .     A
C177   C194    1.412   .     A
C177   C225    1.512   .     S
C177   C717    1.389   .     S
C178   C229    1.512   .     S
C178   C193    1.412   .     A
C178   C718    1.389   1_554 S
C179   C354    1.335   .     S
C179   H375    1.088   .     S
C181   O211    1.285   .     A
C181   C186    1.422   .     S
C181   O213    1.286   .     A
C182   O212    1.285   .     A
C182   C185    1.422   .     S
C182   O214    1.286   .     A
C183   C185    1.384   .     A
C183   H197    1.084   .     S
C183   C193    1.386   .     A
C184   C186    1.384   .     A
C184   H198    1.084   .     S
C184   C194    1.386   .     A
C185   C187    1.404   .     A
C186   C188    1.404   .     A
C187   C189    1.406   .     A
C187   C217    1.522   .     S
C188   C221    1.522   .     S
C188   C190    1.406   .     A
C189   C195    1.405   .     A
C189   C191    1.422   .     A
C190   C192    1.422   .     A
C190   C196    1.405   .     A
C191   C193    1.418   .     A
C191   C714    1.401   1_554 S
C192   C194    1.418   .     A
C192   C713    1.401   .     S
C195   H199    1.081   .     S
C195   C699    1.389   1_554 S
C196   H200    1.081   .     S
C196   C700    1.389   .     S
H202   C354    1.088   .     S
H203   N321    1.029   1_455 S
H204   N264    1.029   .     S
N205   Zn216   2.019   .     S
N205   H261    1.029   .     S
N205   N264    1.276   .     S
N206   Zn215   2.019   .     S
N206   N321    1.276   1_455 S
N206   H320    1.029   1_455 S
O207   Zn215   1.954   .     S
O208   Zn216   1.954   .     S
O209   Zn216   1.975   .     S
O210   Zn215   1.975   .     S
O211   Zn215   1.997   .     S
O212   Zn216   1.997   .     S
O213   Zn216   2.020   .     S
O214   Zn215   2.020   .     S
C217   H219    1.105   .     S
C217   H218    1.109   .     S
C217   H220    1.110   .     S
C221   H222    1.109   .     S
C221   H224    1.105   .     S
C221   H223    1.110   .     S
C225   H228    1.109   .     S
C225   H226    1.111   .     S
C225   H227    1.110   .     S
C229   H230    1.111   .     S
C229   H231    1.109   .     S
C229   H232    1.110   .     S
C233   O265    1.277   .     A
C233   C237    1.400   .     S
C233   O267    1.287   .     A
C234   O266    1.277   .     A
C234   C238    1.400   .     S
C234   O268    1.287   .     A
C235   C252    1.412   .     A
C235   C283    1.512   .     S
C235   C775    1.389   .     S
C236   C287    1.512   .     S
C236   C251    1.412   .     A
C236   C776    1.389   1_554 S
C237   C412    1.335   .     S
C237   H433    1.088   .     S
C239   O269    1.285   .     A
C239   C244    1.422   .     S
C239   O271    1.286   .     A
C240   O270    1.285   .     A
C240   C243    1.422   .     S
C240   O272    1.286   .     A
C241   C243    1.384   .     A
C241   H255    1.084   .     S
C241   C251    1.386   .     A
C242   C244    1.384   .     A
C242   H256    1.084   .     S
C242   C252    1.386   .     A
C243   C245    1.404   .     A
C244   C246    1.404   .     A
C245   C247    1.406   .     A
C245   C275    1.522   .     S
C246   C279    1.522   .     S
C246   C248    1.406   .     A
C247   C253    1.405   .     A
C247   C249    1.422   .     A
C248   C250    1.422   .     A
C248   C254    1.405   .     A
C249   C251    1.418   .     A
C249   C772    1.401   1_554 S
C250   C252    1.418   .     A
C250   C771    1.401   .     S
C253   H257    1.081   .     S
C253   C757    1.389   1_554 S
C254   H258    1.081   .     S
C254   C758    1.389   .     S
H260   C412    1.088   .     S
H262   N322    1.029   .     S
N263   Zn274   2.019   .     S
N263   H319    1.029   .     S
N263   N322    1.276   .     S
N264   Zn273   2.019   .     S
O265   Zn273   1.954   .     S
O266   Zn274   1.954   .     S
O267   Zn274   1.975   .     S
O268   Zn273   1.975   .     S
O269   Zn273   1.997   .     S
O270   Zn274   1.997   .     S
O271   Zn274   2.020   .     S
O272   Zn273   2.020   .     S
C275   H277    1.105   .     S
C275   H276    1.109   .     S
C275   H278    1.110   .     S
C279   H280    1.109   .     S
C279   H282    1.105   .     S
C279   H281    1.110   .     S
C283   H286    1.109   .     S
C283   H284    1.111   .     S
C283   H285    1.110   .     S
C287   H288    1.111   .     S
C287   H289    1.109   .     S
C287   H290    1.110   .     S
C291   O323    1.277   .     A
C291   C295    1.400   .     S
C291   O325    1.287   .     A
C292   O324    1.277   .     A
C292   C296    1.400   .     S
C292   O326    1.287   .     A
C293   C310    1.412   .     A
C293   C341    1.512   .     S
C293   C833    1.389   .     S
C294   C345    1.512   .     S
C294   C309    1.412   .     A
C294   C834    1.389   1_554 S
C295   C470    1.335   .     S
C295   H491    1.088   .     S
C297   O327    1.285   .     A
C297   C302    1.422   .     S
C297   O329    1.286   .     A
C298   O328    1.285   .     A
C298   C301    1.422   .     S
C298   O330    1.286   .     A
C299   C301    1.384   .     A
C299   H313    1.084   .     S
C299   C309    1.386   .     A
C300   C302    1.384   .     A
C300   H314    1.084   .     S
C300   C310    1.386   .     A
C301   C303    1.404   .     A
C302   C304    1.404   .     A
C303   C305    1.406   .     A
C303   C333    1.522   .     S
C304   C337    1.522   .     S
C304   C306    1.406   .     A
C305   C311    1.405   .     A
C305   C307    1.422   .     A
C306   C308    1.422   .     A
C306   C312    1.405   .     A
C307   C309    1.418   .     A
C307   C830    1.401   1_554 S
C308   C310    1.418   .     A
C308   C829    1.401   .     S
C311   H315    1.081   .     S
C311   C815    1.389   1_554 S
C312   H316    1.081   .     S
C312   C816    1.389   .     S
H318   C470    1.088   .     S
H320   N206    1.029   1_655 S
N321   Zn332   2.019   .     S
N321   H203    1.029   1_655 S
N321   N206    1.276   1_655 S
N322   Zn331   2.019   .     S
O323   Zn331   1.954   .     S
O324   Zn332   1.954   .     S
O325   Zn332   1.975   .     S
O326   Zn331   1.975   .     S
O327   Zn331   1.997   .     S
O328   Zn332   1.997   .     S
O329   Zn332   2.020   .     S
O330   Zn331   2.020   .     S
C333   H335    1.105   .     S
C333   H334    1.109   .     S
C333   H336    1.110   .     S
C337   H338    1.109   .     S
C337   H340    1.105   .     S
C337   H339    1.110   .     S
C341   H344    1.109   .     S
C341   H342    1.111   .     S
C341   H343    1.110   .     S
C345   H346    1.111   .     S
C345   H347    1.109   .     S
C345   H348    1.110   .     S
C349   O381    1.277   .     A
C349   C353    1.400   .     S
C349   O383    1.287   .     A
C350   O382    1.277   .     A
C350   C354    1.400   .     S
C350   O384    1.287   .     A
C351   C368    1.412   .     A
C351   C399    1.512   .     S
C351   C891    1.389   .     S
C352   C403    1.512   .     S
C352   C367    1.412   .     A
C352   C892    1.389   1_554 S
C353   C6      1.335   1_565 S
C353   H27     1.088   1_565 S
C355   O385    1.285   .     A
C355   C360    1.422   .     S
C355   O387    1.286   .     A
C356   O386    1.285   .     A
C356   C359    1.422   .     S
C356   O388    1.286   .     A
C357   C359    1.384   .     A
C357   H371    1.084   .     S
C357   C367    1.386   .     A
C358   C360    1.384   .     A
C358   H372    1.084   .     S
C358   C368    1.386   .     A
C359   C361    1.404   .     A
C360   C362    1.404   .     A
C361   C363    1.406   .     A
C361   C391    1.522   .     S
C362   C395    1.522   .     S
C362   C364    1.406   .     A
C363   C369    1.405   .     A
C363   C365    1.422   .     A
C364   C366    1.422   .     A
C364   C370    1.405   .     A
C365   C367    1.418   .     A
C365   C888    1.401   1_554 S
C366   C368    1.418   .     A
C366   C887    1.401   .     S
C369   H373    1.081   .     S
C369   C873    1.389   1_554 S
C370   H374    1.081   .     S
C370   C874    1.389   .     S
H376   C6      1.088   1_565 S
H377   N495    1.029   1_455 S
H378   N438    1.029   .     S
N379   Zn390   2.019   .     S
N379   H435    1.029   .     S
N379   N438    1.276   .     S
N380   Zn389   2.019   .     S
N380   N495    1.276   1_455 S
N380   H494    1.029   1_455 S
O381   Zn389   1.954   .     S
O382   Zn390   1.954   .     S
O383   Zn390   1.975   .     S
O384   Zn389   1.975   .     S
O385   Zn389   1.997   .     S
O386   Zn390   1.997   .     S
O387   Zn390   2.020   .     S
O388   Zn389   2.020   .     S
C391   H393    1.105   .     S
C391   H392    1.109   .     S
C391   H394    1.110   .     S
C395   H396    1.109   .     S
C395   H398    1.105   .     S
C395   H397    1.110   .     S
C399   H402    1.109   .     S
C399   H400    1.111   .     S
C399   H401    1.110   .     S
C403   H404    1.111   .     S
C403   H405    1.109   .     S
C403   H406    1.110   .     S
C407   O439    1.277   .     A
C407   C411    1.400   .     S
C407   O441    1.287   .     A
C408   O440    1.277   .     A
C408   C412    1.400   .     S
C408   O442    1.287   .     A
C409   C426    1.412   .     A
C409   C457    1.512   .     S
C409   C949    1.389   .     S
C410   C461    1.512   .     S
C410   C425    1.412   .     A
C410   C950    1.389   1_554 S
C411   C64     1.335   1_565 S
C411   H85     1.088   1_565 S
C413   O443    1.285   .     A
C413   C418    1.422   .     S
C413   O445    1.286   .     A
C414   O444    1.285   .     A
C414   C417    1.422   .     S
C414   O446    1.286   .     A
C415   C417    1.384   .     A
C415   H429    1.084   .     S
C415   C425    1.386   .     A
C416   C418    1.384   .     A
C416   H430    1.084   .     S
C416   C426    1.386   .     A
C417   C419    1.404   .     A
C418   C420    1.404   .     A
C419   C421    1.406   .     A
C419   C449    1.522   .     S
C420   C453    1.522   .     S
C420   C422    1.406   .     A
C421   C427    1.405   .     A
C421   C423    1.422   .     A
C422   C424    1.422   .     A
C422   C428    1.405   .     A
C423   C425    1.418   .     A
C423   C946    1.401   1_554 S
C424   C426    1.418   .     A
C424   C945    1.401   .     S
C427   H431    1.081   .     S
C427   C931    1.389   1_554 S
C428   H432    1.081   .     S
C428   C932    1.389   .     S
H434   C64     1.088   1_565 S
H436   N496    1.029   .     S
N437   Zn448   2.019   .     S
N437   H493    1.029   .     S
N437   N496    1.276   .     S
N438   Zn447   2.019   .     S
O439   Zn447   1.954   .     S
O440   Zn448   1.954   .     S
O441   Zn448   1.975   .     S
O442   Zn447   1.975   .     S
O443   Zn447   1.997   .     S
O444   Zn448   1.997   .     S
O445   Zn448   2.020   .     S
O446   Zn447   2.020   .     S
C449   H451    1.105   .     S
C449   H450    1.109   .     S
C449   H452    1.110   .     S
C453   H454    1.109   .     S
C453   H456    1.105   .     S
C453   H455    1.110   .     S
C457   H460    1.109   .     S
C457   H458    1.111   .     S
C457   H459    1.110   .     S
C461   H462    1.111   .     S
C461   H463    1.109   .     S
C461   H464    1.110   .     S
C465   O497    1.277   .     A
C465   C469    1.400   .     S
C465   O499    1.287   .     A
C466   O498    1.277   .     A
C466   C470    1.400   .     S
C466   O500    1.287   .     A
C467   C484    1.412   .     A
C467   C515    1.512   .     S
C467   C1007   1.389   .     S
C468   C519    1.512   .     S
C468   C483    1.412   .     A
C468   C1008   1.389   1_554 S
C469   C122    1.335   1_565 S
C469   H143    1.088   1_565 S
C471   O501    1.285   .     A
C471   C476    1.422   .     S
C471   O503    1.286   .     A
C472   O502    1.285   .     A
C472   C475    1.422   .     S
C472   O504    1.286   .     A
C473   C475    1.384   .     A
C473   H487    1.084   .     S
C473   C483    1.386   .     A
C474   C476    1.384   .     A
C474   H488    1.084   .     S
C474   C484    1.386   .     A
C475   C477    1.404   .     A
C476   C478    1.404   .     A
C477   C479    1.406   .     A
C477   C507    1.522   .     S
C478   C511    1.522   .     S
C478   C480    1.406   .     A
C479   C485    1.405   .     A
C479   C481    1.422   .     A
C480   C482    1.422   .     A
C480   C486    1.405   .     A
C481   C483    1.418   .     A
C481   C1004   1.401   1_554 S
C482   C484    1.418   .     A
C482   C1003   1.401   .     S
C485   H489    1.081   .     S
C485   C989    1.389   1_554 S
C486   H490    1.081   .     S
C486   C990    1.389   .     S
H492   C122    1.088   1_565 S
H494   N380    1.029   1_655 S
N495   Zn506   2.019   .     S
N495   H377    1.029   1_655 S
N495   N380    1.276   1_655 S
N496   Zn505   2.019   .     S
O497   Zn505   1.954   .     S
O498   Zn506   1.954   .     S
O499   Zn506   1.975   .     S
O500   Zn505   1.975   .     S
O501   Zn505   1.997   .     S
O502   Zn506   1.997   .     S
O503   Zn506   2.020   .     S
O504   Zn505   2.020   .     S
C507   H509    1.105   .     S
C507   H508    1.109   .     S
C507   H510    1.110   .     S
C511   H512    1.109   .     S
C511   H514    1.105   .     S
C511   H513    1.110   .     S
C515   H518    1.109   .     S
C515   H516    1.111   .     S
C515   H517    1.110   .     S
C519   H520    1.111   .     S
C519   H521    1.109   .     S
C519   H522    1.110   .     S
C523   O555    1.277   .     A
C523   C527    1.400   .     S
C523   O557    1.287   .     A
C524   O556    1.277   .     A
C524   C528    1.400   .     S
C524   O558    1.287   .     A
C525   C542    1.412   .     A
C525   C573    1.512   .     S
C525   C21     1.389   1_556 S
C526   C577    1.512   .     S
C526   C541    1.412   .     A
C527   C702    1.335   .     S
C527   H723    1.088   .     S
C528   C875    1.335   1_545 S
C528   H898    1.088   1_545 S
C529   O559    1.285   .     A
C529   C534    1.422   .     S
C529   O561    1.286   .     A
C530   O560    1.285   .     A
C530   C533    1.422   .     S
C530   O562    1.286   .     A
C531   C533    1.384   .     A
C531   H545    1.084   .     S
C531   C541    1.386   .     A
C532   C534    1.384   .     A
C532   H546    1.084   .     S
C532   C542    1.386   .     A
C533   C535    1.404   .     A
C534   C536    1.404   .     A
C535   C537    1.406   .     A
C535   C565    1.522   .     S
C536   C569    1.522   .     S
C536   C538    1.406   .     A
C537   C543    1.405   .     A
C537   C539    1.422   .     A
C538   C540    1.422   .     A
C538   C544    1.405   .     A
C539   C541    1.418   .     A
C540   C542    1.418   .     A
C540   C17     1.401   1_556 S
C543   H547    1.081   .     S
C544   H548    1.081   .     S
C544   C4      1.389   1_556 S
H549   C875    1.088   1_545 S
H550   C702    1.088   .     S
H551   N669    1.029   1_455 S
H552   N612    1.029   .     S
N553   Zn564   2.019   .     S
N553   H609    1.029   .     S
N553   N612    1.276   .     S
N554   Zn563   2.019   .     S
N554   N669    1.276   1_455 S
N554   H668    1.029   1_455 S
O555   Zn563   1.954   .     S
O556   Zn564   1.954   .     S
O557   Zn564   1.975   .     S
O558   Zn563   1.975   .     S
O559   Zn563   1.997   .     S
O560   Zn564   1.997   .     S
O561   Zn564   2.020   .     S
O562   Zn563   2.020   .     S
C565   H567    1.105   .     S
C565   H566    1.109   .     S
C565   H568    1.110   .     S
C569   H570    1.109   .     S
C569   H572    1.105   .     S
C569   H571    1.110   .     S
C573   H576    1.109   .     S
C573   H574    1.111   .     S
C573   H575    1.110   .     S
C577   H578    1.111   .     S
C577   H579    1.109   .     S
C577   H580    1.110   .     S
C581   O613    1.277   .     A
C581   C585    1.400   .     S
C581   O615    1.287   .     A
C582   O614    1.277   .     A
C582   C586    1.400   .     S
C582   O616    1.287   .     A
C583   C600    1.412   .     A
C583   C631    1.512   .     S
C583   C79     1.389   1_556 S
C584   C635    1.512   .     S
C584   C599    1.412   .     A
C585   C760    1.335   .     S
C585   H781    1.088   .     S
C586   C933    1.335   1_545 S
C586   H956    1.088   1_545 S
C587   O617    1.285   .     A
C587   C592    1.422   .     S
C587   O619    1.286   .     A
C588   O618    1.285   .     A
C588   C591    1.422   .     S
C588   O620    1.286   .     A
C589   C591    1.384   .     A
C589   H603    1.084   .     S
C589   C599    1.386   .     A
C590   C592    1.384   .     A
C590   H604    1.084   .     S
C590   C600    1.386   .     A
C591   C593    1.404   .     A
C592   C594    1.404   .     A
C593   C595    1.406   .     A
C593   C623    1.522   .     S
C594   C627    1.522   .     S
C594   C596    1.406   .     A
C595   C601    1.405   .     A
C595   C597    1.422   .     A
C596   C598    1.422   .     A
C596   C602    1.405   .     A
C597   C599    1.418   .     A
C598   C600    1.418   .     A
C598   C75     1.401   1_556 S
C601   H605    1.081   .     S
C602   H606    1.081   .     S
C602   C62     1.389   1_556 S
H607   C933    1.088   1_545 S
H608   C760    1.088   .     S
H610   N670    1.029   .     S
N611   Zn622   2.019   .     S
N611   H667    1.029   .     S
N611   N670    1.276   .     S
N612   Zn621   2.019   .     S
O613   Zn621   1.954   .     S
O614   Zn622   1.954   .     S
O615   Zn622   1.975   .     S
O616   Zn621   1.975   .     S
O617   Zn621   1.997   .     S
O618   Zn622   1.997   .     S
O619   Zn622   2.020   .     S
O620   Zn621   2.020   .     S
C623   H625    1.105   .     S
C623   H624    1.109   .     S
C623   H626    1.110   .     S
C627   H628    1.109   .     S
C627   H630    1.105   .     S
C627   H629    1.110   .     S
C631   H634    1.109   .     S
C631   H632    1.111   .     S
C631   H633    1.110   .     S
C635   H636    1.111   .     S
C635   H637    1.109   .     S
C635   H638    1.110   .     S
C639   O671    1.277   .     A
C639   C643    1.400   .     S
C639   O673    1.287   .     A
C640   O672    1.277   .     A
C640   C644    1.400   .     S
C640   O674    1.287   .     A
C641   C658    1.412   .     A
C641   C689    1.512   .     S
C641   C137    1.389   1_556 S
C642   C693    1.512   .     S
C642   C657    1.412   .     A
C643   C818    1.335   .     S
C643   H839    1.088   .     S
C644   C991    1.335   1_545 S
C644   H1014   1.088   1_545 S
C645   O675    1.285   .     A
C645   C650    1.422   .     S
C645   O677    1.286   .     A
C646   O676    1.285   .     A
C646   C649    1.422   .     S
C646   O678    1.286   .     A
C647   C649    1.384   .     A
C647   H661    1.084   .     S
C647   C657    1.386   .     A
C648   C650    1.384   .     A
C648   H662    1.084   .     S
C648   C658    1.386   .     A
C649   C651    1.404   .     A
C650   C652    1.404   .     A
C651   C653    1.406   .     A
C651   C681    1.522   .     S
C652   C685    1.522   .     S
C652   C654    1.406   .     A
C653   C659    1.405   .     A
C653   C655    1.422   .     A
C654   C656    1.422   .     A
C654   C660    1.405   .     A
C655   C657    1.418   .     A
C656   C658    1.418   .     A
C656   C133    1.401   1_556 S
C659   H663    1.081   .     S
C660   H664    1.081   .     S
C660   C120    1.389   1_556 S
H665   C991    1.088   1_545 S
H666   C818    1.088   .     S
H668   N554    1.029   1_655 S
N669   Zn680   2.019   .     S
N669   H551    1.029   1_655 S
N669   N554    1.276   1_655 S
N670   Zn679   2.019   .     S
O671   Zn679   1.954   .     S
O672   Zn680   1.954   .     S
O673   Zn680   1.975   .     S
O674   Zn679   1.975   .     S
O675   Zn679   1.997   .     S
O676   Zn680   1.997   .     S
O677   Zn680   2.020   .     S
O678   Zn679   2.020   .     S
C681   H683    1.105   .     S
C681   H682    1.109   .     S
C681   H684    1.110   .     S
C685   H686    1.109   .     S
C685   H688    1.105   .     S
C685   H687    1.110   .     S
C689   H692    1.109   .     S
C689   H690    1.111   .     S
C689   H691    1.110   .     S
C693   H694    1.111   .     S
C693   H695    1.109   .     S
C693   H696    1.110   .     S
C697   O729    1.277   .     A
C697   C701    1.400   .     S
C697   O731    1.287   .     A
C698   O730    1.277   .     A
C698   C702    1.400   .     S
C698   O732    1.287   .     A
C699   C716    1.412   .     A
C699   C747    1.512   .     S
C699   C195    1.389   1_556 S
C700   C751    1.512   .     S
C700   C715    1.412   .     A
C701   C876    1.335   .     S
C701   H897    1.088   .     S
C703   O733    1.285   .     A
C703   C708    1.422   .     S
C703   O735    1.286   .     A
C704   O734    1.285   .     A
C704   C707    1.422   .     S
C704   O736    1.286   .     A
C705   C707    1.384   .     A
C705   H719    1.084   .     S
C705   C715    1.386   .     A
C706   C708    1.384   .     A
C706   H720    1.084   .     S
C706   C716    1.386   .     A
C707   C709    1.404   .     A
C708   C710    1.404   .     A
C709   C711    1.406   .     A
C709   C739    1.522   .     S
C710   C743    1.522   .     S
C710   C712    1.406   .     A
C711   C717    1.405   .     A
C711   C713    1.422   .     A
C712   C714    1.422   .     A
C712   C718    1.405   .     A
C713   C715    1.418   .     A
C714   C716    1.418   .     A
C714   C191    1.401   1_556 S
C717   H721    1.081   .     S
C718   H722    1.081   .     S
C718   C178    1.389   1_556 S
H724   C876    1.088   .     S
H725   N843    1.029   1_455 S
H726   N786    1.029   .     S
N727   Zn738   2.019   .     S
N727   H783    1.029   .     S
N727   N786    1.276   .     S
N728   Zn737   2.019   .     S
N728   N843    1.276   1_455 S
N728   H842    1.029   1_455 S
O729   Zn737   1.954   .     S
O730   Zn738   1.954   .     S
O731   Zn738   1.975   .     S
O732   Zn737   1.975   .     S
O733   Zn737   1.997   .     S
O734   Zn738   1.997   .     S
O735   Zn738   2.020   .     S
O736   Zn737   2.020   .     S
C739   H741    1.105   .     S
C739   H740    1.109   .     S
C739   H742    1.110   .     S
C743   H744    1.109   .     S
C743   H746    1.105   .     S
C743   H745    1.110   .     S
C747   H750    1.109   .     S
C747   H748    1.111   .     S
C747   H749    1.110   .     S
C751   H752    1.111   .     S
C751   H753    1.109   .     S
C751   H754    1.110   .     S
C755   O787    1.277   .     A
C755   C759    1.400   .     S
C755   O789    1.287   .     A
C756   O788    1.277   .     A
C756   C760    1.400   .     S
C756   O790    1.287   .     A
C757   C774    1.412   .     A
C757   C805    1.512   .     S
C757   C253    1.389   1_556 S
C758   C809    1.512   .     S
C758   C773    1.412   .     A
C759   C934    1.335   .     S
C759   H955    1.088   .     S
C761   O791    1.285   .     A
C761   C766    1.422   .     S
C761   O793    1.286   .     A
C762   O792    1.285   .     A
C762   C765    1.422   .     S
C762   O794    1.286   .     A
C763   C765    1.384   .     A
C763   H777    1.084   .     S
C763   C773    1.386   .     A
C764   C766    1.384   .     A
C764   H778    1.084   .     S
C764   C774    1.386   .     A
C765   C767    1.404   .     A
C766   C768    1.404   .     A
C767   C769    1.406   .     A
C767   C797    1.522   .     S
C768   C801    1.522   .     S
C768   C770    1.406   .     A
C769   C775    1.405   .     A
C769   C771    1.422   .     A
C770   C772    1.422   .     A
C770   C776    1.405   .     A
C771   C773    1.418   .     A
C772   C774    1.418   .     A
C772   C249    1.401   1_556 S
C775   H779    1.081   .     S
C776   H780    1.081   .     S
C776   C236    1.389   1_556 S
H782   C934    1.088   .     S
H784   N844    1.029   .     S
N785   Zn796   2.019   .     S
N785   H841    1.029   .     S
N785   N844    1.276   .     S
N786   Zn795   2.019   .     S
O787   Zn795   1.954   .     S
O788   Zn796   1.954   .     S
O789   Zn796   1.975   .     S
O790   Zn795   1.975   .     S
O791   Zn795   1.997   .     S
O792   Zn796   1.997   .     S
O793   Zn796   2.020   .     S
O794   Zn795   2.020   .     S
C797   H799    1.105   .     S
C797   H798    1.109   .     S
C797   H800    1.110   .     S
C801   H802    1.109   .     S
C801   H804    1.105   .     S
C801   H803    1.110   .     S
C805   H808    1.109   .     S
C805   H806    1.111   .     S
C805   H807    1.110   .     S
C809   H810    1.111   .     S
C809   H811    1.109   .     S
C809   H812    1.110   .     S
C813   O845    1.277   .     A
C813   C817    1.400   .     S
C813   O847    1.287   .     A
C814   O846    1.277   .     A
C814   C818    1.400   .     S
C814   O848    1.287   .     A
C815   C832    1.412   .     A
C815   C863    1.512   .     S
C815   C311    1.389   1_556 S
C816   C867    1.512   .     S
C816   C831    1.412   .     A
C817   C992    1.335   .     S
C817   H1013   1.088   .     S
C819   O849    1.285   .     A
C819   C824    1.422   .     S
C819   O851    1.286   .     A
C820   O850    1.285   .     A
C820   C823    1.422   .     S
C820   O852    1.286   .     A
C821   C823    1.384   .     A
C821   H835    1.084   .     S
C821   C831    1.386   .     A
C822   C824    1.384   .     A
C822   H836    1.084   .     S
C822   C832    1.386   .     A
C823   C825    1.404   .     A
C824   C826    1.404   .     A
C825   C827    1.406   .     A
C825   C855    1.522   .     S
C826   C859    1.522   .     S
C826   C828    1.406   .     A
C827   C833    1.405   .     A
C827   C829    1.422   .     A
C828   C830    1.422   .     A
C828   C834    1.405   .     A
C829   C831    1.418   .     A
C830   C832    1.418   .     A
C830   C307    1.401   1_556 S
C833   H837    1.081   .     S
C834   H838    1.081   .     S
C834   C294    1.389   1_556 S
H840   C992    1.088   .     S
H842   N728    1.029   1_655 S
N843   Zn854   2.019   .     S
N843   H725    1.029   1_655 S
N843   N728    1.276   1_655 S
N844   Zn853   2.019   .     S
O845   Zn853   1.954   .     S
O846   Zn854   1.954   .     S
O847   Zn854   1.975   .     S
O848   Zn853   1.975   .     S
O849   Zn853   1.997   .     S
O850   Zn854   1.997   .     S
O851   Zn854   2.020   .     S
O852   Zn853   2.020   .     S
C855   H857    1.105   .     S
C855   H856    1.109   .     S
C855   H858    1.110   .     S
C859   H860    1.109   .     S
C859   H862    1.105   .     S
C859   H861    1.110   .     S
C863   H866    1.109   .     S
C863   H864    1.111   .     S
C863   H865    1.110   .     S
C867   H868    1.111   .     S
C867   H869    1.109   .     S
C867   H870    1.110   .     S
C871   O903    1.277   .     A
C871   C875    1.400   .     S
C871   O905    1.287   .     A
C872   O904    1.277   .     A
C872   C876    1.400   .     S
C872   O906    1.287   .     A
C873   C890    1.412   .     A
C873   C921    1.512   .     S
C873   C369    1.389   1_556 S
C874   C925    1.512   .     S
C874   C889    1.412   .     A
C875   C528    1.335   1_565 S
C875   H549    1.088   1_565 S
C877   O907    1.285   .     A
C877   C882    1.422   .     S
C877   O909    1.286   .     A
C878   O908    1.285   .     A
C878   C881    1.422   .     S
C878   O910    1.286   .     A
C879   C881    1.384   .     A
C879   H893    1.084   .     S
C879   C889    1.386   .     A
C880   C882    1.384   .     A
C880   H894    1.084   .     S
C880   C890    1.386   .     A
C881   C883    1.404   .     A
C882   C884    1.404   .     A
C883   C885    1.406   .     A
C883   C913    1.522   .     S
C884   C917    1.522   .     S
C884   C886    1.406   .     A
C885   C891    1.405   .     A
C885   C887    1.422   .     A
C886   C888    1.422   .     A
C886   C892    1.405   .     A
C887   C889    1.418   .     A
C888   C890    1.418   .     A
C888   C365    1.401   1_556 S
C891   H895    1.081   .     S
C892   H896    1.081   .     S
C892   C352    1.389   1_556 S
H898   C528    1.088   1_565 S
H899   N1017   1.029   1_455 S
H900   N960    1.029   .     S
N901   Zn912   2.019   .     S
N901   H957    1.029   .     S
N901   N960    1.276   .     S
N902   Zn911   2.019   .     S
N902   N1017   1.276   1_455 S
N902   H1016   1.029   1_455 S
O903   Zn911   1.954   .     S
O904   Zn912   1.954   .     S
O905   Zn912   1.975   .     S
O906   Zn911   1.975   .     S
O907   Zn911   1.997   .     S
O908   Zn912   1.997   .     S
O909   Zn912   2.020   .     S
O910   Zn911   2.020   .     S
C913   H915    1.105   .     S
C913   H914    1.109   .     S
C913   H916    1.110   .     S
C917   H918    1.109   .     S
C917   H920    1.105   .     S
C917   H919    1.110   .     S
C921   H924    1.109   .     S
C921   H922    1.111   .     S
C921   H923    1.110   .     S
C925   H926    1.111   .     S
C925   H927    1.109   .     S
C925   H928    1.110   .     S
C929   O961    1.277   .     A
C929   C933    1.400   .     S
C929   O963    1.287   .     A
C930   O962    1.277   .     A
C930   C934    1.400   .     S
C930   O964    1.287   .     A
C931   C948    1.412   .     A
C931   C979    1.512   .     S
C931   C427    1.389   1_556 S
C932   C983    1.512   .     S
C932   C947    1.412   .     A
C933   C586    1.335   1_565 S
C933   H607    1.088   1_565 S
C935   O965    1.285   .     A
C935   C940    1.422   .     S
C935   O967    1.286   .     A
C936   O966    1.285   .     A
C936   C939    1.422   .     S
C936   O968    1.286   .     A
C937   C939    1.384   .     A
C937   H951    1.084   .     S
C937   C947    1.386   .     A
C938   C940    1.384   .     A
C938   H952    1.084   .     S
C938   C948    1.386   .     A
C939   C941    1.404   .     A
C940   C942    1.404   .     A
C941   C943    1.406   .     A
C941   C971    1.522   .     S
C942   C975    1.522   .     S
C942   C944    1.406   .     A
C943   C949    1.405   .     A
C943   C945    1.422   .     A
C944   C946    1.422   .     A
C944   C950    1.405   .     A
C945   C947    1.418   .     A
C946   C948    1.418   .     A
C946   C423    1.401   1_556 S
C949   H953    1.081   .     S
C950   H954    1.081   .     S
C950   C410    1.389   1_556 S
H956   C586    1.088   1_565 S
H958   N1018   1.029   .     S
N959   Zn970   2.019   .     S
N959   H1015   1.029   .     S
N959   N1018   1.276   .     S
N960   Zn969   2.019   .     S
O961   Zn969   1.954   .     S
O962   Zn970   1.954   .     S
O963   Zn970   1.975   .     S
O964   Zn969   1.975   .     S
O965   Zn969   1.997   .     S
O966   Zn970   1.997   .     S
O967   Zn970   2.020   .     S
O968   Zn969   2.020   .     S
C971   H973    1.105   .     S
C971   H972    1.109   .     S
C971   H974    1.110   .     S
C975   H976    1.109   .     S
C975   H978    1.105   .     S
C975   H977    1.110   .     S
C979   H982    1.109   .     S
C979   H980    1.111   .     S
C979   H981    1.110   .     S
C983   H984    1.111   .     S
C983   H985    1.109   .     S
C983   H986    1.110   .     S
C987   O1019   1.277   .     A
C987   C991    1.400   .     S
C987   O1021   1.287   .     A
C988   O1020   1.277   .     A
C988   C992    1.400   .     S
C988   O1022   1.287   .     A
C989   C1006   1.412   .     A
C989   C1037   1.512   .     S
C989   C485    1.389   1_556 S
C990   C1041   1.512   .     S
C990   C1005   1.412   .     A
C991   C644    1.335   1_565 S
C991   H665    1.088   1_565 S
C993   O1023   1.285   .     A
C993   C998    1.422   .     S
C993   O1025   1.286   .     A
C994   O1024   1.285   .     A
C994   C997    1.422   .     S
C994   O1026   1.286   .     A
C995   C997    1.384   .     A
C995   H1009   1.084   .     S
C995   C1005   1.386   .     A
C996   C998    1.384   .     A
C996   H1010   1.084   .     S
C996   C1006   1.386   .     A
C997   C999    1.404   .     A
C998   C1000   1.404   .     A
C999   C1001   1.406   .     A
C999   C1029   1.522   .     S
C1000  C1033   1.522   .     S
C1000  C1002   1.406   .     A
C1001  C1007   1.405   .     A
C1001  C1003   1.422   .     A
C1002  C1004   1.422   .     A
C1002  C1008   1.405   .     A
C1003  C1005   1.418   .     A
C1004  C1006   1.418   .     A
C1004  C481    1.401   1_556 S
C1007  H1011   1.081   .     S
C1008  H1012   1.081   .     S
C1008  C468    1.389   1_556 S
H1014  C644    1.088   1_565 S
H1016  N902    1.029   1_655 S
N1017  Zn1028  2.019   .     S
N1017  H899    1.029   1_655 S
N1017  N902    1.276   1_655 S
N1018  Zn1027  2.019   .     S
O1019  Zn1027  1.954   .     S
O1020  Zn1028  1.954   .     S
O1021  Zn1028  1.975   .     S
O1022  Zn1027  1.975   .     S
O1023  Zn1027  1.997   .     S
O1024  Zn1028  1.997   .     S
O1025  Zn1028  2.020   .     S
O1026  Zn1027  2.020   .     S
C1029  H1031   1.105   .     S
C1029  H1030   1.109   .     S
C1029  H1032   1.110   .     S
C1033  H1034   1.109   .     S
C1033  H1036   1.105   .     S
C1033  H1035   1.110   .     S
C1037  H1040   1.109   .     S
C1037  H1038   1.111   .     S
C1037  H1039   1.110   .     S
C1041  H1042   1.111   .     S
C1041  H1043   1.109   .     S
C1041  H1044   1.110   .     S
