data_str_m2_o1_o10_pcu_sym.65
_audit_creation_date              2020-01-03
_audit_creation_method            'Materials Studio'
_symmetry_space_group_name_H-M    'P1'
_symmetry_Int_Tables_number       1
_symmetry_cell_setting            triclinic
loop_
_symmetry_equiv_pos_as_xyz
  x,y,z
_cell_length_a                    26.1605
_cell_length_b                    32.8269
_cell_length_c                    28.8651
_cell_angle_alpha                 90.8373
_cell_angle_beta                  98.1026
_cell_angle_gamma                 93.0108
loop_
_atom_site_label
_atom_site_type_symbol
_atom_site_fract_x
_atom_site_fract_y
_atom_site_fract_z
_atom_site_U_iso_or_equiv
_atom_site_adp_type
_atom_site_occupancy
Br1    Br    0.08034   0.10740   0.04400   0.00000  Uiso   1.00
Br2    Br    0.25299   0.22594   0.28934   0.00000  Uiso   1.00
Br3    Br    0.08450   0.10386   0.26578   0.00000  Uiso   1.00
Br4    Br    0.24883   0.22947   0.06755   0.00000  Uiso   1.00
C5     C     0.16985   0.08764   0.16668   0.00000  Uiso   1.00
C6     C     0.17892   0.02212   0.20921   0.00000  Uiso   1.00
C7     C     0.16056   0.29050   0.16693   0.00000  Uiso   1.00
C8     C     0.17277   0.04284   0.16640   0.00000  Uiso   1.00
C9     C     0.13185   0.14200   0.01980   0.00000  Uiso   1.00
C10    C     0.20149   0.19134   0.31353   0.00000  Uiso   1.00
C11    C     0.13230   0.14162   0.30386   0.00000  Uiso   1.00
C12    C     0.20103   0.19171   0.02948   0.00000  Uiso   1.00
C13    C     0.17188   0.03811   0.07951   0.00000  Uiso   1.00
C14    C     0.16146   0.29522   0.25382   0.00000  Uiso   1.00
C15    C     0.13286   0.29026   0.08044   0.00000  Uiso   1.00
C16    C     0.16349   0.24570   0.16666   0.00000  Uiso   1.00
C17    C     0.20047   0.04307   0.25290   0.00000  Uiso   1.00
C18    C     0.06801   0.16652   0.15460   0.00000  Uiso   1.00
C19    C     0.26533   0.16681   0.17873   0.00000  Uiso   1.00
C20    C     0.01259   0.16616   0.14807   0.00000  Uiso   1.00
C21    C     0.32074   0.16717   0.18526   0.00000  Uiso   1.00
C22    C     0.16463   0.01999   0.12378   0.00000  Uiso   1.00
C23    C     0.16870   0.31334   0.20955   0.00000  Uiso   1.00
C24    C     0.15442   0.31121   0.12412   0.00000  Uiso   1.00
Cu25   Cu    0.16667   0.16667   0.21355   0.00000  Uiso   1.00
Cu26   Cu    0.16667   0.16666   0.11978   0.00000  Uiso   1.00
H27    H     0.32578   0.16490   0.11244   0.00000  Uiso   1.00
H28    H     0.00755   0.16844   0.22090   0.00000  Uiso   1.00
N29    N     0.16668   0.16668   0.28403   0.00000  Uiso   1.00
N30    N     0.16665   0.16666   0.04931   0.00000  Uiso   1.00
N31    N     0.17833   0.05201   0.04408   0.00000  Uiso   1.00
N32    N     0.15500   0.28132   0.28925   0.00000  Uiso   1.00
N33    N     0.11516   0.27354   0.04587   0.00000  Uiso   1.00
N34    N     0.21817   0.05979   0.28747   0.00000  Uiso   1.00
O35    O     0.16666   0.10655   0.20625   0.00000  Uiso   1.00
O36    O     0.16667   0.22678   0.12709   0.00000  Uiso   1.00
O37    O     0.16666   0.10654   0.12706   0.00000  Uiso   1.00
O38    O     0.16667   0.22679   0.20628   0.00000  Uiso   1.00
O39    O     0.09161   0.16667   0.19712   0.00000  Uiso   1.00
O40    O     0.24172   0.16666   0.13621   0.00000  Uiso   1.00
O41    O     0.09161   0.16666   0.11793   0.00000  Uiso   1.00
O42    O     0.24172   0.16667   0.21540   0.00000  Uiso   1.00
Br43   Br    0.41367   0.10740   0.04400   0.00000  Uiso   1.00
Br44   Br    0.58633   0.22594   0.28934   0.00000  Uiso   1.00
Br45   Br    0.41783   0.10386   0.26578   0.00000  Uiso   1.00
Br46   Br    0.58217   0.22947   0.06755   0.00000  Uiso   1.00
C47    C     0.50318   0.08764   0.16668   0.00000  Uiso   1.00
C48    C     0.51225   0.02212   0.20921   0.00000  Uiso   1.00
C49    C     0.49389   0.29050   0.16693   0.00000  Uiso   1.00
C50    C     0.50611   0.04284   0.16640   0.00000  Uiso   1.00
C51    C     0.46518   0.14200   0.01980   0.00000  Uiso   1.00
C52    C     0.53482   0.19134   0.31353   0.00000  Uiso   1.00
C53    C     0.46563   0.14162   0.30386   0.00000  Uiso   1.00
C54    C     0.53437   0.19171   0.02948   0.00000  Uiso   1.00
C55    C     0.50521   0.03811   0.07951   0.00000  Uiso   1.00
C56    C     0.49479   0.29522   0.25382   0.00000  Uiso   1.00
C57    C     0.46619   0.29026   0.08044   0.00000  Uiso   1.00
C58    C     0.49682   0.24570   0.16666   0.00000  Uiso   1.00
C59    C     0.53381   0.04307   0.25290   0.00000  Uiso   1.00
C60    C     0.40134   0.16652   0.15460   0.00000  Uiso   1.00
C61    C     0.59866   0.16681   0.17873   0.00000  Uiso   1.00
C62    C     0.34592   0.16616   0.14807   0.00000  Uiso   1.00
C63    C     0.65408   0.16717   0.18526   0.00000  Uiso   1.00
C64    C     0.49797   0.01999   0.12378   0.00000  Uiso   1.00
C65    C     0.50203   0.31334   0.20955   0.00000  Uiso   1.00
C66    C     0.48775   0.31121   0.12412   0.00000  Uiso   1.00
Cu67   Cu    0.50000   0.16667   0.21355   0.00000  Uiso   1.00
Cu68   Cu    0.50000   0.16666   0.11978   0.00000  Uiso   1.00
H69    H     0.65912   0.16490   0.11244   0.00000  Uiso   1.00
H70    H     0.34088   0.16844   0.22090   0.00000  Uiso   1.00
N71    N     0.50001   0.16668   0.28403   0.00000  Uiso   1.00
N72    N     0.49999   0.16666   0.04931   0.00000  Uiso   1.00
N73    N     0.51167   0.05201   0.04408   0.00000  Uiso   1.00
N74    N     0.48833   0.28132   0.28925   0.00000  Uiso   1.00
N75    N     0.44849   0.27354   0.04587   0.00000  Uiso   1.00
N76    N     0.55151   0.05979   0.28747   0.00000  Uiso   1.00
O77    O     0.50000   0.10655   0.20625   0.00000  Uiso   1.00
O78    O     0.50000   0.22678   0.12709   0.00000  Uiso   1.00
O79    O     0.50000   0.10654   0.12706   0.00000  Uiso   1.00
O80    O     0.50000   0.22679   0.20628   0.00000  Uiso   1.00
O81    O     0.42495   0.16667   0.19712   0.00000  Uiso   1.00
O82    O     0.57505   0.16666   0.13621   0.00000  Uiso   1.00
O83    O     0.42494   0.16666   0.11793   0.00000  Uiso   1.00
O84    O     0.57506   0.16667   0.21540   0.00000  Uiso   1.00
Br85   Br    0.74701   0.10740   0.04400   0.00000  Uiso   1.00
Br86   Br    0.91966   0.22594   0.28934   0.00000  Uiso   1.00
Br87   Br    0.75117   0.10386   0.26578   0.00000  Uiso   1.00
Br88   Br    0.91550   0.22947   0.06755   0.00000  Uiso   1.00
C89    C     0.83651   0.08764   0.16668   0.00000  Uiso   1.00
C90    C     0.84558   0.02212   0.20921   0.00000  Uiso   1.00
C91    C     0.82723   0.29050   0.16693   0.00000  Uiso   1.00
C92    C     0.83944   0.04284   0.16640   0.00000  Uiso   1.00
C93    C     0.79851   0.14200   0.01980   0.00000  Uiso   1.00
C94    C     0.86815   0.19134   0.31353   0.00000  Uiso   1.00
C95    C     0.79897   0.14162   0.30386   0.00000  Uiso   1.00
C96    C     0.86770   0.19171   0.02948   0.00000  Uiso   1.00
C97    C     0.83854   0.03811   0.07951   0.00000  Uiso   1.00
C98    C     0.82812   0.29522   0.25382   0.00000  Uiso   1.00
C99    C     0.79953   0.29026   0.08044   0.00000  Uiso   1.00
C100   C     0.83015   0.24570   0.16666   0.00000  Uiso   1.00
C101   C     0.86714   0.04307   0.25290   0.00000  Uiso   1.00
C102   C     0.73468   0.16652   0.15460   0.00000  Uiso   1.00
C103   C     0.93199   0.16681   0.17873   0.00000  Uiso   1.00
C104   C     0.67926   0.16616   0.14807   0.00000  Uiso   1.00
C105   C     0.98741   0.16717   0.18526   0.00000  Uiso   1.00
C106   C     0.83130   0.01999   0.12378   0.00000  Uiso   1.00
C107   C     0.83537   0.31334   0.20955   0.00000  Uiso   1.00
C108   C     0.82108   0.31121   0.12412   0.00000  Uiso   1.00
Cu109  Cu    0.83333   0.16667   0.21355   0.00000  Uiso   1.00
Cu110  Cu    0.83333   0.16666   0.11978   0.00000  Uiso   1.00
H111   H     0.99245   0.16490   0.11244   0.00000  Uiso   1.00
H112   H     0.67422   0.16844   0.22090   0.00000  Uiso   1.00
N113   N     0.83335   0.16668   0.28403   0.00000  Uiso   1.00
N114   N     0.83332   0.16666   0.04931   0.00000  Uiso   1.00
N115   N     0.84500   0.05201   0.04408   0.00000  Uiso   1.00
N116   N     0.82167   0.28132   0.28925   0.00000  Uiso   1.00
N117   N     0.78183   0.27354   0.04587   0.00000  Uiso   1.00
N118   N     0.88484   0.05979   0.28747   0.00000  Uiso   1.00
O119   O     0.83333   0.10655   0.20625   0.00000  Uiso   1.00
O120   O     0.83334   0.22678   0.12709   0.00000  Uiso   1.00
O121   O     0.83333   0.10654   0.12706   0.00000  Uiso   1.00
O122   O     0.83334   0.22679   0.20628   0.00000  Uiso   1.00
O123   O     0.75828   0.16667   0.19712   0.00000  Uiso   1.00
O124   O     0.90839   0.16666   0.13621   0.00000  Uiso   1.00
O125   O     0.75828   0.16666   0.11793   0.00000  Uiso   1.00
O126   O     0.90839   0.16667   0.21540   0.00000  Uiso   1.00
Br127  Br    0.08034   0.44073   0.04400   0.00000  Uiso   1.00
Br128  Br    0.25299   0.55927   0.28934   0.00000  Uiso   1.00
Br129  Br    0.08450   0.43719   0.26578   0.00000  Uiso   1.00
Br130  Br    0.24883   0.56281   0.06755   0.00000  Uiso   1.00
C131   C     0.16985   0.42097   0.16668   0.00000  Uiso   1.00
C132   C     0.17892   0.35546   0.20921   0.00000  Uiso   1.00
C133   C     0.16056   0.62383   0.16693   0.00000  Uiso   1.00
C134   C     0.17277   0.37617   0.16640   0.00000  Uiso   1.00
C135   C     0.13185   0.47533   0.01980   0.00000  Uiso   1.00
C136   C     0.20149   0.52467   0.31353   0.00000  Uiso   1.00
C137   C     0.13230   0.47495   0.30386   0.00000  Uiso   1.00
C138   C     0.20103   0.52505   0.02948   0.00000  Uiso   1.00
C139   C     0.17188   0.37145   0.07951   0.00000  Uiso   1.00
C140   C     0.16146   0.62855   0.25382   0.00000  Uiso   1.00
C141   C     0.13286   0.62360   0.08044   0.00000  Uiso   1.00
C142   C     0.16349   0.57903   0.16666   0.00000  Uiso   1.00
C143   C     0.20047   0.37640   0.25290   0.00000  Uiso   1.00
C144   C     0.06801   0.49986   0.15460   0.00000  Uiso   1.00
C145   C     0.26533   0.50014   0.17873   0.00000  Uiso   1.00
C146   C     0.01259   0.49949   0.14807   0.00000  Uiso   1.00
C147   C     0.32074   0.50051   0.18526   0.00000  Uiso   1.00
C148   C     0.16463   0.35333   0.12378   0.00000  Uiso   1.00
C149   C     0.16870   0.64667   0.20955   0.00000  Uiso   1.00
C150   C     0.15442   0.64454   0.12412   0.00000  Uiso   1.00
Cu151  Cu    0.16667   0.50001   0.21355   0.00000  Uiso   1.00
Cu152  Cu    0.16667   0.49999   0.11978   0.00000  Uiso   1.00
H153   H     0.32578   0.49823   0.11244   0.00000  Uiso   1.00
H154   H     0.00755   0.50177   0.22090   0.00000  Uiso   1.00
N155   N     0.16668   0.50001   0.28403   0.00000  Uiso   1.00
N156   N     0.16665   0.49999   0.04931   0.00000  Uiso   1.00
N157   N     0.17833   0.38535   0.04408   0.00000  Uiso   1.00
N158   N     0.15500   0.61465   0.28925   0.00000  Uiso   1.00
N159   N     0.11516   0.60688   0.04587   0.00000  Uiso   1.00
N160   N     0.21817   0.39312   0.28747   0.00000  Uiso   1.00
O161   O     0.16666   0.43989   0.20625   0.00000  Uiso   1.00
O162   O     0.16667   0.56011   0.12709   0.00000  Uiso   1.00
O163   O     0.16666   0.43988   0.12706   0.00000  Uiso   1.00
O164   O     0.16667   0.56012   0.20628   0.00000  Uiso   1.00
O165   O     0.09161   0.50000   0.19712   0.00000  Uiso   1.00
O166   O     0.24172   0.50000   0.13621   0.00000  Uiso   1.00
O167   O     0.09161   0.49999   0.11793   0.00000  Uiso   1.00
O168   O     0.24172   0.50001   0.21540   0.00000  Uiso   1.00
Br169  Br    0.41367   0.44073   0.04400   0.00000  Uiso   1.00
Br170  Br    0.58633   0.55927   0.28934   0.00000  Uiso   1.00
Br171  Br    0.41783   0.43719   0.26578   0.00000  Uiso   1.00
Br172  Br    0.58217   0.56281   0.06755   0.00000  Uiso   1.00
C173   C     0.50318   0.42097   0.16668   0.00000  Uiso   1.00
C174   C     0.51225   0.35546   0.20921   0.00000  Uiso   1.00
C175   C     0.49389   0.62383   0.16693   0.00000  Uiso   1.00
C176   C     0.50611   0.37617   0.16640   0.00000  Uiso   1.00
C177   C     0.46518   0.47533   0.01980   0.00000  Uiso   1.00
C178   C     0.53482   0.52467   0.31353   0.00000  Uiso   1.00
C179   C     0.46563   0.47495   0.30386   0.00000  Uiso   1.00
C180   C     0.53437   0.52505   0.02948   0.00000  Uiso   1.00
C181   C     0.50521   0.37145   0.07951   0.00000  Uiso   1.00
C182   C     0.49479   0.62855   0.25382   0.00000  Uiso   1.00
C183   C     0.46619   0.62360   0.08044   0.00000  Uiso   1.00
C184   C     0.49682   0.57903   0.16666   0.00000  Uiso   1.00
C185   C     0.53381   0.37640   0.25290   0.00000  Uiso   1.00
C186   C     0.40134   0.49986   0.15460   0.00000  Uiso   1.00
C187   C     0.59866   0.50014   0.17873   0.00000  Uiso   1.00
C188   C     0.34592   0.49949   0.14807   0.00000  Uiso   1.00
C189   C     0.65408   0.50051   0.18526   0.00000  Uiso   1.00
C190   C     0.49797   0.35333   0.12378   0.00000  Uiso   1.00
C191   C     0.50203   0.64667   0.20955   0.00000  Uiso   1.00
C192   C     0.48775   0.64454   0.12412   0.00000  Uiso   1.00
Cu193  Cu    0.50000   0.50001   0.21355   0.00000  Uiso   1.00
Cu194  Cu    0.50000   0.49999   0.11978   0.00000  Uiso   1.00
H195   H     0.65912   0.49823   0.11244   0.00000  Uiso   1.00
H196   H     0.34088   0.50177   0.22090   0.00000  Uiso   1.00
N197   N     0.50001   0.50001   0.28403   0.00000  Uiso   1.00
N198   N     0.49999   0.49999   0.04931   0.00000  Uiso   1.00
N199   N     0.51167   0.38535   0.04408   0.00000  Uiso   1.00
N200   N     0.48833   0.61465   0.28925   0.00000  Uiso   1.00
N201   N     0.44849   0.60688   0.04587   0.00000  Uiso   1.00
N202   N     0.55151   0.39312   0.28747   0.00000  Uiso   1.00
O203   O     0.50000   0.43989   0.20625   0.00000  Uiso   1.00
O204   O     0.50000   0.56011   0.12709   0.00000  Uiso   1.00
O205   O     0.50000   0.43988   0.12706   0.00000  Uiso   1.00
O206   O     0.50000   0.56012   0.20628   0.00000  Uiso   1.00
O207   O     0.42495   0.50000   0.19712   0.00000  Uiso   1.00
O208   O     0.57505   0.50000   0.13621   0.00000  Uiso   1.00
O209   O     0.42494   0.49999   0.11793   0.00000  Uiso   1.00
O210   O     0.57506   0.50001   0.21540   0.00000  Uiso   1.00
Br211  Br    0.74701   0.44073   0.04400   0.00000  Uiso   1.00
Br212  Br    0.91966   0.55927   0.28934   0.00000  Uiso   1.00
Br213  Br    0.75117   0.43719   0.26578   0.00000  Uiso   1.00
Br214  Br    0.91550   0.56281   0.06755   0.00000  Uiso   1.00
C215   C     0.83651   0.42097   0.16668   0.00000  Uiso   1.00
C216   C     0.84558   0.35546   0.20921   0.00000  Uiso   1.00
C217   C     0.82723   0.62383   0.16693   0.00000  Uiso   1.00
C218   C     0.83944   0.37617   0.16640   0.00000  Uiso   1.00
C219   C     0.79851   0.47533   0.01980   0.00000  Uiso   1.00
C220   C     0.86815   0.52467   0.31353   0.00000  Uiso   1.00
C221   C     0.79897   0.47495   0.30386   0.00000  Uiso   1.00
C222   C     0.86770   0.52505   0.02948   0.00000  Uiso   1.00
C223   C     0.83854   0.37145   0.07951   0.00000  Uiso   1.00
C224   C     0.82812   0.62855   0.25382   0.00000  Uiso   1.00
C225   C     0.79953   0.62360   0.08044   0.00000  Uiso   1.00
C226   C     0.83015   0.57903   0.16666   0.00000  Uiso   1.00
C227   C     0.86714   0.37640   0.25290   0.00000  Uiso   1.00
C228   C     0.73468   0.49986   0.15460   0.00000  Uiso   1.00
C229   C     0.93199   0.50014   0.17873   0.00000  Uiso   1.00
C230   C     0.67926   0.49949   0.14807   0.00000  Uiso   1.00
C231   C     0.98741   0.50051   0.18526   0.00000  Uiso   1.00
C232   C     0.83130   0.35333   0.12378   0.00000  Uiso   1.00
C233   C     0.83537   0.64667   0.20955   0.00000  Uiso   1.00
C234   C     0.82108   0.64454   0.12412   0.00000  Uiso   1.00
Cu235  Cu    0.83333   0.50001   0.21355   0.00000  Uiso   1.00
Cu236  Cu    0.83333   0.49999   0.11978   0.00000  Uiso   1.00
H237   H     0.99245   0.49823   0.11244   0.00000  Uiso   1.00
H238   H     0.67422   0.50177   0.22090   0.00000  Uiso   1.00
N239   N     0.83335   0.50001   0.28403   0.00000  Uiso   1.00
N240   N     0.83332   0.49999   0.04931   0.00000  Uiso   1.00
N241   N     0.84500   0.38535   0.04408   0.00000  Uiso   1.00
N242   N     0.82167   0.61465   0.28925   0.00000  Uiso   1.00
N243   N     0.78183   0.60688   0.04587   0.00000  Uiso   1.00
N244   N     0.88484   0.39312   0.28747   0.00000  Uiso   1.00
O245   O     0.83333   0.43989   0.20625   0.00000  Uiso   1.00
O246   O     0.83334   0.56011   0.12709   0.00000  Uiso   1.00
O247   O     0.83333   0.43988   0.12706   0.00000  Uiso   1.00
O248   O     0.83334   0.56012   0.20628   0.00000  Uiso   1.00
O249   O     0.75828   0.50000   0.19712   0.00000  Uiso   1.00
O250   O     0.90839   0.50000   0.13621   0.00000  Uiso   1.00
O251   O     0.75828   0.49999   0.11793   0.00000  Uiso   1.00
O252   O     0.90839   0.50001   0.21540   0.00000  Uiso   1.00
Br253  Br    0.08034   0.77406   0.04400   0.00000  Uiso   1.00
Br254  Br    0.25299   0.89260   0.28934   0.00000  Uiso   1.00
Br255  Br    0.08450   0.77053   0.26578   0.00000  Uiso   1.00
Br256  Br    0.24883   0.89614   0.06755   0.00000  Uiso   1.00
C257   C     0.16985   0.75430   0.16668   0.00000  Uiso   1.00
C258   C     0.17892   0.68879   0.20921   0.00000  Uiso   1.00
C259   C     0.16056   0.95716   0.16693   0.00000  Uiso   1.00
C260   C     0.17277   0.70950   0.16640   0.00000  Uiso   1.00
C261   C     0.13185   0.80866   0.01980   0.00000  Uiso   1.00
C262   C     0.20149   0.85800   0.31353   0.00000  Uiso   1.00
C263   C     0.13230   0.80829   0.30386   0.00000  Uiso   1.00
C264   C     0.20103   0.85838   0.02948   0.00000  Uiso   1.00
C265   C     0.17188   0.70478   0.07951   0.00000  Uiso   1.00
C266   C     0.16146   0.96189   0.25382   0.00000  Uiso   1.00
C267   C     0.13286   0.95693   0.08044   0.00000  Uiso   1.00
C268   C     0.16349   0.91236   0.16666   0.00000  Uiso   1.00
C269   C     0.20047   0.70974   0.25290   0.00000  Uiso   1.00
C270   C     0.06801   0.83319   0.15460   0.00000  Uiso   1.00
C271   C     0.26533   0.83348   0.17873   0.00000  Uiso   1.00
C272   C     0.01259   0.83283   0.14807   0.00000  Uiso   1.00
C273   C     0.32074   0.83384   0.18526   0.00000  Uiso   1.00
C274   C     0.16463   0.68666   0.12378   0.00000  Uiso   1.00
C275   C     0.16870   0.98001   0.20955   0.00000  Uiso   1.00
C276   C     0.15442   0.97788   0.12412   0.00000  Uiso   1.00
Cu277  Cu    0.16667   0.83334   0.21355   0.00000  Uiso   1.00
Cu278  Cu    0.16667   0.83333   0.11978   0.00000  Uiso   1.00
H279   H     0.32578   0.83156   0.11244   0.00000  Uiso   1.00
H280   H     0.00755   0.83510   0.22090   0.00000  Uiso   1.00
N281   N     0.16668   0.83334   0.28403   0.00000  Uiso   1.00
N282   N     0.16665   0.83332   0.04931   0.00000  Uiso   1.00
N283   N     0.17833   0.71868   0.04408   0.00000  Uiso   1.00
N284   N     0.15500   0.94799   0.28925   0.00000  Uiso   1.00
N285   N     0.11516   0.94021   0.04587   0.00000  Uiso   1.00
N286   N     0.21817   0.72646   0.28747   0.00000  Uiso   1.00
O287   O     0.16666   0.77322   0.20625   0.00000  Uiso   1.00
O288   O     0.16667   0.89345   0.12709   0.00000  Uiso   1.00
O289   O     0.16666   0.77321   0.12706   0.00000  Uiso   1.00
O290   O     0.16667   0.89346   0.20628   0.00000  Uiso   1.00
O291   O     0.09161   0.83334   0.19712   0.00000  Uiso   1.00
O292   O     0.24172   0.83333   0.13621   0.00000  Uiso   1.00
O293   O     0.09161   0.83333   0.11793   0.00000  Uiso   1.00
O294   O     0.24172   0.83334   0.21540   0.00000  Uiso   1.00
Br295  Br    0.41367   0.77406   0.04400   0.00000  Uiso   1.00
Br296  Br    0.58633   0.89260   0.28934   0.00000  Uiso   1.00
Br297  Br    0.41783   0.77053   0.26578   0.00000  Uiso   1.00
Br298  Br    0.58217   0.89614   0.06755   0.00000  Uiso   1.00
C299   C     0.50318   0.75430   0.16668   0.00000  Uiso   1.00
C300   C     0.51225   0.68879   0.20921   0.00000  Uiso   1.00
C301   C     0.49389   0.95716   0.16693   0.00000  Uiso   1.00
C302   C     0.50611   0.70950   0.16640   0.00000  Uiso   1.00
C303   C     0.46518   0.80866   0.01980   0.00000  Uiso   1.00
C304   C     0.53482   0.85800   0.31353   0.00000  Uiso   1.00
C305   C     0.46563   0.80829   0.30386   0.00000  Uiso   1.00
C306   C     0.53437   0.85838   0.02948   0.00000  Uiso   1.00
C307   C     0.50521   0.70478   0.07951   0.00000  Uiso   1.00
C308   C     0.49479   0.96189   0.25382   0.00000  Uiso   1.00
C309   C     0.46619   0.95693   0.08044   0.00000  Uiso   1.00
C310   C     0.49682   0.91236   0.16666   0.00000  Uiso   1.00
C311   C     0.53381   0.70974   0.25290   0.00000  Uiso   1.00
C312   C     0.40134   0.83319   0.15460   0.00000  Uiso   1.00
C313   C     0.59866   0.83348   0.17873   0.00000  Uiso   1.00
C314   C     0.34592   0.83283   0.14807   0.00000  Uiso   1.00
C315   C     0.65408   0.83384   0.18526   0.00000  Uiso   1.00
C316   C     0.49797   0.68666   0.12378   0.00000  Uiso   1.00
C317   C     0.50203   0.98001   0.20955   0.00000  Uiso   1.00
C318   C     0.48775   0.97788   0.12412   0.00000  Uiso   1.00
Cu319  Cu    0.50000   0.83334   0.21355   0.00000  Uiso   1.00
Cu320  Cu    0.50000   0.83333   0.11978   0.00000  Uiso   1.00
H321   H     0.65912   0.83156   0.11244   0.00000  Uiso   1.00
H322   H     0.34088   0.83510   0.22090   0.00000  Uiso   1.00
N323   N     0.50001   0.83334   0.28403   0.00000  Uiso   1.00
N324   N     0.49999   0.83332   0.04931   0.00000  Uiso   1.00
N325   N     0.51167   0.71868   0.04408   0.00000  Uiso   1.00
N326   N     0.48833   0.94799   0.28925   0.00000  Uiso   1.00
N327   N     0.44849   0.94021   0.04587   0.00000  Uiso   1.00
N328   N     0.55151   0.72646   0.28747   0.00000  Uiso   1.00
O329   O     0.50000   0.77322   0.20625   0.00000  Uiso   1.00
O330   O     0.50000   0.89345   0.12709   0.00000  Uiso   1.00
O331   O     0.50000   0.77321   0.12706   0.00000  Uiso   1.00
O332   O     0.50000   0.89346   0.20628   0.00000  Uiso   1.00
O333   O     0.42495   0.83334   0.19712   0.00000  Uiso   1.00
O334   O     0.57505   0.83333   0.13621   0.00000  Uiso   1.00
O335   O     0.42494   0.83333   0.11793   0.00000  Uiso   1.00
O336   O     0.57506   0.83334   0.21540   0.00000  Uiso   1.00
Br337  Br    0.74701   0.77406   0.04400   0.00000  Uiso   1.00
Br338  Br    0.91966   0.89260   0.28934   0.00000  Uiso   1.00
Br339  Br    0.75117   0.77053   0.26578   0.00000  Uiso   1.00
Br340  Br    0.91550   0.89614   0.06755   0.00000  Uiso   1.00
C341   C     0.83651   0.75430   0.16668   0.00000  Uiso   1.00
C342   C     0.84558   0.68879   0.20921   0.00000  Uiso   1.00
C343   C     0.82723   0.95716   0.16693   0.00000  Uiso   1.00
C344   C     0.83944   0.70950   0.16640   0.00000  Uiso   1.00
C345   C     0.79851   0.80866   0.01980   0.00000  Uiso   1.00
C346   C     0.86815   0.85800   0.31353   0.00000  Uiso   1.00
C347   C     0.79897   0.80829   0.30386   0.00000  Uiso   1.00
C348   C     0.86770   0.85838   0.02948   0.00000  Uiso   1.00
C349   C     0.83854   0.70478   0.07951   0.00000  Uiso   1.00
C350   C     0.82812   0.96189   0.25382   0.00000  Uiso   1.00
C351   C     0.79953   0.95693   0.08044   0.00000  Uiso   1.00
C352   C     0.83015   0.91236   0.16666   0.00000  Uiso   1.00
C353   C     0.86714   0.70974   0.25290   0.00000  Uiso   1.00
C354   C     0.73468   0.83319   0.15460   0.00000  Uiso   1.00
C355   C     0.93199   0.83348   0.17873   0.00000  Uiso   1.00
C356   C     0.67926   0.83283   0.14807   0.00000  Uiso   1.00
C357   C     0.98741   0.83384   0.18526   0.00000  Uiso   1.00
C358   C     0.83130   0.68666   0.12378   0.00000  Uiso   1.00
C359   C     0.83537   0.98001   0.20955   0.00000  Uiso   1.00
C360   C     0.82108   0.97788   0.12412   0.00000  Uiso   1.00
Cu361  Cu    0.83333   0.83334   0.21355   0.00000  Uiso   1.00
Cu362  Cu    0.83333   0.83333   0.11978   0.00000  Uiso   1.00
H363   H     0.99245   0.83156   0.11244   0.00000  Uiso   1.00
H364   H     0.67422   0.83510   0.22090   0.00000  Uiso   1.00
N365   N     0.83335   0.83334   0.28403   0.00000  Uiso   1.00
N366   N     0.83332   0.83332   0.04931   0.00000  Uiso   1.00
N367   N     0.84500   0.71868   0.04408   0.00000  Uiso   1.00
N368   N     0.82167   0.94799   0.28925   0.00000  Uiso   1.00
N369   N     0.78183   0.94021   0.04587   0.00000  Uiso   1.00
N370   N     0.88484   0.72646   0.28747   0.00000  Uiso   1.00
O371   O     0.83333   0.77322   0.20625   0.00000  Uiso   1.00
O372   O     0.83334   0.89345   0.12709   0.00000  Uiso   1.00
O373   O     0.83333   0.77321   0.12706   0.00000  Uiso   1.00
O374   O     0.83334   0.89346   0.20628   0.00000  Uiso   1.00
O375   O     0.75828   0.83334   0.19712   0.00000  Uiso   1.00
O376   O     0.90839   0.83333   0.13621   0.00000  Uiso   1.00
O377   O     0.75828   0.83333   0.11793   0.00000  Uiso   1.00
O378   O     0.90839   0.83334   0.21540   0.00000  Uiso   1.00
Br379  Br    0.08034   0.10740   0.37733   0.00000  Uiso   1.00
Br380  Br    0.25299   0.22594   0.62267   0.00000  Uiso   1.00
Br381  Br    0.08450   0.10386   0.59911   0.00000  Uiso   1.00
Br382  Br    0.24883   0.22947   0.40089   0.00000  Uiso   1.00
C383   C     0.16985   0.08764   0.50001   0.00000  Uiso   1.00
C384   C     0.17892   0.02212   0.54254   0.00000  Uiso   1.00
C385   C     0.16056   0.29050   0.50026   0.00000  Uiso   1.00
C386   C     0.17277   0.04284   0.49974   0.00000  Uiso   1.00
C387   C     0.13185   0.14200   0.35313   0.00000  Uiso   1.00
C388   C     0.20149   0.19134   0.64687   0.00000  Uiso   1.00
C389   C     0.13230   0.14162   0.63719   0.00000  Uiso   1.00
C390   C     0.20103   0.19171   0.36281   0.00000  Uiso   1.00
C391   C     0.17188   0.03811   0.41284   0.00000  Uiso   1.00
C392   C     0.16146   0.29522   0.58716   0.00000  Uiso   1.00
C393   C     0.13286   0.29026   0.41377   0.00000  Uiso   1.00
C394   C     0.16349   0.24570   0.49999   0.00000  Uiso   1.00
C395   C     0.20047   0.04307   0.58623   0.00000  Uiso   1.00
C396   C     0.06801   0.16652   0.48794   0.00000  Uiso   1.00
C397   C     0.26533   0.16681   0.51206   0.00000  Uiso   1.00
C398   C     0.01259   0.16616   0.48141   0.00000  Uiso   1.00
C399   C     0.32074   0.16717   0.51859   0.00000  Uiso   1.00
C400   C     0.16463   0.01999   0.45712   0.00000  Uiso   1.00
C401   C     0.16870   0.31334   0.54288   0.00000  Uiso   1.00
C402   C     0.15442   0.31121   0.45746   0.00000  Uiso   1.00
Cu403  Cu    0.16667   0.16667   0.54689   0.00000  Uiso   1.00
Cu404  Cu    0.16667   0.16666   0.45311   0.00000  Uiso   1.00
H405   H     0.32578   0.16490   0.44577   0.00000  Uiso   1.00
H406   H     0.00755   0.16844   0.55423   0.00000  Uiso   1.00
N407   N     0.16668   0.16668   0.61736   0.00000  Uiso   1.00
N408   N     0.16665   0.16666   0.38264   0.00000  Uiso   1.00
N409   N     0.17833   0.05201   0.37741   0.00000  Uiso   1.00
N410   N     0.15500   0.28132   0.62259   0.00000  Uiso   1.00
N411   N     0.11516   0.27354   0.37920   0.00000  Uiso   1.00
N412   N     0.21817   0.05979   0.62080   0.00000  Uiso   1.00
O413   O     0.16666   0.10655   0.53958   0.00000  Uiso   1.00
O414   O     0.16667   0.22678   0.46042   0.00000  Uiso   1.00
O415   O     0.16666   0.10654   0.46039   0.00000  Uiso   1.00
O416   O     0.16667   0.22679   0.53961   0.00000  Uiso   1.00
O417   O     0.09161   0.16667   0.53046   0.00000  Uiso   1.00
O418   O     0.24172   0.16666   0.46954   0.00000  Uiso   1.00
O419   O     0.09161   0.16666   0.45127   0.00000  Uiso   1.00
O420   O     0.24172   0.16667   0.54873   0.00000  Uiso   1.00
Br421  Br    0.41367   0.10740   0.37733   0.00000  Uiso   1.00
Br422  Br    0.58633   0.22594   0.62267   0.00000  Uiso   1.00
Br423  Br    0.41783   0.10386   0.59911   0.00000  Uiso   1.00
Br424  Br    0.58217   0.22947   0.40089   0.00000  Uiso   1.00
C425   C     0.50318   0.08764   0.50001   0.00000  Uiso   1.00
C426   C     0.51225   0.02212   0.54254   0.00000  Uiso   1.00
C427   C     0.49389   0.29050   0.50026   0.00000  Uiso   1.00
C428   C     0.50611   0.04284   0.49974   0.00000  Uiso   1.00
C429   C     0.46518   0.14200   0.35313   0.00000  Uiso   1.00
C430   C     0.53482   0.19134   0.64687   0.00000  Uiso   1.00
C431   C     0.46563   0.14162   0.63719   0.00000  Uiso   1.00
C432   C     0.53437   0.19171   0.36281   0.00000  Uiso   1.00
C433   C     0.50521   0.03811   0.41284   0.00000  Uiso   1.00
C434   C     0.49479   0.29522   0.58716   0.00000  Uiso   1.00
C435   C     0.46619   0.29026   0.41377   0.00000  Uiso   1.00
C436   C     0.49682   0.24570   0.49999   0.00000  Uiso   1.00
C437   C     0.53381   0.04307   0.58623   0.00000  Uiso   1.00
C438   C     0.40134   0.16652   0.48794   0.00000  Uiso   1.00
C439   C     0.59866   0.16681   0.51206   0.00000  Uiso   1.00
C440   C     0.34592   0.16616   0.48141   0.00000  Uiso   1.00
C441   C     0.65408   0.16717   0.51859   0.00000  Uiso   1.00
C442   C     0.49797   0.01999   0.45712   0.00000  Uiso   1.00
C443   C     0.50203   0.31334   0.54288   0.00000  Uiso   1.00
C444   C     0.48775   0.31121   0.45746   0.00000  Uiso   1.00
Cu445  Cu    0.50000   0.16667   0.54689   0.00000  Uiso   1.00
Cu446  Cu    0.50000   0.16666   0.45311   0.00000  Uiso   1.00
H447   H     0.65912   0.16490   0.44577   0.00000  Uiso   1.00
H448   H     0.34088   0.16844   0.55423   0.00000  Uiso   1.00
N449   N     0.50001   0.16668   0.61736   0.00000  Uiso   1.00
N450   N     0.49999   0.16666   0.38264   0.00000  Uiso   1.00
N451   N     0.51167   0.05201   0.37741   0.00000  Uiso   1.00
N452   N     0.48833   0.28132   0.62259   0.00000  Uiso   1.00
N453   N     0.44849   0.27354   0.37920   0.00000  Uiso   1.00
N454   N     0.55151   0.05979   0.62080   0.00000  Uiso   1.00
O455   O     0.50000   0.10655   0.53958   0.00000  Uiso   1.00
O456   O     0.50000   0.22678   0.46042   0.00000  Uiso   1.00
O457   O     0.50000   0.10654   0.46039   0.00000  Uiso   1.00
O458   O     0.50000   0.22679   0.53961   0.00000  Uiso   1.00
O459   O     0.42495   0.16667   0.53046   0.00000  Uiso   1.00
O460   O     0.57505   0.16666   0.46954   0.00000  Uiso   1.00
O461   O     0.42494   0.16666   0.45127   0.00000  Uiso   1.00
O462   O     0.57506   0.16667   0.54873   0.00000  Uiso   1.00
Br463  Br    0.74701   0.10740   0.37733   0.00000  Uiso   1.00
Br464  Br    0.91966   0.22594   0.62267   0.00000  Uiso   1.00
Br465  Br    0.75117   0.10386   0.59911   0.00000  Uiso   1.00
Br466  Br    0.91550   0.22947   0.40089   0.00000  Uiso   1.00
C467   C     0.83651   0.08764   0.50001   0.00000  Uiso   1.00
C468   C     0.84558   0.02212   0.54254   0.00000  Uiso   1.00
C469   C     0.82723   0.29050   0.50026   0.00000  Uiso   1.00
C470   C     0.83944   0.04284   0.49974   0.00000  Uiso   1.00
C471   C     0.79851   0.14200   0.35313   0.00000  Uiso   1.00
C472   C     0.86815   0.19134   0.64687   0.00000  Uiso   1.00
C473   C     0.79897   0.14162   0.63719   0.00000  Uiso   1.00
C474   C     0.86770   0.19171   0.36281   0.00000  Uiso   1.00
C475   C     0.83854   0.03811   0.41284   0.00000  Uiso   1.00
C476   C     0.82812   0.29522   0.58716   0.00000  Uiso   1.00
C477   C     0.79953   0.29026   0.41377   0.00000  Uiso   1.00
C478   C     0.83015   0.24570   0.49999   0.00000  Uiso   1.00
C479   C     0.86714   0.04307   0.58623   0.00000  Uiso   1.00
C480   C     0.73468   0.16652   0.48794   0.00000  Uiso   1.00
C481   C     0.93199   0.16681   0.51206   0.00000  Uiso   1.00
C482   C     0.67926   0.16616   0.48141   0.00000  Uiso   1.00
C483   C     0.98741   0.16717   0.51859   0.00000  Uiso   1.00
C484   C     0.83130   0.01999   0.45712   0.00000  Uiso   1.00
C485   C     0.83537   0.31334   0.54288   0.00000  Uiso   1.00
C486   C     0.82108   0.31121   0.45746   0.00000  Uiso   1.00
Cu487  Cu    0.83333   0.16667   0.54689   0.00000  Uiso   1.00
Cu488  Cu    0.83333   0.16666   0.45311   0.00000  Uiso   1.00
H489   H     0.99245   0.16490   0.44577   0.00000  Uiso   1.00
H490   H     0.67422   0.16844   0.55423   0.00000  Uiso   1.00
N491   N     0.83335   0.16668   0.61736   0.00000  Uiso   1.00
N492   N     0.83332   0.16666   0.38264   0.00000  Uiso   1.00
N493   N     0.84500   0.05201   0.37741   0.00000  Uiso   1.00
N494   N     0.82167   0.28132   0.62259   0.00000  Uiso   1.00
N495   N     0.78183   0.27354   0.37920   0.00000  Uiso   1.00
N496   N     0.88484   0.05979   0.62080   0.00000  Uiso   1.00
O497   O     0.83333   0.10655   0.53958   0.00000  Uiso   1.00
O498   O     0.83334   0.22678   0.46042   0.00000  Uiso   1.00
O499   O     0.83333   0.10654   0.46039   0.00000  Uiso   1.00
O500   O     0.83334   0.22679   0.53961   0.00000  Uiso   1.00
O501   O     0.75828   0.16667   0.53046   0.00000  Uiso   1.00
O502   O     0.90839   0.16666   0.46954   0.00000  Uiso   1.00
O503   O     0.75828   0.16666   0.45127   0.00000  Uiso   1.00
O504   O     0.90839   0.16667   0.54873   0.00000  Uiso   1.00
Br505  Br    0.08034   0.44073   0.37733   0.00000  Uiso   1.00
Br506  Br    0.25299   0.55927   0.62267   0.00000  Uiso   1.00
Br507  Br    0.08450   0.43719   0.59911   0.00000  Uiso   1.00
Br508  Br    0.24883   0.56281   0.40089   0.00000  Uiso   1.00
C509   C     0.16985   0.42097   0.50001   0.00000  Uiso   1.00
C510   C     0.17892   0.35546   0.54254   0.00000  Uiso   1.00
C511   C     0.16056   0.62383   0.50026   0.00000  Uiso   1.00
C512   C     0.17277   0.37617   0.49974   0.00000  Uiso   1.00
C513   C     0.13185   0.47533   0.35313   0.00000  Uiso   1.00
C514   C     0.20149   0.52467   0.64687   0.00000  Uiso   1.00
C515   C     0.13230   0.47495   0.63719   0.00000  Uiso   1.00
C516   C     0.20103   0.52505   0.36281   0.00000  Uiso   1.00
C517   C     0.17188   0.37145   0.41284   0.00000  Uiso   1.00
C518   C     0.16146   0.62855   0.58716   0.00000  Uiso   1.00
C519   C     0.13286   0.62360   0.41377   0.00000  Uiso   1.00
C520   C     0.16349   0.57903   0.49999   0.00000  Uiso   1.00
C521   C     0.20047   0.37640   0.58623   0.00000  Uiso   1.00
C522   C     0.06801   0.49986   0.48794   0.00000  Uiso   1.00
C523   C     0.26533   0.50014   0.51206   0.00000  Uiso   1.00
C524   C     0.01259   0.49949   0.48141   0.00000  Uiso   1.00
C525   C     0.32074   0.50051   0.51859   0.00000  Uiso   1.00
C526   C     0.16463   0.35333   0.45712   0.00000  Uiso   1.00
C527   C     0.16870   0.64667   0.54288   0.00000  Uiso   1.00
C528   C     0.15442   0.64454   0.45746   0.00000  Uiso   1.00
Cu529  Cu    0.16667   0.50001   0.54689   0.00000  Uiso   1.00
Cu530  Cu    0.16667   0.49999   0.45311   0.00000  Uiso   1.00
H531   H     0.32578   0.49823   0.44577   0.00000  Uiso   1.00
H532   H     0.00755   0.50177   0.55423   0.00000  Uiso   1.00
N533   N     0.16668   0.50001   0.61736   0.00000  Uiso   1.00
N534   N     0.16665   0.49999   0.38264   0.00000  Uiso   1.00
N535   N     0.17833   0.38535   0.37741   0.00000  Uiso   1.00
N536   N     0.15500   0.61465   0.62259   0.00000  Uiso   1.00
N537   N     0.11516   0.60688   0.37920   0.00000  Uiso   1.00
N538   N     0.21817   0.39312   0.62080   0.00000  Uiso   1.00
O539   O     0.16666   0.43989   0.53958   0.00000  Uiso   1.00
O540   O     0.16667   0.56011   0.46042   0.00000  Uiso   1.00
O541   O     0.16666   0.43988   0.46039   0.00000  Uiso   1.00
O542   O     0.16667   0.56012   0.53961   0.00000  Uiso   1.00
O543   O     0.09161   0.50000   0.53046   0.00000  Uiso   1.00
O544   O     0.24172   0.50000   0.46954   0.00000  Uiso   1.00
O545   O     0.09161   0.49999   0.45127   0.00000  Uiso   1.00
O546   O     0.24172   0.50001   0.54873   0.00000  Uiso   1.00
Br547  Br    0.41367   0.44073   0.37733   0.00000  Uiso   1.00
Br548  Br    0.58633   0.55927   0.62267   0.00000  Uiso   1.00
Br549  Br    0.41783   0.43719   0.59911   0.00000  Uiso   1.00
Br550  Br    0.58217   0.56281   0.40089   0.00000  Uiso   1.00
C551   C     0.50318   0.42097   0.50001   0.00000  Uiso   1.00
C552   C     0.51225   0.35546   0.54254   0.00000  Uiso   1.00
C553   C     0.49389   0.62383   0.50026   0.00000  Uiso   1.00
C554   C     0.50611   0.37617   0.49974   0.00000  Uiso   1.00
C555   C     0.46518   0.47533   0.35313   0.00000  Uiso   1.00
C556   C     0.53482   0.52467   0.64687   0.00000  Uiso   1.00
C557   C     0.46563   0.47495   0.63719   0.00000  Uiso   1.00
C558   C     0.53437   0.52505   0.36281   0.00000  Uiso   1.00
C559   C     0.50521   0.37145   0.41284   0.00000  Uiso   1.00
C560   C     0.49479   0.62855   0.58716   0.00000  Uiso   1.00
C561   C     0.46619   0.62360   0.41377   0.00000  Uiso   1.00
C562   C     0.49682   0.57903   0.49999   0.00000  Uiso   1.00
C563   C     0.53381   0.37640   0.58623   0.00000  Uiso   1.00
C564   C     0.40134   0.49986   0.48794   0.00000  Uiso   1.00
C565   C     0.59866   0.50014   0.51206   0.00000  Uiso   1.00
C566   C     0.34592   0.49949   0.48141   0.00000  Uiso   1.00
C567   C     0.65408   0.50051   0.51859   0.00000  Uiso   1.00
C568   C     0.49797   0.35333   0.45712   0.00000  Uiso   1.00
C569   C     0.50203   0.64667   0.54288   0.00000  Uiso   1.00
C570   C     0.48775   0.64454   0.45746   0.00000  Uiso   1.00
Cu571  Cu    0.50000   0.50001   0.54689   0.00000  Uiso   1.00
Cu572  Cu    0.50000   0.49999   0.45311   0.00000  Uiso   1.00
H573   H     0.65912   0.49823   0.44577   0.00000  Uiso   1.00
H574   H     0.34088   0.50177   0.55423   0.00000  Uiso   1.00
N575   N     0.50001   0.50001   0.61736   0.00000  Uiso   1.00
N576   N     0.49999   0.49999   0.38264   0.00000  Uiso   1.00
N577   N     0.51167   0.38535   0.37741   0.00000  Uiso   1.00
N578   N     0.48833   0.61465   0.62259   0.00000  Uiso   1.00
N579   N     0.44849   0.60688   0.37920   0.00000  Uiso   1.00
N580   N     0.55151   0.39312   0.62080   0.00000  Uiso   1.00
O581   O     0.50000   0.43989   0.53958   0.00000  Uiso   1.00
O582   O     0.50000   0.56011   0.46042   0.00000  Uiso   1.00
O583   O     0.50000   0.43988   0.46039   0.00000  Uiso   1.00
O584   O     0.50000   0.56012   0.53961   0.00000  Uiso   1.00
O585   O     0.42495   0.50000   0.53046   0.00000  Uiso   1.00
O586   O     0.57505   0.50000   0.46954   0.00000  Uiso   1.00
O587   O     0.42494   0.49999   0.45127   0.00000  Uiso   1.00
O588   O     0.57506   0.50001   0.54873   0.00000  Uiso   1.00
Br589  Br    0.74701   0.44073   0.37733   0.00000  Uiso   1.00
Br590  Br    0.91966   0.55927   0.62267   0.00000  Uiso   1.00
Br591  Br    0.75117   0.43719   0.59911   0.00000  Uiso   1.00
Br592  Br    0.91550   0.56281   0.40089   0.00000  Uiso   1.00
C593   C     0.83651   0.42097   0.50001   0.00000  Uiso   1.00
C594   C     0.84558   0.35546   0.54254   0.00000  Uiso   1.00
C595   C     0.82723   0.62383   0.50026   0.00000  Uiso   1.00
C596   C     0.83944   0.37617   0.49974   0.00000  Uiso   1.00
C597   C     0.79851   0.47533   0.35313   0.00000  Uiso   1.00
C598   C     0.86815   0.52467   0.64687   0.00000  Uiso   1.00
C599   C     0.79897   0.47495   0.63719   0.00000  Uiso   1.00
C600   C     0.86770   0.52505   0.36281   0.00000  Uiso   1.00
C601   C     0.83854   0.37145   0.41284   0.00000  Uiso   1.00
C602   C     0.82812   0.62855   0.58716   0.00000  Uiso   1.00
C603   C     0.79953   0.62360   0.41377   0.00000  Uiso   1.00
C604   C     0.83015   0.57903   0.49999   0.00000  Uiso   1.00
C605   C     0.86714   0.37640   0.58623   0.00000  Uiso   1.00
C606   C     0.73468   0.49986   0.48794   0.00000  Uiso   1.00
C607   C     0.93199   0.50014   0.51206   0.00000  Uiso   1.00
C608   C     0.67926   0.49949   0.48141   0.00000  Uiso   1.00
C609   C     0.98741   0.50051   0.51859   0.00000  Uiso   1.00
C610   C     0.83130   0.35333   0.45712   0.00000  Uiso   1.00
C611   C     0.83537   0.64667   0.54288   0.00000  Uiso   1.00
C612   C     0.82108   0.64454   0.45746   0.00000  Uiso   1.00
Cu613  Cu    0.83333   0.50001   0.54689   0.00000  Uiso   1.00
Cu614  Cu    0.83333   0.49999   0.45311   0.00000  Uiso   1.00
H615   H     0.99245   0.49823   0.44577   0.00000  Uiso   1.00
H616   H     0.67422   0.50177   0.55423   0.00000  Uiso   1.00
N617   N     0.83335   0.50001   0.61736   0.00000  Uiso   1.00
N618   N     0.83332   0.49999   0.38264   0.00000  Uiso   1.00
N619   N     0.84500   0.38535   0.37741   0.00000  Uiso   1.00
N620   N     0.82167   0.61465   0.62259   0.00000  Uiso   1.00
N621   N     0.78183   0.60688   0.37920   0.00000  Uiso   1.00
N622   N     0.88484   0.39312   0.62080   0.00000  Uiso   1.00
O623   O     0.83333   0.43989   0.53958   0.00000  Uiso   1.00
O624   O     0.83334   0.56011   0.46042   0.00000  Uiso   1.00
O625   O     0.83333   0.43988   0.46039   0.00000  Uiso   1.00
O626   O     0.83334   0.56012   0.53961   0.00000  Uiso   1.00
O627   O     0.75828   0.50000   0.53046   0.00000  Uiso   1.00
O628   O     0.90839   0.50000   0.46954   0.00000  Uiso   1.00
O629   O     0.75828   0.49999   0.45127   0.00000  Uiso   1.00
O630   O     0.90839   0.50001   0.54873   0.00000  Uiso   1.00
Br631  Br    0.08034   0.77406   0.37733   0.00000  Uiso   1.00
Br632  Br    0.25299   0.89260   0.62267   0.00000  Uiso   1.00
Br633  Br    0.08450   0.77053   0.59911   0.00000  Uiso   1.00
Br634  Br    0.24883   0.89614   0.40089   0.00000  Uiso   1.00
C635   C     0.16985   0.75430   0.50001   0.00000  Uiso   1.00
C636   C     0.17892   0.68879   0.54254   0.00000  Uiso   1.00
C637   C     0.16056   0.95716   0.50026   0.00000  Uiso   1.00
C638   C     0.17277   0.70950   0.49974   0.00000  Uiso   1.00
C639   C     0.13185   0.80866   0.35313   0.00000  Uiso   1.00
C640   C     0.20149   0.85800   0.64687   0.00000  Uiso   1.00
C641   C     0.13230   0.80829   0.63719   0.00000  Uiso   1.00
C642   C     0.20103   0.85838   0.36281   0.00000  Uiso   1.00
C643   C     0.17188   0.70478   0.41284   0.00000  Uiso   1.00
C644   C     0.16146   0.96189   0.58716   0.00000  Uiso   1.00
C645   C     0.13286   0.95693   0.41377   0.00000  Uiso   1.00
C646   C     0.16349   0.91236   0.49999   0.00000  Uiso   1.00
C647   C     0.20047   0.70974   0.58623   0.00000  Uiso   1.00
C648   C     0.06801   0.83319   0.48794   0.00000  Uiso   1.00
C649   C     0.26533   0.83348   0.51206   0.00000  Uiso   1.00
C650   C     0.01259   0.83283   0.48141   0.00000  Uiso   1.00
C651   C     0.32074   0.83384   0.51859   0.00000  Uiso   1.00
C652   C     0.16463   0.68666   0.45712   0.00000  Uiso   1.00
C653   C     0.16870   0.98001   0.54288   0.00000  Uiso   1.00
C654   C     0.15442   0.97788   0.45746   0.00000  Uiso   1.00
Cu655  Cu    0.16667   0.83334   0.54689   0.00000  Uiso   1.00
Cu656  Cu    0.16667   0.83333   0.45311   0.00000  Uiso   1.00
H657   H     0.32578   0.83156   0.44577   0.00000  Uiso   1.00
H658   H     0.00755   0.83510   0.55423   0.00000  Uiso   1.00
N659   N     0.16668   0.83334   0.61736   0.00000  Uiso   1.00
N660   N     0.16665   0.83332   0.38264   0.00000  Uiso   1.00
N661   N     0.17833   0.71868   0.37741   0.00000  Uiso   1.00
N662   N     0.15500   0.94799   0.62259   0.00000  Uiso   1.00
N663   N     0.11516   0.94021   0.37920   0.00000  Uiso   1.00
N664   N     0.21817   0.72646   0.62080   0.00000  Uiso   1.00
O665   O     0.16666   0.77322   0.53958   0.00000  Uiso   1.00
O666   O     0.16667   0.89345   0.46042   0.00000  Uiso   1.00
O667   O     0.16666   0.77321   0.46039   0.00000  Uiso   1.00
O668   O     0.16667   0.89346   0.53961   0.00000  Uiso   1.00
O669   O     0.09161   0.83334   0.53046   0.00000  Uiso   1.00
O670   O     0.24172   0.83333   0.46954   0.00000  Uiso   1.00
O671   O     0.09161   0.83333   0.45127   0.00000  Uiso   1.00
O672   O     0.24172   0.83334   0.54873   0.00000  Uiso   1.00
Br673  Br    0.41367   0.77406   0.37733   0.00000  Uiso   1.00
Br674  Br    0.58633   0.89260   0.62267   0.00000  Uiso   1.00
Br675  Br    0.41783   0.77053   0.59911   0.00000  Uiso   1.00
Br676  Br    0.58217   0.89614   0.40089   0.00000  Uiso   1.00
C677   C     0.50318   0.75430   0.50001   0.00000  Uiso   1.00
C678   C     0.51225   0.68879   0.54254   0.00000  Uiso   1.00
C679   C     0.49389   0.95716   0.50026   0.00000  Uiso   1.00
C680   C     0.50611   0.70950   0.49974   0.00000  Uiso   1.00
C681   C     0.46518   0.80866   0.35313   0.00000  Uiso   1.00
C682   C     0.53482   0.85800   0.64687   0.00000  Uiso   1.00
C683   C     0.46563   0.80829   0.63719   0.00000  Uiso   1.00
C684   C     0.53437   0.85838   0.36281   0.00000  Uiso   1.00
C685   C     0.50521   0.70478   0.41284   0.00000  Uiso   1.00
C686   C     0.49479   0.96189   0.58716   0.00000  Uiso   1.00
C687   C     0.46619   0.95693   0.41377   0.00000  Uiso   1.00
C688   C     0.49682   0.91236   0.49999   0.00000  Uiso   1.00
C689   C     0.53381   0.70974   0.58623   0.00000  Uiso   1.00
C690   C     0.40134   0.83319   0.48794   0.00000  Uiso   1.00
C691   C     0.59866   0.83348   0.51206   0.00000  Uiso   1.00
C692   C     0.34592   0.83283   0.48141   0.00000  Uiso   1.00
C693   C     0.65408   0.83384   0.51859   0.00000  Uiso   1.00
C694   C     0.49797   0.68666   0.45712   0.00000  Uiso   1.00
C695   C     0.50203   0.98001   0.54288   0.00000  Uiso   1.00
C696   C     0.48775   0.97788   0.45746   0.00000  Uiso   1.00
Cu697  Cu    0.50000   0.83334   0.54689   0.00000  Uiso   1.00
Cu698  Cu    0.50000   0.83333   0.45311   0.00000  Uiso   1.00
H699   H     0.65912   0.83156   0.44577   0.00000  Uiso   1.00
H700   H     0.34088   0.83510   0.55423   0.00000  Uiso   1.00
N701   N     0.50001   0.83334   0.61736   0.00000  Uiso   1.00
N702   N     0.49999   0.83332   0.38264   0.00000  Uiso   1.00
N703   N     0.51167   0.71868   0.37741   0.00000  Uiso   1.00
N704   N     0.48833   0.94799   0.62259   0.00000  Uiso   1.00
N705   N     0.44849   0.94021   0.37920   0.00000  Uiso   1.00
N706   N     0.55151   0.72646   0.62080   0.00000  Uiso   1.00
O707   O     0.50000   0.77322   0.53958   0.00000  Uiso   1.00
O708   O     0.50000   0.89345   0.46042   0.00000  Uiso   1.00
O709   O     0.50000   0.77321   0.46039   0.00000  Uiso   1.00
O710   O     0.50000   0.89346   0.53961   0.00000  Uiso   1.00
O711   O     0.42495   0.83334   0.53046   0.00000  Uiso   1.00
O712   O     0.57505   0.83333   0.46954   0.00000  Uiso   1.00
O713   O     0.42494   0.83333   0.45127   0.00000  Uiso   1.00
O714   O     0.57506   0.83334   0.54873   0.00000  Uiso   1.00
Br715  Br    0.74701   0.77406   0.37733   0.00000  Uiso   1.00
Br716  Br    0.91966   0.89260   0.62267   0.00000  Uiso   1.00
Br717  Br    0.75117   0.77053   0.59911   0.00000  Uiso   1.00
Br718  Br    0.91550   0.89614   0.40089   0.00000  Uiso   1.00
C719   C     0.83651   0.75430   0.50001   0.00000  Uiso   1.00
C720   C     0.84558   0.68879   0.54254   0.00000  Uiso   1.00
C721   C     0.82723   0.95716   0.50026   0.00000  Uiso   1.00
C722   C     0.83944   0.70950   0.49974   0.00000  Uiso   1.00
C723   C     0.79851   0.80866   0.35313   0.00000  Uiso   1.00
C724   C     0.86815   0.85800   0.64687   0.00000  Uiso   1.00
C725   C     0.79897   0.80829   0.63719   0.00000  Uiso   1.00
C726   C     0.86770   0.85838   0.36281   0.00000  Uiso   1.00
C727   C     0.83854   0.70478   0.41284   0.00000  Uiso   1.00
C728   C     0.82812   0.96189   0.58716   0.00000  Uiso   1.00
C729   C     0.79953   0.95693   0.41377   0.00000  Uiso   1.00
C730   C     0.83015   0.91236   0.49999   0.00000  Uiso   1.00
C731   C     0.86714   0.70974   0.58623   0.00000  Uiso   1.00
C732   C     0.73468   0.83319   0.48794   0.00000  Uiso   1.00
C733   C     0.93199   0.83348   0.51206   0.00000  Uiso   1.00
C734   C     0.67926   0.83283   0.48141   0.00000  Uiso   1.00
C735   C     0.98741   0.83384   0.51859   0.00000  Uiso   1.00
C736   C     0.83130   0.68666   0.45712   0.00000  Uiso   1.00
C737   C     0.83537   0.98001   0.54288   0.00000  Uiso   1.00
C738   C     0.82108   0.97788   0.45746   0.00000  Uiso   1.00
Cu739  Cu    0.83333   0.83334   0.54689   0.00000  Uiso   1.00
Cu740  Cu    0.83333   0.83333   0.45311   0.00000  Uiso   1.00
H741   H     0.99245   0.83156   0.44577   0.00000  Uiso   1.00
H742   H     0.67422   0.83510   0.55423   0.00000  Uiso   1.00
N743   N     0.83335   0.83334   0.61736   0.00000  Uiso   1.00
N744   N     0.83332   0.83332   0.38264   0.00000  Uiso   1.00
N745   N     0.84500   0.71868   0.37741   0.00000  Uiso   1.00
N746   N     0.82167   0.94799   0.62259   0.00000  Uiso   1.00
N747   N     0.78183   0.94021   0.37920   0.00000  Uiso   1.00
N748   N     0.88484   0.72646   0.62080   0.00000  Uiso   1.00
O749   O     0.83333   0.77322   0.53958   0.00000  Uiso   1.00
O750   O     0.83334   0.89345   0.46042   0.00000  Uiso   1.00
O751   O     0.83333   0.77321   0.46039   0.00000  Uiso   1.00
O752   O     0.83334   0.89346   0.53961   0.00000  Uiso   1.00
O753   O     0.75828   0.83334   0.53046   0.00000  Uiso   1.00
O754   O     0.90839   0.83333   0.46954   0.00000  Uiso   1.00
O755   O     0.75828   0.83333   0.45127   0.00000  Uiso   1.00
O756   O     0.90839   0.83334   0.54873   0.00000  Uiso   1.00
Br757  Br    0.08034   0.10740   0.71066   0.00000  Uiso   1.00
Br758  Br    0.25299   0.22594   0.95600   0.00000  Uiso   1.00
Br759  Br    0.08450   0.10386   0.93245   0.00000  Uiso   1.00
Br760  Br    0.24883   0.22947   0.73422   0.00000  Uiso   1.00
C761   C     0.16985   0.08764   0.83334   0.00000  Uiso   1.00
C762   C     0.17892   0.02212   0.87588   0.00000  Uiso   1.00
C763   C     0.16056   0.29050   0.83360   0.00000  Uiso   1.00
C764   C     0.17277   0.04284   0.83307   0.00000  Uiso   1.00
C765   C     0.13185   0.14200   0.68647   0.00000  Uiso   1.00
C766   C     0.20149   0.19134   0.98020   0.00000  Uiso   1.00
C767   C     0.13230   0.14162   0.97052   0.00000  Uiso   1.00
C768   C     0.20103   0.19171   0.69614   0.00000  Uiso   1.00
C769   C     0.17188   0.03811   0.74618   0.00000  Uiso   1.00
C770   C     0.16146   0.29522   0.92049   0.00000  Uiso   1.00
C771   C     0.13286   0.29026   0.74710   0.00000  Uiso   1.00
C772   C     0.16349   0.24570   0.83332   0.00000  Uiso   1.00
C773   C     0.20047   0.04307   0.91956   0.00000  Uiso   1.00
C774   C     0.06801   0.16652   0.82127   0.00000  Uiso   1.00
C775   C     0.26533   0.16681   0.84540   0.00000  Uiso   1.00
C776   C     0.01259   0.16616   0.81474   0.00000  Uiso   1.00
C777   C     0.32074   0.16717   0.85193   0.00000  Uiso   1.00
C778   C     0.16463   0.01999   0.79045   0.00000  Uiso   1.00
C779   C     0.16870   0.31334   0.87622   0.00000  Uiso   1.00
C780   C     0.15442   0.31121   0.79079   0.00000  Uiso   1.00
Cu781  Cu    0.16667   0.16667   0.88022   0.00000  Uiso   1.00
Cu782  Cu    0.16667   0.16666   0.78645   0.00000  Uiso   1.00
H783   H     0.32578   0.16490   0.77910   0.00000  Uiso   1.00
H784   H     0.00755   0.16844   0.88756   0.00000  Uiso   1.00
N785   N     0.16668   0.16668   0.95069   0.00000  Uiso   1.00
N786   N     0.16665   0.16666   0.71597   0.00000  Uiso   1.00
N787   N     0.17833   0.05201   0.71075   0.00000  Uiso   1.00
N788   N     0.15500   0.28132   0.95592   0.00000  Uiso   1.00
N789   N     0.11516   0.27354   0.71253   0.00000  Uiso   1.00
N790   N     0.21817   0.05979   0.95413   0.00000  Uiso   1.00
O791   O     0.16666   0.10655   0.87291   0.00000  Uiso   1.00
O792   O     0.16667   0.22678   0.79375   0.00000  Uiso   1.00
O793   O     0.16666   0.10654   0.79372   0.00000  Uiso   1.00
O794   O     0.16667   0.22679   0.87294   0.00000  Uiso   1.00
O795   O     0.09161   0.16667   0.86379   0.00000  Uiso   1.00
O796   O     0.24172   0.16666   0.80288   0.00000  Uiso   1.00
O797   O     0.09161   0.16666   0.78460   0.00000  Uiso   1.00
O798   O     0.24172   0.16667   0.88207   0.00000  Uiso   1.00
Br799  Br    0.41367   0.10740   0.71066   0.00000  Uiso   1.00
Br800  Br    0.58633   0.22594   0.95600   0.00000  Uiso   1.00
Br801  Br    0.41783   0.10386   0.93245   0.00000  Uiso   1.00
Br802  Br    0.58217   0.22947   0.73422   0.00000  Uiso   1.00
C803   C     0.50318   0.08764   0.83334   0.00000  Uiso   1.00
C804   C     0.51225   0.02212   0.87588   0.00000  Uiso   1.00
C805   C     0.49389   0.29050   0.83360   0.00000  Uiso   1.00
C806   C     0.50611   0.04284   0.83307   0.00000  Uiso   1.00
C807   C     0.46518   0.14200   0.68647   0.00000  Uiso   1.00
C808   C     0.53482   0.19134   0.98020   0.00000  Uiso   1.00
C809   C     0.46563   0.14162   0.97052   0.00000  Uiso   1.00
C810   C     0.53437   0.19171   0.69614   0.00000  Uiso   1.00
C811   C     0.50521   0.03811   0.74618   0.00000  Uiso   1.00
C812   C     0.49479   0.29522   0.92049   0.00000  Uiso   1.00
C813   C     0.46619   0.29026   0.74710   0.00000  Uiso   1.00
C814   C     0.49682   0.24570   0.83332   0.00000  Uiso   1.00
C815   C     0.53381   0.04307   0.91956   0.00000  Uiso   1.00
C816   C     0.40134   0.16652   0.82127   0.00000  Uiso   1.00
C817   C     0.59866   0.16681   0.84540   0.00000  Uiso   1.00
C818   C     0.34592   0.16616   0.81474   0.00000  Uiso   1.00
C819   C     0.65408   0.16717   0.85193   0.00000  Uiso   1.00
C820   C     0.49797   0.01999   0.79045   0.00000  Uiso   1.00
C821   C     0.50203   0.31334   0.87622   0.00000  Uiso   1.00
C822   C     0.48775   0.31121   0.79079   0.00000  Uiso   1.00
Cu823  Cu    0.50000   0.16667   0.88022   0.00000  Uiso   1.00
Cu824  Cu    0.50000   0.16666   0.78645   0.00000  Uiso   1.00
H825   H     0.65912   0.16490   0.77910   0.00000  Uiso   1.00
H826   H     0.34088   0.16844   0.88756   0.00000  Uiso   1.00
N827   N     0.50001   0.16668   0.95069   0.00000  Uiso   1.00
N828   N     0.49999   0.16666   0.71597   0.00000  Uiso   1.00
N829   N     0.51167   0.05201   0.71075   0.00000  Uiso   1.00
N830   N     0.48833   0.28132   0.95592   0.00000  Uiso   1.00
N831   N     0.44849   0.27354   0.71253   0.00000  Uiso   1.00
N832   N     0.55151   0.05979   0.95413   0.00000  Uiso   1.00
O833   O     0.50000   0.10655   0.87291   0.00000  Uiso   1.00
O834   O     0.50000   0.22678   0.79375   0.00000  Uiso   1.00
O835   O     0.50000   0.10654   0.79372   0.00000  Uiso   1.00
O836   O     0.50000   0.22679   0.87294   0.00000  Uiso   1.00
O837   O     0.42495   0.16667   0.86379   0.00000  Uiso   1.00
O838   O     0.57505   0.16666   0.80288   0.00000  Uiso   1.00
O839   O     0.42494   0.16666   0.78460   0.00000  Uiso   1.00
O840   O     0.57506   0.16667   0.88207   0.00000  Uiso   1.00
Br841  Br    0.74701   0.10740   0.71066   0.00000  Uiso   1.00
Br842  Br    0.91966   0.22594   0.95600   0.00000  Uiso   1.00
Br843  Br    0.75117   0.10386   0.93245   0.00000  Uiso   1.00
Br844  Br    0.91550   0.22947   0.73422   0.00000  Uiso   1.00
C845   C     0.83651   0.08764   0.83334   0.00000  Uiso   1.00
C846   C     0.84558   0.02212   0.87588   0.00000  Uiso   1.00
C847   C     0.82723   0.29050   0.83360   0.00000  Uiso   1.00
C848   C     0.83944   0.04284   0.83307   0.00000  Uiso   1.00
C849   C     0.79851   0.14200   0.68647   0.00000  Uiso   1.00
C850   C     0.86815   0.19134   0.98020   0.00000  Uiso   1.00
C851   C     0.79897   0.14162   0.97052   0.00000  Uiso   1.00
C852   C     0.86770   0.19171   0.69614   0.00000  Uiso   1.00
C853   C     0.83854   0.03811   0.74618   0.00000  Uiso   1.00
C854   C     0.82812   0.29522   0.92049   0.00000  Uiso   1.00
C855   C     0.79953   0.29026   0.74710   0.00000  Uiso   1.00
C856   C     0.83015   0.24570   0.83332   0.00000  Uiso   1.00
C857   C     0.86714   0.04307   0.91956   0.00000  Uiso   1.00
C858   C     0.73468   0.16652   0.82127   0.00000  Uiso   1.00
C859   C     0.93199   0.16681   0.84540   0.00000  Uiso   1.00
C860   C     0.67926   0.16616   0.81474   0.00000  Uiso   1.00
C861   C     0.98741   0.16717   0.85193   0.00000  Uiso   1.00
C862   C     0.83130   0.01999   0.79045   0.00000  Uiso   1.00
C863   C     0.83537   0.31334   0.87622   0.00000  Uiso   1.00
C864   C     0.82108   0.31121   0.79079   0.00000  Uiso   1.00
Cu865  Cu    0.83333   0.16667   0.88022   0.00000  Uiso   1.00
Cu866  Cu    0.83333   0.16666   0.78645   0.00000  Uiso   1.00
H867   H     0.99245   0.16490   0.77910   0.00000  Uiso   1.00
H868   H     0.67422   0.16844   0.88756   0.00000  Uiso   1.00
N869   N     0.83335   0.16668   0.95069   0.00000  Uiso   1.00
N870   N     0.83332   0.16666   0.71597   0.00000  Uiso   1.00
N871   N     0.84500   0.05201   0.71075   0.00000  Uiso   1.00
N872   N     0.82167   0.28132   0.95592   0.00000  Uiso   1.00
N873   N     0.78183   0.27354   0.71253   0.00000  Uiso   1.00
N874   N     0.88484   0.05979   0.95413   0.00000  Uiso   1.00
O875   O     0.83333   0.10655   0.87291   0.00000  Uiso   1.00
O876   O     0.83334   0.22678   0.79375   0.00000  Uiso   1.00
O877   O     0.83333   0.10654   0.79372   0.00000  Uiso   1.00
O878   O     0.83334   0.22679   0.87294   0.00000  Uiso   1.00
O879   O     0.75828   0.16667   0.86379   0.00000  Uiso   1.00
O880   O     0.90839   0.16666   0.80288   0.00000  Uiso   1.00
O881   O     0.75828   0.16666   0.78460   0.00000  Uiso   1.00
O882   O     0.90839   0.16667   0.88207   0.00000  Uiso   1.00
Br883  Br    0.08034   0.44073   0.71066   0.00000  Uiso   1.00
Br884  Br    0.25299   0.55927   0.95600   0.00000  Uiso   1.00
Br885  Br    0.08450   0.43719   0.93245   0.00000  Uiso   1.00
Br886  Br    0.24883   0.56281   0.73422   0.00000  Uiso   1.00
C887   C     0.16985   0.42097   0.83334   0.00000  Uiso   1.00
C888   C     0.17892   0.35546   0.87588   0.00000  Uiso   1.00
C889   C     0.16056   0.62383   0.83360   0.00000  Uiso   1.00
C890   C     0.17277   0.37617   0.83307   0.00000  Uiso   1.00
C891   C     0.13185   0.47533   0.68647   0.00000  Uiso   1.00
C892   C     0.20149   0.52467   0.98020   0.00000  Uiso   1.00
C893   C     0.13230   0.47495   0.97052   0.00000  Uiso   1.00
C894   C     0.20103   0.52505   0.69614   0.00000  Uiso   1.00
C895   C     0.17188   0.37145   0.74618   0.00000  Uiso   1.00
C896   C     0.16146   0.62855   0.92049   0.00000  Uiso   1.00
C897   C     0.13286   0.62360   0.74710   0.00000  Uiso   1.00
C898   C     0.16349   0.57903   0.83332   0.00000  Uiso   1.00
C899   C     0.20047   0.37640   0.91956   0.00000  Uiso   1.00
C900   C     0.06801   0.49986   0.82127   0.00000  Uiso   1.00
C901   C     0.26533   0.50014   0.84540   0.00000  Uiso   1.00
C902   C     0.01259   0.49949   0.81474   0.00000  Uiso   1.00
C903   C     0.32074   0.50051   0.85193   0.00000  Uiso   1.00
C904   C     0.16463   0.35333   0.79045   0.00000  Uiso   1.00
C905   C     0.16870   0.64667   0.87622   0.00000  Uiso   1.00
C906   C     0.15442   0.64454   0.79079   0.00000  Uiso   1.00
Cu907  Cu    0.16667   0.50001   0.88022   0.00000  Uiso   1.00
Cu908  Cu    0.16667   0.49999   0.78645   0.00000  Uiso   1.00
H909   H     0.32578   0.49823   0.77910   0.00000  Uiso   1.00
H910   H     0.00755   0.50177   0.88756   0.00000  Uiso   1.00
N911   N     0.16668   0.50001   0.95069   0.00000  Uiso   1.00
N912   N     0.16665   0.49999   0.71597   0.00000  Uiso   1.00
N913   N     0.17833   0.38535   0.71075   0.00000  Uiso   1.00
N914   N     0.15500   0.61465   0.95592   0.00000  Uiso   1.00
N915   N     0.11516   0.60688   0.71253   0.00000  Uiso   1.00
N916   N     0.21817   0.39312   0.95413   0.00000  Uiso   1.00
O917   O     0.16666   0.43989   0.87291   0.00000  Uiso   1.00
O918   O     0.16667   0.56011   0.79375   0.00000  Uiso   1.00
O919   O     0.16666   0.43988   0.79372   0.00000  Uiso   1.00
O920   O     0.16667   0.56012   0.87294   0.00000  Uiso   1.00
O921   O     0.09161   0.50000   0.86379   0.00000  Uiso   1.00
O922   O     0.24172   0.50000   0.80288   0.00000  Uiso   1.00
O923   O     0.09161   0.49999   0.78460   0.00000  Uiso   1.00
O924   O     0.24172   0.50001   0.88207   0.00000  Uiso   1.00
Br925  Br    0.41367   0.44073   0.71066   0.00000  Uiso   1.00
Br926  Br    0.58633   0.55927   0.95600   0.00000  Uiso   1.00
Br927  Br    0.41783   0.43719   0.93245   0.00000  Uiso   1.00
Br928  Br    0.58217   0.56281   0.73422   0.00000  Uiso   1.00
C929   C     0.50318   0.42097   0.83334   0.00000  Uiso   1.00
C930   C     0.51225   0.35546   0.87588   0.00000  Uiso   1.00
C931   C     0.49389   0.62383   0.83360   0.00000  Uiso   1.00
C932   C     0.50611   0.37617   0.83307   0.00000  Uiso   1.00
C933   C     0.46518   0.47533   0.68647   0.00000  Uiso   1.00
C934   C     0.53482   0.52467   0.98020   0.00000  Uiso   1.00
C935   C     0.46563   0.47495   0.97052   0.00000  Uiso   1.00
C936   C     0.53437   0.52505   0.69614   0.00000  Uiso   1.00
C937   C     0.50521   0.37145   0.74618   0.00000  Uiso   1.00
C938   C     0.49479   0.62855   0.92049   0.00000  Uiso   1.00
C939   C     0.46619   0.62360   0.74710   0.00000  Uiso   1.00
C940   C     0.49682   0.57903   0.83332   0.00000  Uiso   1.00
C941   C     0.53381   0.37640   0.91956   0.00000  Uiso   1.00
C942   C     0.40134   0.49986   0.82127   0.00000  Uiso   1.00
C943   C     0.59866   0.50014   0.84540   0.00000  Uiso   1.00
C944   C     0.34592   0.49949   0.81474   0.00000  Uiso   1.00
C945   C     0.65408   0.50051   0.85193   0.00000  Uiso   1.00
C946   C     0.49797   0.35333   0.79045   0.00000  Uiso   1.00
C947   C     0.50203   0.64667   0.87622   0.00000  Uiso   1.00
C948   C     0.48775   0.64454   0.79079   0.00000  Uiso   1.00
Cu949  Cu    0.50000   0.50001   0.88022   0.00000  Uiso   1.00
Cu950  Cu    0.50000   0.49999   0.78645   0.00000  Uiso   1.00
H951   H     0.65912   0.49823   0.77910   0.00000  Uiso   1.00
H952   H     0.34088   0.50177   0.88756   0.00000  Uiso   1.00
N953   N     0.50001   0.50001   0.95069   0.00000  Uiso   1.00
N954   N     0.49999   0.49999   0.71597   0.00000  Uiso   1.00
N955   N     0.51167   0.38535   0.71075   0.00000  Uiso   1.00
N956   N     0.48833   0.61465   0.95592   0.00000  Uiso   1.00
N957   N     0.44849   0.60688   0.71253   0.00000  Uiso   1.00
N958   N     0.55151   0.39312   0.95413   0.00000  Uiso   1.00
O959   O     0.50000   0.43989   0.87291   0.00000  Uiso   1.00
O960   O     0.50000   0.56011   0.79375   0.00000  Uiso   1.00
O961   O     0.50000   0.43988   0.79372   0.00000  Uiso   1.00
O962   O     0.50000   0.56012   0.87294   0.00000  Uiso   1.00
O963   O     0.42495   0.50000   0.86379   0.00000  Uiso   1.00
O964   O     0.57505   0.50000   0.80288   0.00000  Uiso   1.00
O965   O     0.42494   0.49999   0.78460   0.00000  Uiso   1.00
O966   O     0.57506   0.50001   0.88207   0.00000  Uiso   1.00
Br967  Br    0.74701   0.44073   0.71066   0.00000  Uiso   1.00
Br968  Br    0.91966   0.55927   0.95600   0.00000  Uiso   1.00
Br969  Br    0.75117   0.43719   0.93245   0.00000  Uiso   1.00
Br970  Br    0.91550   0.56281   0.73422   0.00000  Uiso   1.00
C971   C     0.83651   0.42097   0.83334   0.00000  Uiso   1.00
C972   C     0.84558   0.35546   0.87588   0.00000  Uiso   1.00
C973   C     0.82723   0.62383   0.83360   0.00000  Uiso   1.00
C974   C     0.83944   0.37617   0.83307   0.00000  Uiso   1.00
C975   C     0.79851   0.47533   0.68647   0.00000  Uiso   1.00
C976   C     0.86815   0.52467   0.98020   0.00000  Uiso   1.00
C977   C     0.79897   0.47495   0.97052   0.00000  Uiso   1.00
C978   C     0.86770   0.52505   0.69614   0.00000  Uiso   1.00
C979   C     0.83854   0.37145   0.74618   0.00000  Uiso   1.00
C980   C     0.82812   0.62855   0.92049   0.00000  Uiso   1.00
C981   C     0.79953   0.62360   0.74710   0.00000  Uiso   1.00
C982   C     0.83015   0.57903   0.83332   0.00000  Uiso   1.00
C983   C     0.86714   0.37640   0.91956   0.00000  Uiso   1.00
C984   C     0.73468   0.49986   0.82127   0.00000  Uiso   1.00
C985   C     0.93199   0.50014   0.84540   0.00000  Uiso   1.00
C986   C     0.67926   0.49949   0.81474   0.00000  Uiso   1.00
C987   C     0.98741   0.50051   0.85193   0.00000  Uiso   1.00
C988   C     0.83130   0.35333   0.79045   0.00000  Uiso   1.00
C989   C     0.83537   0.64667   0.87622   0.00000  Uiso   1.00
C990   C     0.82108   0.64454   0.79079   0.00000  Uiso   1.00
Cu991  Cu    0.83333   0.50001   0.88022   0.00000  Uiso   1.00
Cu992  Cu    0.83333   0.49999   0.78645   0.00000  Uiso   1.00
H993   H     0.99245   0.49823   0.77910   0.00000  Uiso   1.00
H994   H     0.67422   0.50177   0.88756   0.00000  Uiso   1.00
N995   N     0.83335   0.50001   0.95069   0.00000  Uiso   1.00
N996   N     0.83332   0.49999   0.71597   0.00000  Uiso   1.00
N997   N     0.84500   0.38535   0.71075   0.00000  Uiso   1.00
N998   N     0.82167   0.61465   0.95592   0.00000  Uiso   1.00
N999   N     0.78183   0.60688   0.71253   0.00000  Uiso   1.00
N1000  N     0.88484   0.39312   0.95413   0.00000  Uiso   1.00
O1001  O     0.83333   0.43989   0.87291   0.00000  Uiso   1.00
O1002  O     0.83334   0.56011   0.79375   0.00000  Uiso   1.00
O1003  O     0.83333   0.43988   0.79372   0.00000  Uiso   1.00
O1004  O     0.83334   0.56012   0.87294   0.00000  Uiso   1.00
O1005  O     0.75828   0.50000   0.86379   0.00000  Uiso   1.00
O1006  O     0.90839   0.50000   0.80288   0.00000  Uiso   1.00
O1007  O     0.75828   0.49999   0.78460   0.00000  Uiso   1.00
O1008  O     0.90839   0.50001   0.88207   0.00000  Uiso   1.00
Br1009 Br    0.08034   0.77406   0.71066   0.00000  Uiso   1.00
Br1010 Br    0.25299   0.89260   0.95600   0.00000  Uiso   1.00
Br1011 Br    0.08450   0.77053   0.93245   0.00000  Uiso   1.00
Br1012 Br    0.24883   0.89614   0.73422   0.00000  Uiso   1.00
C1013  C     0.16985   0.75430   0.83334   0.00000  Uiso   1.00
C1014  C     0.17892   0.68879   0.87588   0.00000  Uiso   1.00
C1015  C     0.16056   0.95716   0.83360   0.00000  Uiso   1.00
C1016  C     0.17277   0.70950   0.83307   0.00000  Uiso   1.00
C1017  C     0.13185   0.80866   0.68647   0.00000  Uiso   1.00
C1018  C     0.20149   0.85800   0.98020   0.00000  Uiso   1.00
C1019  C     0.13230   0.80829   0.97052   0.00000  Uiso   1.00
C1020  C     0.20103   0.85838   0.69614   0.00000  Uiso   1.00
C1021  C     0.17188   0.70478   0.74618   0.00000  Uiso   1.00
C1022  C     0.16146   0.96189   0.92049   0.00000  Uiso   1.00
C1023  C     0.13286   0.95693   0.74710   0.00000  Uiso   1.00
C1024  C     0.16349   0.91236   0.83332   0.00000  Uiso   1.00
C1025  C     0.20047   0.70974   0.91956   0.00000  Uiso   1.00
C1026  C     0.06801   0.83319   0.82127   0.00000  Uiso   1.00
C1027  C     0.26533   0.83348   0.84540   0.00000  Uiso   1.00
C1028  C     0.01259   0.83283   0.81474   0.00000  Uiso   1.00
C1029  C     0.32074   0.83384   0.85193   0.00000  Uiso   1.00
C1030  C     0.16463   0.68666   0.79045   0.00000  Uiso   1.00
C1031  C     0.16870   0.98001   0.87622   0.00000  Uiso   1.00
C1032  C     0.15442   0.97788   0.79079   0.00000  Uiso   1.00
Cu1033 Cu    0.16667   0.83334   0.88022   0.00000  Uiso   1.00
Cu1034 Cu    0.16667   0.83333   0.78645   0.00000  Uiso   1.00
H1035  H     0.32578   0.83156   0.77910   0.00000  Uiso   1.00
H1036  H     0.00755   0.83510   0.88756   0.00000  Uiso   1.00
N1037  N     0.16668   0.83334   0.95069   0.00000  Uiso   1.00
N1038  N     0.16665   0.83332   0.71597   0.00000  Uiso   1.00
N1039  N     0.17833   0.71868   0.71075   0.00000  Uiso   1.00
N1040  N     0.15500   0.94799   0.95592   0.00000  Uiso   1.00
N1041  N     0.11516   0.94021   0.71253   0.00000  Uiso   1.00
N1042  N     0.21817   0.72646   0.95413   0.00000  Uiso   1.00
O1043  O     0.16666   0.77322   0.87291   0.00000  Uiso   1.00
O1044  O     0.16667   0.89345   0.79375   0.00000  Uiso   1.00
O1045  O     0.16666   0.77321   0.79372   0.00000  Uiso   1.00
O1046  O     0.16667   0.89346   0.87294   0.00000  Uiso   1.00
O1047  O     0.09161   0.83334   0.86379   0.00000  Uiso   1.00
O1048  O     0.24172   0.83333   0.80288   0.00000  Uiso   1.00
O1049  O     0.09161   0.83333   0.78460   0.00000  Uiso   1.00
O1050  O     0.24172   0.83334   0.88207   0.00000  Uiso   1.00
Br1051 Br    0.41367   0.77406   0.71066   0.00000  Uiso   1.00
Br1052 Br    0.58633   0.89260   0.95600   0.00000  Uiso   1.00
Br1053 Br    0.41783   0.77053   0.93245   0.00000  Uiso   1.00
Br1054 Br    0.58217   0.89614   0.73422   0.00000  Uiso   1.00
C1055  C     0.50318   0.75430   0.83334   0.00000  Uiso   1.00
C1056  C     0.51225   0.68879   0.87588   0.00000  Uiso   1.00
C1057  C     0.49389   0.95716   0.83360   0.00000  Uiso   1.00
C1058  C     0.50611   0.70950   0.83307   0.00000  Uiso   1.00
C1059  C     0.46518   0.80866   0.68647   0.00000  Uiso   1.00
C1060  C     0.53482   0.85800   0.98020   0.00000  Uiso   1.00
C1061  C     0.46563   0.80829   0.97052   0.00000  Uiso   1.00
C1062  C     0.53437   0.85838   0.69614   0.00000  Uiso   1.00
C1063  C     0.50521   0.70478   0.74618   0.00000  Uiso   1.00
C1064  C     0.49479   0.96189   0.92049   0.00000  Uiso   1.00
C1065  C     0.46619   0.95693   0.74710   0.00000  Uiso   1.00
C1066  C     0.49682   0.91236   0.83332   0.00000  Uiso   1.00
C1067  C     0.53381   0.70974   0.91956   0.00000  Uiso   1.00
C1068  C     0.40134   0.83319   0.82127   0.00000  Uiso   1.00
C1069  C     0.59866   0.83348   0.84540   0.00000  Uiso   1.00
C1070  C     0.34592   0.83283   0.81474   0.00000  Uiso   1.00
C1071  C     0.65408   0.83384   0.85193   0.00000  Uiso   1.00
C1072  C     0.49797   0.68666   0.79045   0.00000  Uiso   1.00
C1073  C     0.50203   0.98001   0.87622   0.00000  Uiso   1.00
C1074  C     0.48775   0.97788   0.79079   0.00000  Uiso   1.00
Cu1075 Cu    0.50000   0.83334   0.88022   0.00000  Uiso   1.00
Cu1076 Cu    0.50000   0.83333   0.78645   0.00000  Uiso   1.00
H1077  H     0.65912   0.83156   0.77910   0.00000  Uiso   1.00
H1078  H     0.34088   0.83510   0.88756   0.00000  Uiso   1.00
N1079  N     0.50001   0.83334   0.95069   0.00000  Uiso   1.00
N1080  N     0.49999   0.83332   0.71597   0.00000  Uiso   1.00
N1081  N     0.51167   0.71868   0.71075   0.00000  Uiso   1.00
N1082  N     0.48833   0.94799   0.95592   0.00000  Uiso   1.00
N1083  N     0.44849   0.94021   0.71253   0.00000  Uiso   1.00
N1084  N     0.55151   0.72646   0.95413   0.00000  Uiso   1.00
O1085  O     0.50000   0.77322   0.87291   0.00000  Uiso   1.00
O1086  O     0.50000   0.89345   0.79375   0.00000  Uiso   1.00
O1087  O     0.50000   0.77321   0.79372   0.00000  Uiso   1.00
O1088  O     0.50000   0.89346   0.87294   0.00000  Uiso   1.00
O1089  O     0.42495   0.83334   0.86379   0.00000  Uiso   1.00
O1090  O     0.57505   0.83333   0.80288   0.00000  Uiso   1.00
O1091  O     0.42494   0.83333   0.78460   0.00000  Uiso   1.00
O1092  O     0.57506   0.83334   0.88207   0.00000  Uiso   1.00
Br1093 Br    0.74701   0.77406   0.71066   0.00000  Uiso   1.00
Br1094 Br    0.91966   0.89260   0.95600   0.00000  Uiso   1.00
Br1095 Br    0.75117   0.77053   0.93245   0.00000  Uiso   1.00
Br1096 Br    0.91550   0.89614   0.73422   0.00000  Uiso   1.00
C1097  C     0.83651   0.75430   0.83334   0.00000  Uiso   1.00
C1098  C     0.84558   0.68879   0.87588   0.00000  Uiso   1.00
C1099  C     0.82723   0.95716   0.83360   0.00000  Uiso   1.00
C1100  C     0.83944   0.70950   0.83307   0.00000  Uiso   1.00
C1101  C     0.79851   0.80866   0.68647   0.00000  Uiso   1.00
C1102  C     0.86815   0.85800   0.98020   0.00000  Uiso   1.00
C1103  C     0.79897   0.80829   0.97052   0.00000  Uiso   1.00
C1104  C     0.86770   0.85838   0.69614   0.00000  Uiso   1.00
C1105  C     0.83854   0.70478   0.74618   0.00000  Uiso   1.00
C1106  C     0.82812   0.96189   0.92049   0.00000  Uiso   1.00
C1107  C     0.79953   0.95693   0.74710   0.00000  Uiso   1.00
C1108  C     0.83015   0.91236   0.83332   0.00000  Uiso   1.00
C1109  C     0.86714   0.70974   0.91956   0.00000  Uiso   1.00
C1110  C     0.73468   0.83319   0.82127   0.00000  Uiso   1.00
C1111  C     0.93199   0.83348   0.84540   0.00000  Uiso   1.00
C1112  C     0.67926   0.83283   0.81474   0.00000  Uiso   1.00
C1113  C     0.98741   0.83384   0.85193   0.00000  Uiso   1.00
C1114  C     0.83130   0.68666   0.79045   0.00000  Uiso   1.00
C1115  C     0.83537   0.98001   0.87622   0.00000  Uiso   1.00
C1116  C     0.82108   0.97788   0.79079   0.00000  Uiso   1.00
Cu1117 Cu    0.83333   0.83334   0.88022   0.00000  Uiso   1.00
Cu1118 Cu    0.83333   0.83333   0.78645   0.00000  Uiso   1.00
H1119  H     0.99245   0.83156   0.77910   0.00000  Uiso   1.00
H1120  H     0.67422   0.83510   0.88756   0.00000  Uiso   1.00
N1121  N     0.83335   0.83334   0.95069   0.00000  Uiso   1.00
N1122  N     0.83332   0.83332   0.71597   0.00000  Uiso   1.00
N1123  N     0.84500   0.71868   0.71075   0.00000  Uiso   1.00
N1124  N     0.82167   0.94799   0.95592   0.00000  Uiso   1.00
N1125  N     0.78183   0.94021   0.71253   0.00000  Uiso   1.00
N1126  N     0.88484   0.72646   0.95413   0.00000  Uiso   1.00
O1127  O     0.83333   0.77322   0.87291   0.00000  Uiso   1.00
O1128  O     0.83334   0.89345   0.79375   0.00000  Uiso   1.00
O1129  O     0.83333   0.77321   0.79372   0.00000  Uiso   1.00
O1130  O     0.83334   0.89346   0.87294   0.00000  Uiso   1.00
O1131  O     0.75828   0.83334   0.86379   0.00000  Uiso   1.00
O1132  O     0.90839   0.83333   0.80288   0.00000  Uiso   1.00
O1133  O     0.75828   0.83333   0.78460   0.00000  Uiso   1.00
O1134  O     0.90839   0.83334   0.88207   0.00000  Uiso   1.00
loop_
_geom_bond_atom_site_label_1
_geom_bond_atom_site_label_2
_geom_bond_distance
_geom_bond_site_symmetry_2
_ccdc_geom_bond_type
Br1    C9      1.929   .     S
Br2    C10     1.929   .     S
Br3    C11     1.928   .     S
Br4    C12     1.928   .     S
C5     C8      1.477   .     S
C5     O37     1.304   .     A
C5     O35     1.307   .     A
C6     C17     1.454   .     S
C6     C8      1.412   .     A
C6     C275    1.395   1_545 S
C7     C23     1.415   .     A
C7     C24     1.412   .     A
C7     C16     1.477   .     S
C8     C22     1.415   .     A
C9     N30     1.376   .     A
C9     C767    1.424   1_554 S
C10    N29     1.376   .     A
C10    C390    1.424   .     S
C11    N29     1.376   .     A
C11    C387    1.424   .     S
C12    N30     1.376   .     A
C12    C766    1.424   1_554 S
C13    C22     1.450   .     S
C13    N31     1.156   .     T
C14    C23     1.450   .     S
C14    N32     1.156   .     T
C15    C24     1.454   .     S
C15    N33     1.157   .     T
C16    O36     1.307   .     A
C16    O38     1.304   .     A
C17    N34     1.157   .     T
C18    O39     1.294   .     A
C18    C20     1.435   .     S
C18    O41     1.298   .     A
C19    O42     1.298   .     A
C19    C21     1.435   .     S
C19    O40     1.294   .     A
C20    C105    1.337   1_455 S
C20    H111    1.087   1_455 S
C21    C62     1.337   .     S
C21    H70     1.087   .     S
C22    C276    1.395   1_545 S
C23    C132    1.395   .     S
C24    C148    1.395   .     S
Cu25   O42     1.957   .     S
Cu25   O38     1.988   .     S
Cu25   O35     1.982   .     S
Cu25   N29     2.034   .     S
Cu25   Cu26    2.707   .     S
Cu25   O39     1.954   .     S
Cu26   O37     1.988   .     S
Cu26   O40     1.954   .     S
Cu26   O36     1.982   .     S
Cu26   N30     2.034   .     S
Cu26   O41     1.957   .     S
H27    C62     1.087   .     S
H28    C105    1.087   1_455 S
Br43   C51     1.929   .     S
Br44   C52     1.929   .     S
Br45   C53     1.928   .     S
Br46   C54     1.928   .     S
C47    C50     1.477   .     S
C47    O79     1.304   .     A
C47    O77     1.307   .     A
C48    C59     1.454   .     S
C48    C50     1.412   .     A
C48    C317    1.395   1_545 S
C49    C65     1.415   .     A
C49    C66     1.412   .     A
C49    C58     1.477   .     S
C50    C64     1.415   .     A
C51    N72     1.376   .     A
C51    C809    1.424   1_554 S
C52    N71     1.376   .     A
C52    C432    1.424   .     S
C53    N71     1.376   .     A
C53    C429    1.424   .     S
C54    N72     1.376   .     A
C54    C808    1.424   1_554 S
C55    C64     1.450   .     S
C55    N73     1.156   .     T
C56    C65     1.450   .     S
C56    N74     1.156   .     T
C57    C66     1.454   .     S
C57    N75     1.157   .     T
C58    O78     1.307   .     A
C58    O80     1.304   .     A
C59    N76     1.157   .     T
C60    O81     1.294   .     A
C60    C62     1.435   .     S
C60    O83     1.298   .     A
C61    O84     1.298   .     A
C61    C63     1.435   .     S
C61    O82     1.294   .     A
C63    C104    1.337   .     S
C63    H112    1.087   .     S
C64    C318    1.395   1_545 S
C65    C174    1.395   .     S
C66    C190    1.395   .     S
Cu67   O84     1.957   .     S
Cu67   O80     1.988   .     S
Cu67   O77     1.982   .     S
Cu67   N71     2.034   .     S
Cu67   Cu68    2.707   .     S
Cu67   O81     1.954   .     S
Cu68   O79     1.988   .     S
Cu68   O82     1.954   .     S
Cu68   O78     1.982   .     S
Cu68   N72     2.034   .     S
Cu68   O83     1.957   .     S
H69    C104    1.087   .     S
Br85   C93     1.929   .     S
Br86   C94     1.929   .     S
Br87   C95     1.928   .     S
Br88   C96     1.928   .     S
C89    C92     1.477   .     S
C89    O121    1.304   .     A
C89    O119    1.307   .     A
C90    C101    1.454   .     S
C90    C92     1.412   .     A
C90    C359    1.395   1_545 S
C91    C107    1.415   .     A
C91    C108    1.412   .     A
C91    C100    1.477   .     S
C92    C106    1.415   .     A
C93    N114    1.376   .     A
C93    C851    1.424   1_554 S
C94    N113    1.376   .     A
C94    C474    1.424   .     S
C95    N113    1.376   .     A
C95    C471    1.424   .     S
C96    N114    1.376   .     A
C96    C850    1.424   1_554 S
C97    C106    1.450   .     S
C97    N115    1.156   .     T
C98    C107    1.450   .     S
C98    N116    1.156   .     T
C99    C108    1.454   .     S
C99    N117    1.157   .     T
C100   O120    1.307   .     A
C100   O122    1.304   .     A
C101   N118    1.157   .     T
C102   O123    1.294   .     A
C102   C104    1.435   .     S
C102   O125    1.298   .     A
C103   O126    1.298   .     A
C103   C105    1.435   .     S
C103   O124    1.294   .     A
C105   C20     1.337   1_655 S
C105   H28     1.087   1_655 S
C106   C360    1.395   1_545 S
C107   C216    1.395   .     S
C108   C232    1.395   .     S
Cu109  O126    1.957   .     S
Cu109  O122    1.988   .     S
Cu109  O119    1.982   .     S
Cu109  N113    2.034   .     S
Cu109  Cu110   2.707   .     S
Cu109  O123    1.954   .     S
Cu110  O121    1.988   .     S
Cu110  O124    1.954   .     S
Cu110  O120    1.982   .     S
Cu110  N114    2.034   .     S
Cu110  O125    1.957   .     S
H111   C20     1.087   1_655 S
Br127  C135    1.929   .     S
Br128  C136    1.929   .     S
Br129  C137    1.928   .     S
Br130  C138    1.928   .     S
C131   C134    1.477   .     S
C131   O163    1.304   .     A
C131   O161    1.307   .     A
C132   C143    1.454   .     S
C132   C134    1.412   .     A
C133   C149    1.415   .     A
C133   C150    1.412   .     A
C133   C142    1.477   .     S
C134   C148    1.415   .     A
C135   N156    1.376   .     A
C135   C893    1.424   1_554 S
C136   N155    1.376   .     A
C136   C516    1.424   .     S
C137   N155    1.376   .     A
C137   C513    1.424   .     S
C138   N156    1.376   .     A
C138   C892    1.424   1_554 S
C139   C148    1.450   .     S
C139   N157    1.156   .     T
C140   C149    1.450   .     S
C140   N158    1.156   .     T
C141   C150    1.454   .     S
C141   N159    1.157   .     T
C142   O162    1.307   .     A
C142   O164    1.304   .     A
C143   N160    1.157   .     T
C144   O165    1.294   .     A
C144   C146    1.435   .     S
C144   O167    1.298   .     A
C145   O168    1.298   .     A
C145   C147    1.435   .     S
C145   O166    1.294   .     A
C146   C231    1.337   1_455 S
C146   H237    1.087   1_455 S
C147   C188    1.337   .     S
C147   H196    1.087   .     S
C149   C258    1.395   .     S
C150   C274    1.395   .     S
Cu151  O168    1.957   .     S
Cu151  O164    1.988   .     S
Cu151  O161    1.982   .     S
Cu151  N155    2.034   .     S
Cu151  Cu152   2.707   .     S
Cu151  O165    1.954   .     S
Cu152  O163    1.988   .     S
Cu152  O166    1.954   .     S
Cu152  O162    1.982   .     S
Cu152  N156    2.034   .     S
Cu152  O167    1.957   .     S
H153   C188    1.087   .     S
H154   C231    1.087   1_455 S
Br169  C177    1.929   .     S
Br170  C178    1.929   .     S
Br171  C179    1.928   .     S
Br172  C180    1.928   .     S
C173   C176    1.477   .     S
C173   O205    1.304   .     A
C173   O203    1.307   .     A
C174   C185    1.454   .     S
C174   C176    1.412   .     A
C175   C191    1.415   .     A
C175   C192    1.412   .     A
C175   C184    1.477   .     S
C176   C190    1.415   .     A
C177   N198    1.376   .     A
C177   C935    1.424   1_554 S
C178   N197    1.376   .     A
C178   C558    1.424   .     S
C179   N197    1.376   .     A
C179   C555    1.424   .     S
C180   N198    1.376   .     A
C180   C934    1.424   1_554 S
C181   C190    1.450   .     S
C181   N199    1.156   .     T
C182   C191    1.450   .     S
C182   N200    1.156   .     T
C183   C192    1.454   .     S
C183   N201    1.157   .     T
C184   O204    1.307   .     A
C184   O206    1.304   .     A
C185   N202    1.157   .     T
C186   O207    1.294   .     A
C186   C188    1.435   .     S
C186   O209    1.298   .     A
C187   O210    1.298   .     A
C187   C189    1.435   .     S
C187   O208    1.294   .     A
C189   C230    1.337   .     S
C189   H238    1.087   .     S
C191   C300    1.395   .     S
C192   C316    1.395   .     S
Cu193  O210    1.957   .     S
Cu193  O206    1.988   .     S
Cu193  O203    1.982   .     S
Cu193  N197    2.034   .     S
Cu193  Cu194   2.707   .     S
Cu193  O207    1.954   .     S
Cu194  O205    1.988   .     S
Cu194  O208    1.954   .     S
Cu194  O204    1.982   .     S
Cu194  N198    2.034   .     S
Cu194  O209    1.957   .     S
H195   C230    1.087   .     S
Br211  C219    1.929   .     S
Br212  C220    1.929   .     S
Br213  C221    1.928   .     S
Br214  C222    1.928   .     S
C215   C218    1.477   .     S
C215   O247    1.304   .     A
C215   O245    1.307   .     A
C216   C227    1.454   .     S
C216   C218    1.412   .     A
C217   C233    1.415   .     A
C217   C234    1.412   .     A
C217   C226    1.477   .     S
C218   C232    1.415   .     A
C219   N240    1.376   .     A
C219   C977    1.424   1_554 S
C220   N239    1.376   .     A
C220   C600    1.424   .     S
C221   N239    1.376   .     A
C221   C597    1.424   .     S
C222   N240    1.376   .     A
C222   C976    1.424   1_554 S
C223   C232    1.450   .     S
C223   N241    1.156   .     T
C224   C233    1.450   .     S
C224   N242    1.156   .     T
C225   C234    1.454   .     S
C225   N243    1.157   .     T
C226   O246    1.307   .     A
C226   O248    1.304   .     A
C227   N244    1.157   .     T
C228   O249    1.294   .     A
C228   C230    1.435   .     S
C228   O251    1.298   .     A
C229   O252    1.298   .     A
C229   C231    1.435   .     S
C229   O250    1.294   .     A
C231   C146    1.337   1_655 S
C231   H154    1.087   1_655 S
C233   C342    1.395   .     S
C234   C358    1.395   .     S
Cu235  O252    1.957   .     S
Cu235  O248    1.988   .     S
Cu235  O245    1.982   .     S
Cu235  N239    2.034   .     S
Cu235  Cu236   2.707   .     S
Cu235  O249    1.954   .     S
Cu236  O247    1.988   .     S
Cu236  O250    1.954   .     S
Cu236  O246    1.982   .     S
Cu236  N240    2.034   .     S
Cu236  O251    1.957   .     S
H237   C146    1.087   1_655 S
Br253  C261    1.929   .     S
Br254  C262    1.929   .     S
Br255  C263    1.928   .     S
Br256  C264    1.928   .     S
C257   C260    1.477   .     S
C257   O289    1.304   .     A
C257   O287    1.307   .     A
C258   C269    1.454   .     S
C258   C260    1.412   .     A
C259   C275    1.415   .     A
C259   C276    1.412   .     A
C259   C268    1.477   .     S
C260   C274    1.415   .     A
C261   N282    1.376   .     A
C261   C1019   1.424   1_554 S
C262   N281    1.376   .     A
C262   C642    1.424   .     S
C263   N281    1.376   .     A
C263   C639    1.424   .     S
C264   N282    1.376   .     A
C264   C1018   1.424   1_554 S
C265   C274    1.450   .     S
C265   N283    1.156   .     T
C266   C275    1.450   .     S
C266   N284    1.156   .     T
C267   C276    1.454   .     S
C267   N285    1.157   .     T
C268   O288    1.307   .     A
C268   O290    1.304   .     A
C269   N286    1.157   .     T
C270   O291    1.294   .     A
C270   C272    1.435   .     S
C270   O293    1.298   .     A
C271   O294    1.298   .     A
C271   C273    1.435   .     S
C271   O292    1.294   .     A
C272   C357    1.337   1_455 S
C272   H363    1.087   1_455 S
C273   C314    1.337   .     S
C273   H322    1.087   .     S
C275   C6      1.395   1_565 S
C276   C22     1.395   1_565 S
Cu277  O294    1.957   .     S
Cu277  O290    1.988   .     S
Cu277  O287    1.982   .     S
Cu277  N281    2.034   .     S
Cu277  Cu278   2.707   .     S
Cu277  O291    1.954   .     S
Cu278  O289    1.988   .     S
Cu278  O292    1.954   .     S
Cu278  O288    1.982   .     S
Cu278  N282    2.034   .     S
Cu278  O293    1.957   .     S
H279   C314    1.087   .     S
H280   C357    1.087   1_455 S
Br295  C303    1.929   .     S
Br296  C304    1.929   .     S
Br297  C305    1.928   .     S
Br298  C306    1.928   .     S
C299   C302    1.477   .     S
C299   O331    1.304   .     A
C299   O329    1.307   .     A
C300   C311    1.454   .     S
C300   C302    1.412   .     A
C301   C317    1.415   .     A
C301   C318    1.412   .     A
C301   C310    1.477   .     S
C302   C316    1.415   .     A
C303   N324    1.376   .     A
C303   C1061   1.424   1_554 S
C304   N323    1.376   .     A
C304   C684    1.424   .     S
C305   N323    1.376   .     A
C305   C681    1.424   .     S
C306   N324    1.376   .     A
C306   C1060   1.424   1_554 S
C307   C316    1.450   .     S
C307   N325    1.156   .     T
C308   C317    1.450   .     S
C308   N326    1.156   .     T
C309   C318    1.454   .     S
C309   N327    1.157   .     T
C310   O330    1.307   .     A
C310   O332    1.304   .     A
C311   N328    1.157   .     T
C312   O333    1.294   .     A
C312   C314    1.435   .     S
C312   O335    1.298   .     A
C313   O336    1.298   .     A
C313   C315    1.435   .     S
C313   O334    1.294   .     A
C315   C356    1.337   .     S
C315   H364    1.087   .     S
C317   C48     1.395   1_565 S
C318   C64     1.395   1_565 S
Cu319  O336    1.957   .     S
Cu319  O332    1.988   .     S
Cu319  O329    1.982   .     S
Cu319  N323    2.034   .     S
Cu319  Cu320   2.707   .     S
Cu319  O333    1.954   .     S
Cu320  O331    1.988   .     S
Cu320  O334    1.954   .     S
Cu320  O330    1.982   .     S
Cu320  N324    2.034   .     S
Cu320  O335    1.957   .     S
H321   C356    1.087   .     S
Br337  C345    1.929   .     S
Br338  C346    1.929   .     S
Br339  C347    1.928   .     S
Br340  C348    1.928   .     S
C341   C344    1.477   .     S
C341   O373    1.304   .     A
C341   O371    1.307   .     A
C342   C353    1.454   .     S
C342   C344    1.412   .     A
C343   C359    1.415   .     A
C343   C360    1.412   .     A
C343   C352    1.477   .     S
C344   C358    1.415   .     A
C345   N366    1.376   .     A
C345   C1103   1.424   1_554 S
C346   N365    1.376   .     A
C346   C726    1.424   .     S
C347   N365    1.376   .     A
C347   C723    1.424   .     S
C348   N366    1.376   .     A
C348   C1102   1.424   1_554 S
C349   C358    1.450   .     S
C349   N367    1.156   .     T
C350   C359    1.450   .     S
C350   N368    1.156   .     T
C351   C360    1.454   .     S
C351   N369    1.157   .     T
C352   O372    1.307   .     A
C352   O374    1.304   .     A
C353   N370    1.157   .     T
C354   O375    1.294   .     A
C354   C356    1.435   .     S
C354   O377    1.298   .     A
C355   O378    1.298   .     A
C355   C357    1.435   .     S
C355   O376    1.294   .     A
C357   C272    1.337   1_655 S
C357   H280    1.087   1_655 S
C359   C90     1.395   1_565 S
C360   C106    1.395   1_565 S
Cu361  O378    1.957   .     S
Cu361  O374    1.988   .     S
Cu361  O371    1.982   .     S
Cu361  N365    2.034   .     S
Cu361  Cu362   2.707   .     S
Cu361  O375    1.954   .     S
Cu362  O373    1.988   .     S
Cu362  O376    1.954   .     S
Cu362  O372    1.982   .     S
Cu362  N366    2.034   .     S
Cu362  O377    1.957   .     S
H363   C272    1.087   1_655 S
Br379  C387    1.929   .     S
Br380  C388    1.929   .     S
Br381  C389    1.928   .     S
Br382  C390    1.928   .     S
C383   C386    1.477   .     S
C383   O415    1.304   .     A
C383   O413    1.307   .     A
C384   C395    1.454   .     S
C384   C386    1.412   .     A
C384   C653    1.395   1_545 S
C385   C401    1.415   .     A
C385   C402    1.412   .     A
C385   C394    1.477   .     S
C386   C400    1.415   .     A
C387   N408    1.376   .     A
C388   N407    1.376   .     A
C388   C768    1.424   .     S
C389   N407    1.376   .     A
C389   C765    1.424   .     S
C390   N408    1.376   .     A
C391   C400    1.450   .     S
C391   N409    1.156   .     T
C392   C401    1.450   .     S
C392   N410    1.156   .     T
C393   C402    1.454   .     S
C393   N411    1.157   .     T
C394   O414    1.307   .     A
C394   O416    1.304   .     A
C395   N412    1.157   .     T
C396   O417    1.294   .     A
C396   C398    1.435   .     S
C396   O419    1.298   .     A
C397   O420    1.298   .     A
C397   C399    1.435   .     S
C397   O418    1.294   .     A
C398   C483    1.337   1_455 S
C398   H489    1.087   1_455 S
C399   C440    1.337   .     S
C399   H448    1.087   .     S
C400   C654    1.395   1_545 S
C401   C510    1.395   .     S
C402   C526    1.395   .     S
Cu403  O420    1.957   .     S
Cu403  O416    1.988   .     S
Cu403  O413    1.982   .     S
Cu403  N407    2.034   .     S
Cu403  Cu404   2.707   .     S
Cu403  O417    1.954   .     S
Cu404  O415    1.988   .     S
Cu404  O418    1.954   .     S
Cu404  O414    1.982   .     S
Cu404  N408    2.034   .     S
Cu404  O419    1.957   .     S
H405   C440    1.087   .     S
H406   C483    1.087   1_455 S
Br421  C429    1.929   .     S
Br422  C430    1.929   .     S
Br423  C431    1.928   .     S
Br424  C432    1.928   .     S
C425   C428    1.477   .     S
C425   O457    1.304   .     A
C425   O455    1.307   .     A
C426   C437    1.454   .     S
C426   C428    1.412   .     A
C426   C695    1.395   1_545 S
C427   C443    1.415   .     A
C427   C444    1.412   .     A
C427   C436    1.477   .     S
C428   C442    1.415   .     A
C429   N450    1.376   .     A
C430   N449    1.376   .     A
C430   C810    1.424   .     S
C431   N449    1.376   .     A
C431   C807    1.424   .     S
C432   N450    1.376   .     A
C433   C442    1.450   .     S
C433   N451    1.156   .     T
C434   C443    1.450   .     S
C434   N452    1.156   .     T
C435   C444    1.454   .     S
C435   N453    1.157   .     T
C436   O456    1.307   .     A
C436   O458    1.304   .     A
C437   N454    1.157   .     T
C438   O459    1.294   .     A
C438   C440    1.435   .     S
C438   O461    1.298   .     A
C439   O462    1.298   .     A
C439   C441    1.435   .     S
C439   O460    1.294   .     A
C441   C482    1.337   .     S
C441   H490    1.087   .     S
C442   C696    1.395   1_545 S
C443   C552    1.395   .     S
C444   C568    1.395   .     S
Cu445  O462    1.957   .     S
Cu445  O458    1.988   .     S
Cu445  O455    1.982   .     S
Cu445  N449    2.034   .     S
Cu445  Cu446   2.707   .     S
Cu445  O459    1.954   .     S
Cu446  O457    1.988   .     S
Cu446  O460    1.954   .     S
Cu446  O456    1.982   .     S
Cu446  N450    2.034   .     S
Cu446  O461    1.957   .     S
H447   C482    1.087   .     S
Br463  C471    1.929   .     S
Br464  C472    1.929   .     S
Br465  C473    1.928   .     S
Br466  C474    1.928   .     S
C467   C470    1.477   .     S
C467   O499    1.304   .     A
C467   O497    1.307   .     A
C468   C479    1.454   .     S
C468   C470    1.412   .     A
C468   C737    1.395   1_545 S
C469   C485    1.415   .     A
C469   C486    1.412   .     A
C469   C478    1.477   .     S
C470   C484    1.415   .     A
C471   N492    1.376   .     A
C472   N491    1.376   .     A
C472   C852    1.424   .     S
C473   N491    1.376   .     A
C473   C849    1.424   .     S
C474   N492    1.376   .     A
C475   C484    1.450   .     S
C475   N493    1.156   .     T
C476   C485    1.450   .     S
C476   N494    1.156   .     T
C477   C486    1.454   .     S
C477   N495    1.157   .     T
C478   O498    1.307   .     A
C478   O500    1.304   .     A
C479   N496    1.157   .     T
C480   O501    1.294   .     A
C480   C482    1.435   .     S
C480   O503    1.298   .     A
C481   O504    1.298   .     A
C481   C483    1.435   .     S
C481   O502    1.294   .     A
C483   C398    1.337   1_655 S
C483   H406    1.087   1_655 S
C484   C738    1.395   1_545 S
C485   C594    1.395   .     S
C486   C610    1.395   .     S
Cu487  O504    1.957   .     S
Cu487  O500    1.988   .     S
Cu487  O497    1.982   .     S
Cu487  N491    2.034   .     S
Cu487  Cu488   2.707   .     S
Cu487  O501    1.954   .     S
Cu488  O499    1.988   .     S
Cu488  O502    1.954   .     S
Cu488  O498    1.982   .     S
Cu488  N492    2.034   .     S
Cu488  O503    1.957   .     S
H489   C398    1.087   1_655 S
Br505  C513    1.929   .     S
Br506  C514    1.929   .     S
Br507  C515    1.928   .     S
Br508  C516    1.928   .     S
C509   C512    1.477   .     S
C509   O541    1.304   .     A
C509   O539    1.307   .     A
C510   C521    1.454   .     S
C510   C512    1.412   .     A
C511   C527    1.415   .     A
C511   C528    1.412   .     A
C511   C520    1.477   .     S
C512   C526    1.415   .     A
C513   N534    1.376   .     A
C514   N533    1.376   .     A
C514   C894    1.424   .     S
C515   N533    1.376   .     A
C515   C891    1.424   .     S
C516   N534    1.376   .     A
C517   C526    1.450   .     S
C517   N535    1.156   .     T
C518   C527    1.450   .     S
C518   N536    1.156   .     T
C519   C528    1.454   .     S
C519   N537    1.157   .     T
C520   O540    1.307   .     A
C520   O542    1.304   .     A
C521   N538    1.157   .     T
C522   O543    1.294   .     A
C522   C524    1.435   .     S
C522   O545    1.298   .     A
C523   O546    1.298   .     A
C523   C525    1.435   .     S
C523   O544    1.294   .     A
C524   C609    1.337   1_455 S
C524   H615    1.087   1_455 S
C525   C566    1.337   .     S
C525   H574    1.087   .     S
C527   C636    1.395   .     S
C528   C652    1.395   .     S
Cu529  O546    1.957   .     S
Cu529  O542    1.988   .     S
Cu529  O539    1.982   .     S
Cu529  N533    2.034   .     S
Cu529  Cu530   2.707   .     S
Cu529  O543    1.954   .     S
Cu530  O541    1.988   .     S
Cu530  O544    1.954   .     S
Cu530  O540    1.982   .     S
Cu530  N534    2.034   .     S
Cu530  O545    1.957   .     S
H531   C566    1.087   .     S
H532   C609    1.087   1_455 S
Br547  C555    1.929   .     S
Br548  C556    1.929   .     S
Br549  C557    1.928   .     S
Br550  C558    1.928   .     S
C551   C554    1.477   .     S
C551   O583    1.304   .     A
C551   O581    1.307   .     A
C552   C563    1.454   .     S
C552   C554    1.412   .     A
C553   C569    1.415   .     A
C553   C570    1.412   .     A
C553   C562    1.477   .     S
C554   C568    1.415   .     A
C555   N576    1.376   .     A
C556   N575    1.376   .     A
C556   C936    1.424   .     S
C557   N575    1.376   .     A
C557   C933    1.424   .     S
C558   N576    1.376   .     A
C559   C568    1.450   .     S
C559   N577    1.156   .     T
C560   C569    1.450   .     S
C560   N578    1.156   .     T
C561   C570    1.454   .     S
C561   N579    1.157   .     T
C562   O582    1.307   .     A
C562   O584    1.304   .     A
C563   N580    1.157   .     T
C564   O585    1.294   .     A
C564   C566    1.435   .     S
C564   O587    1.298   .     A
C565   O588    1.298   .     A
C565   C567    1.435   .     S
C565   O586    1.294   .     A
C567   C608    1.337   .     S
C567   H616    1.087   .     S
C569   C678    1.395   .     S
C570   C694    1.395   .     S
Cu571  O588    1.957   .     S
Cu571  O584    1.988   .     S
Cu571  O581    1.982   .     S
Cu571  N575    2.034   .     S
Cu571  Cu572   2.707   .     S
Cu571  O585    1.954   .     S
Cu572  O583    1.988   .     S
Cu572  O586    1.954   .     S
Cu572  O582    1.982   .     S
Cu572  N576    2.034   .     S
Cu572  O587    1.957   .     S
H573   C608    1.087   .     S
Br589  C597    1.929   .     S
Br590  C598    1.929   .     S
Br591  C599    1.928   .     S
Br592  C600    1.928   .     S
C593   C596    1.477   .     S
C593   O625    1.304   .     A
C593   O623    1.307   .     A
C594   C605    1.454   .     S
C594   C596    1.412   .     A
C595   C611    1.415   .     A
C595   C612    1.412   .     A
C595   C604    1.477   .     S
C596   C610    1.415   .     A
C597   N618    1.376   .     A
C598   N617    1.376   .     A
C598   C978    1.424   .     S
C599   N617    1.376   .     A
C599   C975    1.424   .     S
C600   N618    1.376   .     A
C601   C610    1.450   .     S
C601   N619    1.156   .     T
C602   C611    1.450   .     S
C602   N620    1.156   .     T
C603   C612    1.454   .     S
C603   N621    1.157   .     T
C604   O624    1.307   .     A
C604   O626    1.304   .     A
C605   N622    1.157   .     T
C606   O627    1.294   .     A
C606   C608    1.435   .     S
C606   O629    1.298   .     A
C607   O630    1.298   .     A
C607   C609    1.435   .     S
C607   O628    1.294   .     A
C609   C524    1.337   1_655 S
C609   H532    1.087   1_655 S
C611   C720    1.395   .     S
C612   C736    1.395   .     S
Cu613  O630    1.957   .     S
Cu613  O626    1.988   .     S
Cu613  O623    1.982   .     S
Cu613  N617    2.034   .     S
Cu613  Cu614   2.707   .     S
Cu613  O627    1.954   .     S
Cu614  O625    1.988   .     S
Cu614  O628    1.954   .     S
Cu614  O624    1.982   .     S
Cu614  N618    2.034   .     S
Cu614  O629    1.957   .     S
H615   C524    1.087   1_655 S
Br631  C639    1.929   .     S
Br632  C640    1.929   .     S
Br633  C641    1.928   .     S
Br634  C642    1.928   .     S
C635   C638    1.477   .     S
C635   O667    1.304   .     A
C635   O665    1.307   .     A
C636   C647    1.454   .     S
C636   C638    1.412   .     A
C637   C653    1.415   .     A
C637   C654    1.412   .     A
C637   C646    1.477   .     S
C638   C652    1.415   .     A
C639   N660    1.376   .     A
C640   N659    1.376   .     A
C640   C1020   1.424   .     S
C641   N659    1.376   .     A
C641   C1017   1.424   .     S
C642   N660    1.376   .     A
C643   C652    1.450   .     S
C643   N661    1.156   .     T
C644   C653    1.450   .     S
C644   N662    1.156   .     T
C645   C654    1.454   .     S
C645   N663    1.157   .     T
C646   O666    1.307   .     A
C646   O668    1.304   .     A
C647   N664    1.157   .     T
C648   O669    1.294   .     A
C648   C650    1.435   .     S
C648   O671    1.298   .     A
C649   O672    1.298   .     A
C649   C651    1.435   .     S
C649   O670    1.294   .     A
C650   C735    1.337   1_455 S
C650   H741    1.087   1_455 S
C651   C692    1.337   .     S
C651   H700    1.087   .     S
C653   C384    1.395   1_565 S
C654   C400    1.395   1_565 S
Cu655  O672    1.957   .     S
Cu655  O668    1.988   .     S
Cu655  O665    1.982   .     S
Cu655  N659    2.034   .     S
Cu655  Cu656   2.707   .     S
Cu655  O669    1.954   .     S
Cu656  O667    1.988   .     S
Cu656  O670    1.954   .     S
Cu656  O666    1.982   .     S
Cu656  N660    2.034   .     S
Cu656  O671    1.957   .     S
H657   C692    1.087   .     S
H658   C735    1.087   1_455 S
Br673  C681    1.929   .     S
Br674  C682    1.929   .     S
Br675  C683    1.928   .     S
Br676  C684    1.928   .     S
C677   C680    1.477   .     S
C677   O709    1.304   .     A
C677   O707    1.307   .     A
C678   C689    1.454   .     S
C678   C680    1.412   .     A
C679   C695    1.415   .     A
C679   C696    1.412   .     A
C679   C688    1.477   .     S
C680   C694    1.415   .     A
C681   N702    1.376   .     A
C682   N701    1.376   .     A
C682   C1062   1.424   .     S
C683   N701    1.376   .     A
C683   C1059   1.424   .     S
C684   N702    1.376   .     A
C685   C694    1.450   .     S
C685   N703    1.156   .     T
C686   C695    1.450   .     S
C686   N704    1.156   .     T
C687   C696    1.454   .     S
C687   N705    1.157   .     T
C688   O708    1.307   .     A
C688   O710    1.304   .     A
C689   N706    1.157   .     T
C690   O711    1.294   .     A
C690   C692    1.435   .     S
C690   O713    1.298   .     A
C691   O714    1.298   .     A
C691   C693    1.435   .     S
C691   O712    1.294   .     A
C693   C734    1.337   .     S
C693   H742    1.087   .     S
C695   C426    1.395   1_565 S
C696   C442    1.395   1_565 S
Cu697  O714    1.957   .     S
Cu697  O710    1.988   .     S
Cu697  O707    1.982   .     S
Cu697  N701    2.034   .     S
Cu697  Cu698   2.707   .     S
Cu697  O711    1.954   .     S
Cu698  O709    1.988   .     S
Cu698  O712    1.954   .     S
Cu698  O708    1.982   .     S
Cu698  N702    2.034   .     S
Cu698  O713    1.957   .     S
H699   C734    1.087   .     S
Br715  C723    1.929   .     S
Br716  C724    1.929   .     S
Br717  C725    1.928   .     S
Br718  C726    1.928   .     S
C719   C722    1.477   .     S
C719   O751    1.304   .     A
C719   O749    1.307   .     A
C720   C731    1.454   .     S
C720   C722    1.412   .     A
C721   C737    1.415   .     A
C721   C738    1.412   .     A
C721   C730    1.477   .     S
C722   C736    1.415   .     A
C723   N744    1.376   .     A
C724   N743    1.376   .     A
C724   C1104   1.424   .     S
C725   N743    1.376   .     A
C725   C1101   1.424   .     S
C726   N744    1.376   .     A
C727   C736    1.450   .     S
C727   N745    1.156   .     T
C728   C737    1.450   .     S
C728   N746    1.156   .     T
C729   C738    1.454   .     S
C729   N747    1.157   .     T
C730   O750    1.307   .     A
C730   O752    1.304   .     A
C731   N748    1.157   .     T
C732   O753    1.294   .     A
C732   C734    1.435   .     S
C732   O755    1.298   .     A
C733   O756    1.298   .     A
C733   C735    1.435   .     S
C733   O754    1.294   .     A
C735   C650    1.337   1_655 S
C735   H658    1.087   1_655 S
C737   C468    1.395   1_565 S
C738   C484    1.395   1_565 S
Cu739  O756    1.957   .     S
Cu739  O752    1.988   .     S
Cu739  O749    1.982   .     S
Cu739  N743    2.034   .     S
Cu739  Cu740   2.707   .     S
Cu739  O753    1.954   .     S
Cu740  O751    1.988   .     S
Cu740  O754    1.954   .     S
Cu740  O750    1.982   .     S
Cu740  N744    2.034   .     S
Cu740  O755    1.957   .     S
H741   C650    1.087   1_655 S
Br757  C765    1.929   .     S
Br758  C766    1.929   .     S
Br759  C767    1.928   .     S
Br760  C768    1.928   .     S
C761   C764    1.477   .     S
C761   O793    1.304   .     A
C761   O791    1.307   .     A
C762   C773    1.454   .     S
C762   C764    1.412   .     A
C762   C1031   1.395   1_545 S
C763   C779    1.415   .     A
C763   C780    1.412   .     A
C763   C772    1.477   .     S
C764   C778    1.415   .     A
C765   N786    1.376   .     A
C766   N785    1.376   .     A
C766   C12     1.424   1_556 S
C767   N785    1.376   .     A
C767   C9      1.424   1_556 S
C768   N786    1.376   .     A
C769   C778    1.450   .     S
C769   N787    1.156   .     T
C770   C779    1.450   .     S
C770   N788    1.156   .     T
C771   C780    1.454   .     S
C771   N789    1.157   .     T
C772   O792    1.307   .     A
C772   O794    1.304   .     A
C773   N790    1.157   .     T
C774   O795    1.294   .     A
C774   C776    1.435   .     S
C774   O797    1.298   .     A
C775   O798    1.298   .     A
C775   C777    1.435   .     S
C775   O796    1.294   .     A
C776   C861    1.337   1_455 S
C776   H867    1.087   1_455 S
C777   C818    1.337   .     S
C777   H826    1.087   .     S
C778   C1032   1.395   1_545 S
C779   C888    1.395   .     S
C780   C904    1.395   .     S
Cu781  O798    1.957   .     S
Cu781  O794    1.988   .     S
Cu781  O791    1.982   .     S
Cu781  N785    2.034   .     S
Cu781  Cu782   2.707   .     S
Cu781  O795    1.954   .     S
Cu782  O793    1.988   .     S
Cu782  O796    1.954   .     S
Cu782  O792    1.982   .     S
Cu782  N786    2.034   .     S
Cu782  O797    1.957   .     S
H783   C818    1.087   .     S
H784   C861    1.087   1_455 S
Br799  C807    1.929   .     S
Br800  C808    1.929   .     S
Br801  C809    1.928   .     S
Br802  C810    1.928   .     S
C803   C806    1.477   .     S
C803   O835    1.304   .     A
C803   O833    1.307   .     A
C804   C815    1.454   .     S
C804   C806    1.412   .     A
C804   C1073   1.395   1_545 S
C805   C821    1.415   .     A
C805   C822    1.412   .     A
C805   C814    1.477   .     S
C806   C820    1.415   .     A
C807   N828    1.376   .     A
C808   N827    1.376   .     A
C808   C54     1.424   1_556 S
C809   N827    1.376   .     A
C809   C51     1.424   1_556 S
C810   N828    1.376   .     A
C811   C820    1.450   .     S
C811   N829    1.156   .     T
C812   C821    1.450   .     S
C812   N830    1.156   .     T
C813   C822    1.454   .     S
C813   N831    1.157   .     T
C814   O834    1.307   .     A
C814   O836    1.304   .     A
C815   N832    1.157   .     T
C816   O837    1.294   .     A
C816   C818    1.435   .     S
C816   O839    1.298   .     A
C817   O840    1.298   .     A
C817   C819    1.435   .     S
C817   O838    1.294   .     A
C819   C860    1.337   .     S
C819   H868    1.087   .     S
C820   C1074   1.395   1_545 S
C821   C930    1.395   .     S
C822   C946    1.395   .     S
Cu823  O840    1.957   .     S
Cu823  O836    1.988   .     S
Cu823  O833    1.982   .     S
Cu823  N827    2.034   .     S
Cu823  Cu824   2.707   .     S
Cu823  O837    1.954   .     S
Cu824  O835    1.988   .     S
Cu824  O838    1.954   .     S
Cu824  O834    1.982   .     S
Cu824  N828    2.034   .     S
Cu824  O839    1.957   .     S
H825   C860    1.087   .     S
Br841  C849    1.929   .     S
Br842  C850    1.929   .     S
Br843  C851    1.928   .     S
Br844  C852    1.928   .     S
C845   C848    1.477   .     S
C845   O877    1.304   .     A
C845   O875    1.307   .     A
C846   C857    1.454   .     S
C846   C848    1.412   .     A
C846   C1115   1.395   1_545 S
C847   C863    1.415   .     A
C847   C864    1.412   .     A
C847   C856    1.477   .     S
C848   C862    1.415   .     A
C849   N870    1.376   .     A
C850   N869    1.376   .     A
C850   C96     1.424   1_556 S
C851   N869    1.376   .     A
C851   C93     1.424   1_556 S
C852   N870    1.376   .     A
C853   C862    1.450   .     S
C853   N871    1.156   .     T
C854   C863    1.450   .     S
C854   N872    1.156   .     T
C855   C864    1.454   .     S
C855   N873    1.157   .     T
C856   O876    1.307   .     A
C856   O878    1.304   .     A
C857   N874    1.157   .     T
C858   O879    1.294   .     A
C858   C860    1.435   .     S
C858   O881    1.298   .     A
C859   O882    1.298   .     A
C859   C861    1.435   .     S
C859   O880    1.294   .     A
C861   C776    1.337   1_655 S
C861   H784    1.087   1_655 S
C862   C1116   1.395   1_545 S
C863   C972    1.395   .     S
C864   C988    1.395   .     S
Cu865  O882    1.957   .     S
Cu865  O878    1.988   .     S
Cu865  O875    1.982   .     S
Cu865  N869    2.034   .     S
Cu865  Cu866   2.707   .     S
Cu865  O879    1.954   .     S
Cu866  O877    1.988   .     S
Cu866  O880    1.954   .     S
Cu866  O876    1.982   .     S
Cu866  N870    2.034   .     S
Cu866  O881    1.957   .     S
H867   C776    1.087   1_655 S
Br883  C891    1.929   .     S
Br884  C892    1.929   .     S
Br885  C893    1.928   .     S
Br886  C894    1.928   .     S
C887   C890    1.477   .     S
C887   O919    1.304   .     A
C887   O917    1.307   .     A
C888   C899    1.454   .     S
C888   C890    1.412   .     A
C889   C905    1.415   .     A
C889   C906    1.412   .     A
C889   C898    1.477   .     S
C890   C904    1.415   .     A
C891   N912    1.376   .     A
C892   N911    1.376   .     A
C892   C138    1.424   1_556 S
C893   N911    1.376   .     A
C893   C135    1.424   1_556 S
C894   N912    1.376   .     A
C895   C904    1.450   .     S
C895   N913    1.156   .     T
C896   C905    1.450   .     S
C896   N914    1.156   .     T
C897   C906    1.454   .     S
C897   N915    1.157   .     T
C898   O918    1.307   .     A
C898   O920    1.304   .     A
C899   N916    1.157   .     T
C900   O921    1.294   .     A
C900   C902    1.435   .     S
C900   O923    1.298   .     A
C901   O924    1.298   .     A
C901   C903    1.435   .     S
C901   O922    1.294   .     A
C902   C987    1.337   1_455 S
C902   H993    1.087   1_455 S
C903   C944    1.337   .     S
C903   H952    1.087   .     S
C905   C1014   1.395   .     S
C906   C1030   1.395   .     S
Cu907  O924    1.957   .     S
Cu907  O920    1.988   .     S
Cu907  O917    1.982   .     S
Cu907  N911    2.034   .     S
Cu907  Cu908   2.707   .     S
Cu907  O921    1.954   .     S
Cu908  O919    1.988   .     S
Cu908  O922    1.954   .     S
Cu908  O918    1.982   .     S
Cu908  N912    2.034   .     S
Cu908  O923    1.957   .     S
H909   C944    1.087   .     S
H910   C987    1.087   1_455 S
Br925  C933    1.929   .     S
Br926  C934    1.929   .     S
Br927  C935    1.928   .     S
Br928  C936    1.928   .     S
C929   C932    1.477   .     S
C929   O961    1.304   .     A
C929   O959    1.307   .     A
C930   C941    1.454   .     S
C930   C932    1.412   .     A
C931   C947    1.415   .     A
C931   C948    1.412   .     A
C931   C940    1.477   .     S
C932   C946    1.415   .     A
C933   N954    1.376   .     A
C934   N953    1.376   .     A
C934   C180    1.424   1_556 S
C935   N953    1.376   .     A
C935   C177    1.424   1_556 S
C936   N954    1.376   .     A
C937   C946    1.450   .     S
C937   N955    1.156   .     T
C938   C947    1.450   .     S
C938   N956    1.156   .     T
C939   C948    1.454   .     S
C939   N957    1.157   .     T
C940   O960    1.307   .     A
C940   O962    1.304   .     A
C941   N958    1.157   .     T
C942   O963    1.294   .     A
C942   C944    1.435   .     S
C942   O965    1.298   .     A
C943   O966    1.298   .     A
C943   C945    1.435   .     S
C943   O964    1.294   .     A
C945   C986    1.337   .     S
C945   H994    1.087   .     S
C947   C1056   1.395   .     S
C948   C1072   1.395   .     S
Cu949  O966    1.957   .     S
Cu949  O962    1.988   .     S
Cu949  O959    1.982   .     S
Cu949  N953    2.034   .     S
Cu949  Cu950   2.707   .     S
Cu949  O963    1.954   .     S
Cu950  O961    1.988   .     S
Cu950  O964    1.954   .     S
Cu950  O960    1.982   .     S
Cu950  N954    2.034   .     S
Cu950  O965    1.957   .     S
H951   C986    1.087   .     S
Br967  C975    1.929   .     S
Br968  C976    1.929   .     S
Br969  C977    1.928   .     S
Br970  C978    1.928   .     S
C971   C974    1.477   .     S
C971   O1003   1.304   .     A
C971   O1001   1.307   .     A
C972   C983    1.454   .     S
C972   C974    1.412   .     A
C973   C989    1.415   .     A
C973   C990    1.412   .     A
C973   C982    1.477   .     S
C974   C988    1.415   .     A
C975   N996    1.376   .     A
C976   N995    1.376   .     A
C976   C222    1.424   1_556 S
C977   N995    1.376   .     A
C977   C219    1.424   1_556 S
C978   N996    1.376   .     A
C979   C988    1.450   .     S
C979   N997    1.156   .     T
C980   C989    1.450   .     S
C980   N998    1.156   .     T
C981   C990    1.454   .     S
C981   N999    1.157   .     T
C982   O1002   1.307   .     A
C982   O1004   1.304   .     A
C983   N1000   1.157   .     T
C984   O1005   1.294   .     A
C984   C986    1.435   .     S
C984   O1007   1.298   .     A
C985   O1008   1.298   .     A
C985   C987    1.435   .     S
C985   O1006   1.294   .     A
C987   C902    1.337   1_655 S
C987   H910    1.087   1_655 S
C989   C1098   1.395   .     S
C990   C1114   1.395   .     S
Cu991  O1008   1.957   .     S
Cu991  O1004   1.988   .     S
Cu991  O1001   1.982   .     S
Cu991  N995    2.034   .     S
Cu991  Cu992   2.707   .     S
Cu991  O1005   1.954   .     S
Cu992  O1003   1.988   .     S
Cu992  O1006   1.954   .     S
Cu992  O1002   1.982   .     S
Cu992  N996    2.034   .     S
Cu992  O1007   1.957   .     S
H993   C902    1.087   1_655 S
Br1009 C1017   1.929   .     S
Br1010 C1018   1.929   .     S
Br1011 C1019   1.928   .     S
Br1012 C1020   1.928   .     S
C1013  C1016   1.477   .     S
C1013  O1045   1.304   .     A
C1013  O1043   1.307   .     A
C1014  C1025   1.454   .     S
C1014  C1016   1.412   .     A
C1015  C1031   1.415   .     A
C1015  C1032   1.412   .     A
C1015  C1024   1.477   .     S
C1016  C1030   1.415   .     A
C1017  N1038   1.376   .     A
C1018  N1037   1.376   .     A
C1018  C264    1.424   1_556 S
C1019  N1037   1.376   .     A
C1019  C261    1.424   1_556 S
C1020  N1038   1.376   .     A
C1021  C1030   1.450   .     S
C1021  N1039   1.156   .     T
C1022  C1031   1.450   .     S
C1022  N1040   1.156   .     T
C1023  C1032   1.454   .     S
C1023  N1041   1.157   .     T
C1024  O1044   1.307   .     A
C1024  O1046   1.304   .     A
C1025  N1042   1.157   .     T
C1026  O1047   1.294   .     A
C1026  C1028   1.435   .     S
C1026  O1049   1.298   .     A
C1027  O1050   1.298   .     A
C1027  C1029   1.435   .     S
C1027  O1048   1.294   .     A
C1028  C1113   1.337   1_455 S
C1028  H1119   1.087   1_455 S
C1029  C1070   1.337   .     S
C1029  H1078   1.087   .     S
C1031  C762    1.395   1_565 S
C1032  C778    1.395   1_565 S
Cu1033 O1050   1.957   .     S
Cu1033 O1046   1.988   .     S
Cu1033 O1043   1.982   .     S
Cu1033 N1037   2.034   .     S
Cu1033 Cu1034  2.707   .     S
Cu1033 O1047   1.954   .     S
Cu1034 O1045   1.988   .     S
Cu1034 O1048   1.954   .     S
Cu1034 O1044   1.982   .     S
Cu1034 N1038   2.034   .     S
Cu1034 O1049   1.957   .     S
H1035  C1070   1.087   .     S
H1036  C1113   1.087   1_455 S
Br1051 C1059   1.929   .     S
Br1052 C1060   1.929   .     S
Br1053 C1061   1.928   .     S
Br1054 C1062   1.928   .     S
C1055  C1058   1.477   .     S
C1055  O1087   1.304   .     A
C1055  O1085   1.307   .     A
C1056  C1067   1.454   .     S
C1056  C1058   1.412   .     A
C1057  C1073   1.415   .     A
C1057  C1074   1.412   .     A
C1057  C1066   1.477   .     S
C1058  C1072   1.415   .     A
C1059  N1080   1.376   .     A
C1060  N1079   1.376   .     A
C1060  C306    1.424   1_556 S
C1061  N1079   1.376   .     A
C1061  C303    1.424   1_556 S
C1062  N1080   1.376   .     A
C1063  C1072   1.450   .     S
C1063  N1081   1.156   .     T
C1064  C1073   1.450   .     S
C1064  N1082   1.156   .     T
C1065  C1074   1.454   .     S
C1065  N1083   1.157   .     T
C1066  O1086   1.307   .     A
C1066  O1088   1.304   .     A
C1067  N1084   1.157   .     T
C1068  O1089   1.294   .     A
C1068  C1070   1.435   .     S
C1068  O1091   1.298   .     A
C1069  O1092   1.298   .     A
C1069  C1071   1.435   .     S
C1069  O1090   1.294   .     A
C1071  C1112   1.337   .     S
C1071  H1120   1.087   .     S
C1073  C804    1.395   1_565 S
C1074  C820    1.395   1_565 S
Cu1075 O1092   1.957   .     S
Cu1075 O1088   1.988   .     S
Cu1075 O1085   1.982   .     S
Cu1075 N1079   2.034   .     S
Cu1075 Cu1076  2.707   .     S
Cu1075 O1089   1.954   .     S
Cu1076 O1087   1.988   .     S
Cu1076 O1090   1.954   .     S
Cu1076 O1086   1.982   .     S
Cu1076 N1080   2.034   .     S
Cu1076 O1091   1.957   .     S
H1077  C1112   1.087   .     S
Br1093 C1101   1.929   .     S
Br1094 C1102   1.929   .     S
Br1095 C1103   1.928   .     S
Br1096 C1104   1.928   .     S
C1097  C1100   1.477   .     S
C1097  O1129   1.304   .     A
C1097  O1127   1.307   .     A
C1098  C1109   1.454   .     S
C1098  C1100   1.412   .     A
C1099  C1115   1.415   .     A
C1099  C1116   1.412   .     A
C1099  C1108   1.477   .     S
C1100  C1114   1.415   .     A
C1101  N1122   1.376   .     A
C1102  N1121   1.376   .     A
C1102  C348    1.424   1_556 S
C1103  N1121   1.376   .     A
C1103  C345    1.424   1_556 S
C1104  N1122   1.376   .     A
C1105  C1114   1.450   .     S
C1105  N1123   1.156   .     T
C1106  C1115   1.450   .     S
C1106  N1124   1.156   .     T
C1107  C1116   1.454   .     S
C1107  N1125   1.157   .     T
C1108  O1128   1.307   .     A
C1108  O1130   1.304   .     A
C1109  N1126   1.157   .     T
C1110  O1131   1.294   .     A
C1110  C1112   1.435   .     S
C1110  O1133   1.298   .     A
C1111  O1134   1.298   .     A
C1111  C1113   1.435   .     S
C1111  O1132   1.294   .     A
C1113  C1028   1.337   1_655 S
C1113  H1036   1.087   1_655 S
C1115  C846    1.395   1_565 S
C1116  C862    1.395   1_565 S
Cu1117 O1134   1.957   .     S
Cu1117 O1130   1.988   .     S
Cu1117 O1127   1.982   .     S
Cu1117 N1121   2.034   .     S
Cu1117 Cu1118  2.707   .     S
Cu1117 O1131   1.954   .     S
Cu1118 O1129   1.988   .     S
Cu1118 O1132   1.954   .     S
Cu1118 O1128   1.982   .     S
Cu1118 N1122   2.034   .     S
Cu1118 O1133   1.957   .     S
H1119  C1028   1.087   1_655 S
