data_str_m3_o2_o5_pcu_sym.28
_audit_creation_date              2020-01-03
_audit_creation_method            'Materials Studio'
_symmetry_space_group_name_H-M    'P1'
_symmetry_Int_Tables_number       1
_symmetry_cell_setting            triclinic
loop_
_symmetry_equiv_pos_as_xyz
  x,y,z
_cell_length_a                    29.9254
_cell_length_b                    28.5018
_cell_length_c                    26.7452
_cell_angle_alpha                 90.0193
_cell_angle_beta                  93.6413
_cell_angle_gamma                 89.9991
loop_
_atom_site_label
_atom_site_type_symbol
_atom_site_fract_x
_atom_site_fract_y
_atom_site_fract_z
_atom_site_U_iso_or_equiv
_atom_site_adp_type
_atom_site_occupancy
O1     O     0.18453   0.28974   0.16667   0.00000  Uiso   1.00
O2     O     0.31547   0.21026   0.16666   0.00000  Uiso   1.00
O3     O     0.31547   0.28974   0.16666   0.00000  Uiso   1.00
O4     O     0.18453   0.21026   0.16667   0.00000  Uiso   1.00
C5     C     0.16370   0.24981   0.16771   0.00000  Uiso   1.00
C6     C     0.33606   0.24978   0.16357   0.00000  Uiso   1.00
O7     O     0.25000   0.28973   0.09511   0.00000  Uiso   1.00
O8     O     0.25000   0.21027   0.23822   0.00000  Uiso   1.00
O9     O     0.25000   0.28973   0.23822   0.00000  Uiso   1.00
O10    O     0.25000   0.21027   0.09511   0.00000  Uiso   1.00
C11    C     0.22466   0.05307   0.12901   0.00000  Uiso   1.00
C12    C     0.28904   0.44698   0.17941   0.00000  Uiso   1.00
C13    C     0.27366   0.05281   0.20500   0.00000  Uiso   1.00
C14    C     0.21041   0.44628   0.15285   0.00000  Uiso   1.00
C15    C     0.24973   0.25000   0.07288   0.00000  Uiso   1.00
C16    C     0.25030   0.25001   0.26045   0.00000  Uiso   1.00
Zn17   Zn    0.25000   0.30307   0.16667   0.00000  Uiso   1.00
Zn18   Zn    0.25000   0.19693   0.16667   0.00000  Uiso   1.00
N19    N     0.25000   0.12623   0.16667   0.00000  Uiso   1.00
N20    N     0.25000   0.37376   0.16667   0.00000  Uiso   1.00
C21    C     0.24892   0.02695   0.16707   0.00000  Uiso   1.00
C22    C     0.24936   0.47325   0.16662   0.00000  Uiso   1.00
C23    C     0.24994   0.25000   0.02179   0.00000  Uiso   1.00
C24    C     0.25015   0.25001   0.31155   0.00000  Uiso   1.00
C25    C     0.04566   0.26935   0.12005   0.00000  Uiso   1.00
C26    C     0.44752   0.20544   0.12515   0.00000  Uiso   1.00
C27    C     0.45793   0.27979   0.16989   0.00000  Uiso   1.00
C28    C     0.04663   0.20653   0.18234   0.00000  Uiso   1.00
C29    C     0.09027   0.27940   0.13416   0.00000  Uiso   1.00
C30    C     0.40089   0.20836   0.12987   0.00000  Uiso   1.00
C31    C     0.41187   0.28540   0.16981   0.00000  Uiso   1.00
C32    C     0.09364   0.21056   0.18939   0.00000  Uiso   1.00
C33    C     0.11500   0.24790   0.16539   0.00000  Uiso   1.00
C34    C     0.38364   0.24803   0.15449   0.00000  Uiso   1.00
C35    C     0.02354   0.23581   0.14733   0.00000  Uiso   1.00
C36    C     0.47539   0.23971   0.14789   0.00000  Uiso   1.00
C37    C     0.22499   0.10285   0.13023   0.00000  Uiso   1.00
C38    C     0.28560   0.39810   0.18764   0.00000  Uiso   1.00
C39    C     0.27430   0.10259   0.20349   0.00000  Uiso   1.00
C40    C     0.21486   0.39766   0.14442   0.00000  Uiso   1.00
O41    O     0.20368   0.12839   0.09164   0.00000  Uiso   1.00
C42    C     0.15695   0.12837   0.09635   0.00000  Uiso   1.00
H43    H     0.14880   0.13834   0.13463   0.00000  Uiso   1.00
H44    H     0.14202   0.09348   0.08767   0.00000  Uiso   1.00
C45    C     0.13513   0.16370   0.05976   0.00000  Uiso   1.00
H46    H     0.14091   0.15326   0.02068   0.00000  Uiso   1.00
H47    H     0.09850   0.16507   0.06428   0.00000  Uiso   1.00
H48    H     0.14945   0.19919   0.06695   0.00000  Uiso   1.00
O49    O     0.31968   0.37413   0.21342   0.00000  Uiso   1.00
C50    C     0.31619   0.38172   0.26519   0.00000  Uiso   1.00
H51    H     0.28190   0.37342   0.27678   0.00000  Uiso   1.00
H52    H     0.32443   0.41876   0.27515   0.00000  Uiso   1.00
C53    C     0.34918   0.34993   0.29456   0.00000  Uiso   1.00
H54    H     0.38396   0.35854   0.28554   0.00000  Uiso   1.00
H55    H     0.34605   0.35493   0.00204   0.00000  Uiso   1.00
H56    H     0.34213   0.31263   0.28491   0.00000  Uiso   1.00
O57    O     0.29519   0.12790   0.24252   0.00000  Uiso   1.00
C58    C     0.34201   0.12780   0.23865   0.00000  Uiso   1.00
H59    H     0.35080   0.13921   0.20112   0.00000  Uiso   1.00
H60    H     0.35667   0.09256   0.24612   0.00000  Uiso   1.00
C61    C     0.36347   0.16183   0.27689   0.00000  Uiso   1.00
H62    H     0.35630   0.15071   0.31537   0.00000  Uiso   1.00
H63    H     0.40030   0.16247   0.27375   0.00000  Uiso   1.00
H64    H     0.35006   0.19776   0.27005   0.00000  Uiso   1.00
O65    O     0.18445   0.37423   0.11282   0.00000  Uiso   1.00
C66    C     0.19507   0.38372   0.06303   0.00000  Uiso   1.00
H67    H     0.23036   0.37384   0.05685   0.00000  Uiso   1.00
H68    H     0.19020   0.42156   0.05400   0.00000  Uiso   1.00
C69    C     0.16449   0.35556   0.02674   0.00000  Uiso   1.00
H70    H     0.12946   0.36779   0.02873   0.00000  Uiso   1.00
H71    H     0.17470   0.36066   0.32123   0.00000  Uiso   1.00
H72    H     0.16657   0.31764   0.03613   0.00000  Uiso   1.00
O73    O     0.02103   0.29728   0.08588   0.00000  Uiso   1.00
C74    C     0.03850   0.29398   0.03818   0.00000  Uiso   1.00
H75    H     0.01057   0.29916   0.00952   0.00000  Uiso   1.00
H76    H     0.05390   0.25921   0.03063   0.00000  Uiso   1.00
H77    H     0.06313   0.32237   0.03335   0.00000  Uiso   1.00
O78    O     0.46624   0.16879   0.09978   0.00000  Uiso   1.00
C79    C     0.46556   0.18032   0.04849   0.00000  Uiso   1.00
H80    H     0.48850   0.20996   0.04204   0.00000  Uiso   1.00
H81    H     0.43120   0.18875   0.03267   0.00000  Uiso   1.00
H82    H     0.47746   0.14948   0.02786   0.00000  Uiso   1.00
O83    O     0.48570   0.31664   0.18534   0.00000  Uiso   1.00
C84    C     0.49414   0.31481   0.23770   0.00000  Uiso   1.00
H85    H     0.02084   0.28881   0.24752   0.00000  Uiso   1.00
H86    H     0.46361   0.30713   0.25808   0.00000  Uiso   1.00
H87    H     0.00684   0.34956   0.25074   0.00000  Uiso   1.00
O88    O     0.02333   0.17262   0.20715   0.00000  Uiso   1.00
C89    C     0.01382   0.18930   0.25495   0.00000  Uiso   1.00
H90    H     0.48494   0.21378   0.25205   0.00000  Uiso   1.00
H91    H     0.04329   0.20602   0.27537   0.00000  Uiso   1.00
H92    H     0.00394   0.15897   0.27767   0.00000  Uiso   1.00
O93    O     0.10935   0.32007   0.11738   0.00000  Uiso   1.00
C94    C     0.09437   0.35797   0.14616   0.00000  Uiso   1.00
H95    H     0.05729   0.35949   0.14692   0.00000  Uiso   1.00
H96    H     0.10451   0.39137   0.12899   0.00000  Uiso   1.00
H97    H     0.10989   0.35644   0.18504   0.00000  Uiso   1.00
O98    O     0.37077   0.17786   0.10451   0.00000  Uiso   1.00
C99    C     0.38239   0.13005   0.11099   0.00000  Uiso   1.00
H100   H     0.40470   0.12292   0.14509   0.00000  Uiso   1.00
H101   H     0.39800   0.11681   0.07721   0.00000  Uiso   1.00
H102   H     0.35119   0.10955   0.11442   0.00000  Uiso   1.00
O103   O     0.39498   0.32708   0.18679   0.00000  Uiso   1.00
C104   C     0.39514   0.36031   0.14760   0.00000  Uiso   1.00
H105   H     0.42772   0.36233   0.12979   0.00000  Uiso   1.00
H106   H     0.38930   0.39538   0.16357   0.00000  Uiso   1.00
H107   H     0.36773   0.35282   0.11865   0.00000  Uiso   1.00
O108   O     0.11887   0.18426   0.22500   0.00000  Uiso   1.00
C109   C     0.10928   0.13569   0.22247   0.00000  Uiso   1.00
H110   H     0.09247   0.12405   0.18622   0.00000  Uiso   1.00
H111   H     0.08857   0.12571   0.25375   0.00000  Uiso   1.00
H112   H     0.14127   0.11606   0.22764   0.00000  Uiso   1.00
O113   O     0.19641   0.03053   0.09388   0.00000  Uiso   1.00
C114   C     0.21457   0.02976   0.04671   0.00000  Uiso   1.00
H115   H     0.23651   0.49848   0.04466   0.00000  Uiso   1.00
H116   H     0.23395   0.06199   0.03892   0.00000  Uiso   1.00
C117   C     0.17623   0.02543   0.00664   0.00000  Uiso   1.00
H118   H     0.15400   0.05653   0.00762   0.00000  Uiso   1.00
H119   H     0.18929   0.02336   0.30224   0.00000  Uiso   1.00
H120   H     0.15632   0.49336   0.01304   0.00000  Uiso   1.00
O121   O     0.33099   0.46743   0.18533   0.00000  Uiso   1.00
C122   C     0.34451   0.48204   0.13809   0.00000  Uiso   1.00
H123   H     0.32164   0.00908   0.12096   0.00000  Uiso   1.00
H124   H     0.34582   0.45176   0.11188   0.00000  Uiso   1.00
C125   C     0.39088   0.00384   0.14472   0.00000  Uiso   1.00
H126   H     0.41539   0.47771   0.16054   0.00000  Uiso   1.00
H127   H     0.40165   0.01598   0.10791   0.00000  Uiso   1.00
H128   H     0.39020   0.03434   0.17053   0.00000  Uiso   1.00
O129   O     0.30182   0.02987   0.23993   0.00000  Uiso   1.00
C130   C     0.28378   0.02912   0.28716   0.00000  Uiso   1.00
H131   H     0.26198   0.49775   0.28933   0.00000  Uiso   1.00
H132   H     0.26433   0.06131   0.29497   0.00000  Uiso   1.00
C133   C     0.32220   0.02500   0.32717   0.00000  Uiso   1.00
H134   H     0.34429   0.05621   0.32620   0.00000  Uiso   1.00
H135   H     0.30919   0.02284   0.03158   0.00000  Uiso   1.00
H136   H     0.34225   0.49304   0.32074   0.00000  Uiso   1.00
O137   O     0.16836   0.46602   0.14542   0.00000  Uiso   1.00
C138   C     0.15168   0.47567   0.19253   0.00000  Uiso   1.00
H139   H     0.17455   0.49918   0.21542   0.00000  Uiso   1.00
H140   H     0.14674   0.44250   0.21351   0.00000  Uiso   1.00
C141   C     0.10679   0.00043   0.18468   0.00000  Uiso   1.00
H142   H     0.08252   0.47756   0.16304   0.00000  Uiso   1.00
H143   H     0.09348   0.00862   0.22151   0.00000  Uiso   1.00
H144   H     0.11091   0.03368   0.16381   0.00000  Uiso   1.00
O145   O     0.68453   0.28974   0.16667   0.00000  Uiso   1.00
O146   O     0.81547   0.21026   0.16666   0.00000  Uiso   1.00
O147   O     0.81547   0.28974   0.16666   0.00000  Uiso   1.00
O148   O     0.68453   0.21026   0.16667   0.00000  Uiso   1.00
C149   C     0.66370   0.24981   0.16771   0.00000  Uiso   1.00
C150   C     0.83606   0.24978   0.16357   0.00000  Uiso   1.00
O151   O     0.75000   0.28973   0.09511   0.00000  Uiso   1.00
O152   O     0.75000   0.21027   0.23822   0.00000  Uiso   1.00
O153   O     0.75000   0.28973   0.23822   0.00000  Uiso   1.00
O154   O     0.75000   0.21027   0.09511   0.00000  Uiso   1.00
C155   C     0.72466   0.05307   0.12901   0.00000  Uiso   1.00
C156   C     0.78904   0.44698   0.17941   0.00000  Uiso   1.00
C157   C     0.77366   0.05281   0.20500   0.00000  Uiso   1.00
C158   C     0.71041   0.44628   0.15285   0.00000  Uiso   1.00
C159   C     0.74973   0.25000   0.07288   0.00000  Uiso   1.00
C160   C     0.75030   0.25001   0.26045   0.00000  Uiso   1.00
Zn161  Zn    0.75000   0.30307   0.16667   0.00000  Uiso   1.00
Zn162  Zn    0.75000   0.19693   0.16667   0.00000  Uiso   1.00
N163   N     0.75000   0.12623   0.16667   0.00000  Uiso   1.00
N164   N     0.75000   0.37376   0.16667   0.00000  Uiso   1.00
C165   C     0.74892   0.02695   0.16707   0.00000  Uiso   1.00
C166   C     0.74936   0.47325   0.16662   0.00000  Uiso   1.00
C167   C     0.74994   0.25000   0.02179   0.00000  Uiso   1.00
C168   C     0.75015   0.25001   0.31155   0.00000  Uiso   1.00
C169   C     0.54566   0.26935   0.12005   0.00000  Uiso   1.00
C170   C     0.94752   0.20544   0.12515   0.00000  Uiso   1.00
C171   C     0.95793   0.27979   0.16989   0.00000  Uiso   1.00
C172   C     0.54663   0.20653   0.18234   0.00000  Uiso   1.00
C173   C     0.59027   0.27940   0.13416   0.00000  Uiso   1.00
C174   C     0.90089   0.20836   0.12987   0.00000  Uiso   1.00
C175   C     0.91187   0.28540   0.16981   0.00000  Uiso   1.00
C176   C     0.59364   0.21056   0.18939   0.00000  Uiso   1.00
C177   C     0.61500   0.24790   0.16539   0.00000  Uiso   1.00
C178   C     0.88364   0.24803   0.15449   0.00000  Uiso   1.00
C179   C     0.52354   0.23581   0.14733   0.00000  Uiso   1.00
C180   C     0.97539   0.23971   0.14789   0.00000  Uiso   1.00
C181   C     0.72499   0.10285   0.13023   0.00000  Uiso   1.00
C182   C     0.78560   0.39810   0.18764   0.00000  Uiso   1.00
C183   C     0.77430   0.10259   0.20349   0.00000  Uiso   1.00
C184   C     0.71486   0.39766   0.14442   0.00000  Uiso   1.00
O185   O     0.70368   0.12839   0.09164   0.00000  Uiso   1.00
C186   C     0.65695   0.12837   0.09635   0.00000  Uiso   1.00
H187   H     0.64880   0.13834   0.13463   0.00000  Uiso   1.00
H188   H     0.64202   0.09348   0.08767   0.00000  Uiso   1.00
C189   C     0.63513   0.16370   0.05976   0.00000  Uiso   1.00
H190   H     0.64091   0.15326   0.02068   0.00000  Uiso   1.00
H191   H     0.59850   0.16507   0.06428   0.00000  Uiso   1.00
H192   H     0.64945   0.19919   0.06695   0.00000  Uiso   1.00
O193   O     0.81968   0.37413   0.21342   0.00000  Uiso   1.00
C194   C     0.81619   0.38172   0.26519   0.00000  Uiso   1.00
H195   H     0.78190   0.37342   0.27678   0.00000  Uiso   1.00
H196   H     0.82443   0.41876   0.27515   0.00000  Uiso   1.00
C197   C     0.84918   0.34993   0.29456   0.00000  Uiso   1.00
H198   H     0.88396   0.35854   0.28554   0.00000  Uiso   1.00
H199   H     0.84605   0.35493   0.00204   0.00000  Uiso   1.00
H200   H     0.84213   0.31263   0.28491   0.00000  Uiso   1.00
O201   O     0.79519   0.12790   0.24252   0.00000  Uiso   1.00
C202   C     0.84201   0.12780   0.23865   0.00000  Uiso   1.00
H203   H     0.85080   0.13921   0.20112   0.00000  Uiso   1.00
H204   H     0.85667   0.09256   0.24612   0.00000  Uiso   1.00
C205   C     0.86347   0.16183   0.27689   0.00000  Uiso   1.00
H206   H     0.85630   0.15071   0.31537   0.00000  Uiso   1.00
H207   H     0.90030   0.16247   0.27375   0.00000  Uiso   1.00
H208   H     0.85006   0.19776   0.27005   0.00000  Uiso   1.00
O209   O     0.68445   0.37423   0.11282   0.00000  Uiso   1.00
C210   C     0.69507   0.38372   0.06303   0.00000  Uiso   1.00
H211   H     0.73036   0.37384   0.05685   0.00000  Uiso   1.00
H212   H     0.69020   0.42156   0.05400   0.00000  Uiso   1.00
C213   C     0.66449   0.35556   0.02674   0.00000  Uiso   1.00
H214   H     0.62946   0.36779   0.02873   0.00000  Uiso   1.00
H215   H     0.67470   0.36066   0.32123   0.00000  Uiso   1.00
H216   H     0.66657   0.31764   0.03613   0.00000  Uiso   1.00
O217   O     0.52103   0.29728   0.08588   0.00000  Uiso   1.00
C218   C     0.53850   0.29398   0.03818   0.00000  Uiso   1.00
H219   H     0.51057   0.29916   0.00952   0.00000  Uiso   1.00
H220   H     0.55390   0.25921   0.03063   0.00000  Uiso   1.00
H221   H     0.56313   0.32237   0.03335   0.00000  Uiso   1.00
O222   O     0.96624   0.16879   0.09978   0.00000  Uiso   1.00
C223   C     0.96556   0.18032   0.04849   0.00000  Uiso   1.00
H224   H     0.98850   0.20996   0.04204   0.00000  Uiso   1.00
H225   H     0.93120   0.18875   0.03267   0.00000  Uiso   1.00
H226   H     0.97746   0.14948   0.02786   0.00000  Uiso   1.00
O227   O     0.98570   0.31664   0.18534   0.00000  Uiso   1.00
C228   C     0.99414   0.31481   0.23770   0.00000  Uiso   1.00
H229   H     0.52084   0.28881   0.24752   0.00000  Uiso   1.00
H230   H     0.96361   0.30713   0.25808   0.00000  Uiso   1.00
H231   H     0.50684   0.34956   0.25074   0.00000  Uiso   1.00
O232   O     0.52333   0.17262   0.20715   0.00000  Uiso   1.00
C233   C     0.51382   0.18930   0.25495   0.00000  Uiso   1.00
H234   H     0.98494   0.21378   0.25205   0.00000  Uiso   1.00
H235   H     0.54329   0.20602   0.27537   0.00000  Uiso   1.00
H236   H     0.50394   0.15897   0.27767   0.00000  Uiso   1.00
O237   O     0.60935   0.32007   0.11738   0.00000  Uiso   1.00
C238   C     0.59437   0.35797   0.14616   0.00000  Uiso   1.00
H239   H     0.55729   0.35949   0.14692   0.00000  Uiso   1.00
H240   H     0.60451   0.39137   0.12899   0.00000  Uiso   1.00
H241   H     0.60989   0.35644   0.18504   0.00000  Uiso   1.00
O242   O     0.87077   0.17786   0.10451   0.00000  Uiso   1.00
C243   C     0.88239   0.13005   0.11099   0.00000  Uiso   1.00
H244   H     0.90470   0.12292   0.14509   0.00000  Uiso   1.00
H245   H     0.89800   0.11681   0.07721   0.00000  Uiso   1.00
H246   H     0.85119   0.10955   0.11442   0.00000  Uiso   1.00
O247   O     0.89498   0.32708   0.18679   0.00000  Uiso   1.00
C248   C     0.89514   0.36031   0.14760   0.00000  Uiso   1.00
H249   H     0.92772   0.36233   0.12979   0.00000  Uiso   1.00
H250   H     0.88930   0.39538   0.16357   0.00000  Uiso   1.00
H251   H     0.86773   0.35282   0.11865   0.00000  Uiso   1.00
O252   O     0.61887   0.18426   0.22500   0.00000  Uiso   1.00
C253   C     0.60928   0.13569   0.22247   0.00000  Uiso   1.00
H254   H     0.59247   0.12405   0.18622   0.00000  Uiso   1.00
H255   H     0.58857   0.12571   0.25375   0.00000  Uiso   1.00
H256   H     0.64127   0.11606   0.22764   0.00000  Uiso   1.00
O257   O     0.69641   0.03053   0.09388   0.00000  Uiso   1.00
C258   C     0.71457   0.02976   0.04671   0.00000  Uiso   1.00
H259   H     0.73651   0.49848   0.04466   0.00000  Uiso   1.00
H260   H     0.73395   0.06199   0.03892   0.00000  Uiso   1.00
C261   C     0.67623   0.02543   0.00664   0.00000  Uiso   1.00
H262   H     0.65400   0.05653   0.00762   0.00000  Uiso   1.00
H263   H     0.68929   0.02336   0.30224   0.00000  Uiso   1.00
H264   H     0.65632   0.49336   0.01304   0.00000  Uiso   1.00
O265   O     0.83099   0.46743   0.18533   0.00000  Uiso   1.00
C266   C     0.84451   0.48204   0.13809   0.00000  Uiso   1.00
H267   H     0.82164   0.00908   0.12096   0.00000  Uiso   1.00
H268   H     0.84582   0.45176   0.11188   0.00000  Uiso   1.00
C269   C     0.89088   0.00384   0.14472   0.00000  Uiso   1.00
H270   H     0.91539   0.47771   0.16054   0.00000  Uiso   1.00
H271   H     0.90165   0.01598   0.10791   0.00000  Uiso   1.00
H272   H     0.89020   0.03434   0.17053   0.00000  Uiso   1.00
O273   O     0.80182   0.02987   0.23993   0.00000  Uiso   1.00
C274   C     0.78378   0.02912   0.28716   0.00000  Uiso   1.00
H275   H     0.76198   0.49775   0.28933   0.00000  Uiso   1.00
H276   H     0.76433   0.06131   0.29497   0.00000  Uiso   1.00
C277   C     0.82220   0.02500   0.32717   0.00000  Uiso   1.00
H278   H     0.84429   0.05621   0.32620   0.00000  Uiso   1.00
H279   H     0.80919   0.02284   0.03158   0.00000  Uiso   1.00
H280   H     0.84225   0.49304   0.32074   0.00000  Uiso   1.00
O281   O     0.66836   0.46602   0.14542   0.00000  Uiso   1.00
C282   C     0.65168   0.47567   0.19253   0.00000  Uiso   1.00
H283   H     0.67455   0.49918   0.21542   0.00000  Uiso   1.00
H284   H     0.64674   0.44250   0.21351   0.00000  Uiso   1.00
C285   C     0.60679   0.00043   0.18468   0.00000  Uiso   1.00
H286   H     0.58252   0.47756   0.16304   0.00000  Uiso   1.00
H287   H     0.59348   0.00862   0.22151   0.00000  Uiso   1.00
H288   H     0.61091   0.03368   0.16381   0.00000  Uiso   1.00
O289   O     0.18453   0.78974   0.16667   0.00000  Uiso   1.00
O290   O     0.31547   0.71026   0.16666   0.00000  Uiso   1.00
O291   O     0.31547   0.78974   0.16666   0.00000  Uiso   1.00
O292   O     0.18453   0.71026   0.16667   0.00000  Uiso   1.00
C293   C     0.16370   0.74981   0.16771   0.00000  Uiso   1.00
C294   C     0.33606   0.74978   0.16357   0.00000  Uiso   1.00
O295   O     0.25000   0.78973   0.09511   0.00000  Uiso   1.00
O296   O     0.25000   0.71027   0.23822   0.00000  Uiso   1.00
O297   O     0.25000   0.78973   0.23822   0.00000  Uiso   1.00
O298   O     0.25000   0.71027   0.09511   0.00000  Uiso   1.00
C299   C     0.22466   0.55307   0.12901   0.00000  Uiso   1.00
C300   C     0.28904   0.94698   0.17941   0.00000  Uiso   1.00
C301   C     0.27366   0.55281   0.20500   0.00000  Uiso   1.00
C302   C     0.21041   0.94628   0.15285   0.00000  Uiso   1.00
C303   C     0.24973   0.75000   0.07288   0.00000  Uiso   1.00
C304   C     0.25030   0.75001   0.26045   0.00000  Uiso   1.00
Zn305  Zn    0.25000   0.80307   0.16667   0.00000  Uiso   1.00
Zn306  Zn    0.25000   0.69693   0.16667   0.00000  Uiso   1.00
N307   N     0.25000   0.62623   0.16667   0.00000  Uiso   1.00
N308   N     0.25000   0.87376   0.16667   0.00000  Uiso   1.00
C309   C     0.24892   0.52695   0.16707   0.00000  Uiso   1.00
C310   C     0.24936   0.97325   0.16662   0.00000  Uiso   1.00
C311   C     0.24994   0.75000   0.02179   0.00000  Uiso   1.00
C312   C     0.25015   0.75001   0.31155   0.00000  Uiso   1.00
C313   C     0.04566   0.76935   0.12005   0.00000  Uiso   1.00
C314   C     0.44752   0.70544   0.12515   0.00000  Uiso   1.00
C315   C     0.45793   0.77979   0.16989   0.00000  Uiso   1.00
C316   C     0.04663   0.70653   0.18234   0.00000  Uiso   1.00
C317   C     0.09027   0.77940   0.13416   0.00000  Uiso   1.00
C318   C     0.40089   0.70836   0.12987   0.00000  Uiso   1.00
C319   C     0.41187   0.78540   0.16981   0.00000  Uiso   1.00
C320   C     0.09364   0.71056   0.18939   0.00000  Uiso   1.00
C321   C     0.11500   0.74790   0.16539   0.00000  Uiso   1.00
C322   C     0.38364   0.74803   0.15449   0.00000  Uiso   1.00
C323   C     0.02354   0.73581   0.14733   0.00000  Uiso   1.00
C324   C     0.47539   0.73971   0.14789   0.00000  Uiso   1.00
C325   C     0.22499   0.60285   0.13023   0.00000  Uiso   1.00
C326   C     0.28560   0.89810   0.18764   0.00000  Uiso   1.00
C327   C     0.27430   0.60259   0.20349   0.00000  Uiso   1.00
C328   C     0.21486   0.89766   0.14442   0.00000  Uiso   1.00
O329   O     0.20368   0.62839   0.09164   0.00000  Uiso   1.00
C330   C     0.15695   0.62837   0.09635   0.00000  Uiso   1.00
H331   H     0.14880   0.63834   0.13463   0.00000  Uiso   1.00
H332   H     0.14202   0.59348   0.08767   0.00000  Uiso   1.00
C333   C     0.13513   0.66370   0.05976   0.00000  Uiso   1.00
H334   H     0.14091   0.65326   0.02068   0.00000  Uiso   1.00
H335   H     0.09850   0.66507   0.06428   0.00000  Uiso   1.00
H336   H     0.14945   0.69919   0.06695   0.00000  Uiso   1.00
O337   O     0.31968   0.87413   0.21342   0.00000  Uiso   1.00
C338   C     0.31619   0.88172   0.26519   0.00000  Uiso   1.00
H339   H     0.28190   0.87342   0.27678   0.00000  Uiso   1.00
H340   H     0.32443   0.91876   0.27515   0.00000  Uiso   1.00
C341   C     0.34918   0.84993   0.29456   0.00000  Uiso   1.00
H342   H     0.38396   0.85854   0.28554   0.00000  Uiso   1.00
H343   H     0.34605   0.85493   0.00204   0.00000  Uiso   1.00
H344   H     0.34213   0.81263   0.28491   0.00000  Uiso   1.00
O345   O     0.29519   0.62790   0.24252   0.00000  Uiso   1.00
C346   C     0.34201   0.62780   0.23865   0.00000  Uiso   1.00
H347   H     0.35080   0.63921   0.20112   0.00000  Uiso   1.00
H348   H     0.35667   0.59256   0.24612   0.00000  Uiso   1.00
C349   C     0.36347   0.66183   0.27689   0.00000  Uiso   1.00
H350   H     0.35630   0.65071   0.31537   0.00000  Uiso   1.00
H351   H     0.40030   0.66247   0.27375   0.00000  Uiso   1.00
H352   H     0.35006   0.69776   0.27005   0.00000  Uiso   1.00
O353   O     0.18445   0.87423   0.11282   0.00000  Uiso   1.00
C354   C     0.19507   0.88372   0.06303   0.00000  Uiso   1.00
H355   H     0.23036   0.87384   0.05685   0.00000  Uiso   1.00
H356   H     0.19020   0.92156   0.05400   0.00000  Uiso   1.00
C357   C     0.16449   0.85556   0.02674   0.00000  Uiso   1.00
H358   H     0.12946   0.86779   0.02873   0.00000  Uiso   1.00
H359   H     0.17470   0.86066   0.32123   0.00000  Uiso   1.00
H360   H     0.16657   0.81764   0.03613   0.00000  Uiso   1.00
O361   O     0.02103   0.79728   0.08588   0.00000  Uiso   1.00
C362   C     0.03850   0.79398   0.03818   0.00000  Uiso   1.00
H363   H     0.01057   0.79916   0.00952   0.00000  Uiso   1.00
H364   H     0.05390   0.75921   0.03063   0.00000  Uiso   1.00
H365   H     0.06313   0.82237   0.03335   0.00000  Uiso   1.00
O366   O     0.46624   0.66879   0.09978   0.00000  Uiso   1.00
C367   C     0.46556   0.68032   0.04849   0.00000  Uiso   1.00
H368   H     0.48850   0.70996   0.04204   0.00000  Uiso   1.00
H369   H     0.43120   0.68875   0.03267   0.00000  Uiso   1.00
H370   H     0.47746   0.64948   0.02786   0.00000  Uiso   1.00
O371   O     0.48570   0.81664   0.18534   0.00000  Uiso   1.00
C372   C     0.49414   0.81481   0.23770   0.00000  Uiso   1.00
H373   H     0.02084   0.78881   0.24752   0.00000  Uiso   1.00
H374   H     0.46361   0.80713   0.25808   0.00000  Uiso   1.00
H375   H     0.00684   0.84956   0.25074   0.00000  Uiso   1.00
O376   O     0.02333   0.67262   0.20715   0.00000  Uiso   1.00
C377   C     0.01382   0.68930   0.25495   0.00000  Uiso   1.00
H378   H     0.48494   0.71378   0.25205   0.00000  Uiso   1.00
H379   H     0.04329   0.70602   0.27537   0.00000  Uiso   1.00
H380   H     0.00394   0.65897   0.27767   0.00000  Uiso   1.00
O381   O     0.10935   0.82007   0.11738   0.00000  Uiso   1.00
C382   C     0.09437   0.85797   0.14616   0.00000  Uiso   1.00
H383   H     0.05729   0.85949   0.14692   0.00000  Uiso   1.00
H384   H     0.10451   0.89137   0.12899   0.00000  Uiso   1.00
H385   H     0.10989   0.85644   0.18504   0.00000  Uiso   1.00
O386   O     0.37077   0.67786   0.10451   0.00000  Uiso   1.00
C387   C     0.38239   0.63005   0.11099   0.00000  Uiso   1.00
H388   H     0.40470   0.62292   0.14509   0.00000  Uiso   1.00
H389   H     0.39800   0.61681   0.07721   0.00000  Uiso   1.00
H390   H     0.35119   0.60955   0.11442   0.00000  Uiso   1.00
O391   O     0.39498   0.82708   0.18679   0.00000  Uiso   1.00
C392   C     0.39514   0.86031   0.14760   0.00000  Uiso   1.00
H393   H     0.42772   0.86233   0.12979   0.00000  Uiso   1.00
H394   H     0.38930   0.89538   0.16357   0.00000  Uiso   1.00
H395   H     0.36773   0.85282   0.11865   0.00000  Uiso   1.00
O396   O     0.11887   0.68426   0.22500   0.00000  Uiso   1.00
C397   C     0.10928   0.63569   0.22247   0.00000  Uiso   1.00
H398   H     0.09247   0.62405   0.18622   0.00000  Uiso   1.00
H399   H     0.08857   0.62571   0.25375   0.00000  Uiso   1.00
H400   H     0.14127   0.61606   0.22764   0.00000  Uiso   1.00
O401   O     0.19641   0.53053   0.09388   0.00000  Uiso   1.00
C402   C     0.21457   0.52976   0.04671   0.00000  Uiso   1.00
H403   H     0.23651   0.99848   0.04466   0.00000  Uiso   1.00
H404   H     0.23395   0.56199   0.03892   0.00000  Uiso   1.00
C405   C     0.17623   0.52543   0.00664   0.00000  Uiso   1.00
H406   H     0.15400   0.55653   0.00762   0.00000  Uiso   1.00
H407   H     0.18929   0.52336   0.30224   0.00000  Uiso   1.00
H408   H     0.15632   0.99336   0.01304   0.00000  Uiso   1.00
O409   O     0.33099   0.96743   0.18533   0.00000  Uiso   1.00
C410   C     0.34451   0.98204   0.13809   0.00000  Uiso   1.00
H411   H     0.32164   0.50908   0.12096   0.00000  Uiso   1.00
H412   H     0.34582   0.95176   0.11188   0.00000  Uiso   1.00
C413   C     0.39088   0.50384   0.14472   0.00000  Uiso   1.00
H414   H     0.41539   0.97771   0.16054   0.00000  Uiso   1.00
H415   H     0.40165   0.51598   0.10791   0.00000  Uiso   1.00
H416   H     0.39020   0.53434   0.17053   0.00000  Uiso   1.00
O417   O     0.30182   0.52987   0.23993   0.00000  Uiso   1.00
C418   C     0.28378   0.52912   0.28716   0.00000  Uiso   1.00
H419   H     0.26198   0.99775   0.28933   0.00000  Uiso   1.00
H420   H     0.26433   0.56131   0.29497   0.00000  Uiso   1.00
C421   C     0.32220   0.52500   0.32717   0.00000  Uiso   1.00
H422   H     0.34429   0.55621   0.32620   0.00000  Uiso   1.00
H423   H     0.30919   0.52284   0.03158   0.00000  Uiso   1.00
H424   H     0.34225   0.99304   0.32074   0.00000  Uiso   1.00
O425   O     0.16836   0.96602   0.14542   0.00000  Uiso   1.00
C426   C     0.15168   0.97567   0.19253   0.00000  Uiso   1.00
H427   H     0.17455   0.99918   0.21542   0.00000  Uiso   1.00
H428   H     0.14674   0.94250   0.21351   0.00000  Uiso   1.00
C429   C     0.10679   0.50043   0.18468   0.00000  Uiso   1.00
H430   H     0.08252   0.97756   0.16304   0.00000  Uiso   1.00
H431   H     0.09348   0.50862   0.22151   0.00000  Uiso   1.00
H432   H     0.11091   0.53368   0.16381   0.00000  Uiso   1.00
O433   O     0.68453   0.78974   0.16667   0.00000  Uiso   1.00
O434   O     0.81547   0.71026   0.16666   0.00000  Uiso   1.00
O435   O     0.81547   0.78974   0.16666   0.00000  Uiso   1.00
O436   O     0.68453   0.71026   0.16667   0.00000  Uiso   1.00
C437   C     0.66370   0.74981   0.16771   0.00000  Uiso   1.00
C438   C     0.83606   0.74978   0.16357   0.00000  Uiso   1.00
O439   O     0.75000   0.78973   0.09511   0.00000  Uiso   1.00
O440   O     0.75000   0.71027   0.23822   0.00000  Uiso   1.00
O441   O     0.75000   0.78973   0.23822   0.00000  Uiso   1.00
O442   O     0.75000   0.71027   0.09511   0.00000  Uiso   1.00
C443   C     0.72466   0.55307   0.12901   0.00000  Uiso   1.00
C444   C     0.78904   0.94698   0.17941   0.00000  Uiso   1.00
C445   C     0.77366   0.55281   0.20500   0.00000  Uiso   1.00
C446   C     0.71041   0.94628   0.15285   0.00000  Uiso   1.00
C447   C     0.74973   0.75000   0.07288   0.00000  Uiso   1.00
C448   C     0.75030   0.75001   0.26045   0.00000  Uiso   1.00
Zn449  Zn    0.75000   0.80307   0.16667   0.00000  Uiso   1.00
Zn450  Zn    0.75000   0.69693   0.16667   0.00000  Uiso   1.00
N451   N     0.75000   0.62623   0.16667   0.00000  Uiso   1.00
N452   N     0.75000   0.87376   0.16667   0.00000  Uiso   1.00
C453   C     0.74892   0.52695   0.16707   0.00000  Uiso   1.00
C454   C     0.74936   0.97325   0.16662   0.00000  Uiso   1.00
C455   C     0.74994   0.75000   0.02179   0.00000  Uiso   1.00
C456   C     0.75015   0.75001   0.31155   0.00000  Uiso   1.00
C457   C     0.54566   0.76935   0.12005   0.00000  Uiso   1.00
C458   C     0.94752   0.70544   0.12515   0.00000  Uiso   1.00
C459   C     0.95793   0.77979   0.16989   0.00000  Uiso   1.00
C460   C     0.54663   0.70653   0.18234   0.00000  Uiso   1.00
C461   C     0.59027   0.77940   0.13416   0.00000  Uiso   1.00
C462   C     0.90089   0.70836   0.12987   0.00000  Uiso   1.00
C463   C     0.91187   0.78540   0.16981   0.00000  Uiso   1.00
C464   C     0.59364   0.71056   0.18939   0.00000  Uiso   1.00
C465   C     0.61500   0.74790   0.16539   0.00000  Uiso   1.00
C466   C     0.88364   0.74803   0.15449   0.00000  Uiso   1.00
C467   C     0.52354   0.73581   0.14733   0.00000  Uiso   1.00
C468   C     0.97539   0.73971   0.14789   0.00000  Uiso   1.00
C469   C     0.72499   0.60285   0.13023   0.00000  Uiso   1.00
C470   C     0.78560   0.89810   0.18764   0.00000  Uiso   1.00
C471   C     0.77430   0.60259   0.20349   0.00000  Uiso   1.00
C472   C     0.71486   0.89766   0.14442   0.00000  Uiso   1.00
O473   O     0.70368   0.62839   0.09164   0.00000  Uiso   1.00
C474   C     0.65695   0.62837   0.09635   0.00000  Uiso   1.00
H475   H     0.64880   0.63834   0.13463   0.00000  Uiso   1.00
H476   H     0.64202   0.59348   0.08767   0.00000  Uiso   1.00
C477   C     0.63513   0.66370   0.05976   0.00000  Uiso   1.00
H478   H     0.64091   0.65326   0.02068   0.00000  Uiso   1.00
H479   H     0.59850   0.66507   0.06428   0.00000  Uiso   1.00
H480   H     0.64945   0.69919   0.06695   0.00000  Uiso   1.00
O481   O     0.81968   0.87413   0.21342   0.00000  Uiso   1.00
C482   C     0.81619   0.88172   0.26519   0.00000  Uiso   1.00
H483   H     0.78190   0.87342   0.27678   0.00000  Uiso   1.00
H484   H     0.82443   0.91876   0.27515   0.00000  Uiso   1.00
C485   C     0.84918   0.84993   0.29456   0.00000  Uiso   1.00
H486   H     0.88396   0.85854   0.28554   0.00000  Uiso   1.00
H487   H     0.84605   0.85493   0.00204   0.00000  Uiso   1.00
H488   H     0.84213   0.81263   0.28491   0.00000  Uiso   1.00
O489   O     0.79519   0.62790   0.24252   0.00000  Uiso   1.00
C490   C     0.84201   0.62780   0.23865   0.00000  Uiso   1.00
H491   H     0.85080   0.63921   0.20112   0.00000  Uiso   1.00
H492   H     0.85667   0.59256   0.24612   0.00000  Uiso   1.00
C493   C     0.86347   0.66183   0.27689   0.00000  Uiso   1.00
H494   H     0.85630   0.65071   0.31537   0.00000  Uiso   1.00
H495   H     0.90030   0.66247   0.27375   0.00000  Uiso   1.00
H496   H     0.85006   0.69776   0.27005   0.00000  Uiso   1.00
O497   O     0.68445   0.87423   0.11282   0.00000  Uiso   1.00
C498   C     0.69507   0.88372   0.06303   0.00000  Uiso   1.00
H499   H     0.73036   0.87384   0.05685   0.00000  Uiso   1.00
H500   H     0.69020   0.92156   0.05400   0.00000  Uiso   1.00
C501   C     0.66449   0.85556   0.02674   0.00000  Uiso   1.00
H502   H     0.62946   0.86779   0.02873   0.00000  Uiso   1.00
H503   H     0.67470   0.86066   0.32123   0.00000  Uiso   1.00
H504   H     0.66657   0.81764   0.03613   0.00000  Uiso   1.00
O505   O     0.52103   0.79728   0.08588   0.00000  Uiso   1.00
C506   C     0.53850   0.79398   0.03818   0.00000  Uiso   1.00
H507   H     0.51057   0.79916   0.00952   0.00000  Uiso   1.00
H508   H     0.55390   0.75921   0.03063   0.00000  Uiso   1.00
H509   H     0.56313   0.82237   0.03335   0.00000  Uiso   1.00
O510   O     0.96624   0.66879   0.09978   0.00000  Uiso   1.00
C511   C     0.96556   0.68032   0.04849   0.00000  Uiso   1.00
H512   H     0.98850   0.70996   0.04204   0.00000  Uiso   1.00
H513   H     0.93120   0.68875   0.03267   0.00000  Uiso   1.00
H514   H     0.97746   0.64948   0.02786   0.00000  Uiso   1.00
O515   O     0.98570   0.81664   0.18534   0.00000  Uiso   1.00
C516   C     0.99414   0.81481   0.23770   0.00000  Uiso   1.00
H517   H     0.52084   0.78881   0.24752   0.00000  Uiso   1.00
H518   H     0.96361   0.80713   0.25808   0.00000  Uiso   1.00
H519   H     0.50684   0.84956   0.25074   0.00000  Uiso   1.00
O520   O     0.52333   0.67262   0.20715   0.00000  Uiso   1.00
C521   C     0.51382   0.68930   0.25495   0.00000  Uiso   1.00
H522   H     0.98494   0.71378   0.25205   0.00000  Uiso   1.00
H523   H     0.54329   0.70602   0.27537   0.00000  Uiso   1.00
H524   H     0.50394   0.65897   0.27767   0.00000  Uiso   1.00
O525   O     0.60935   0.82007   0.11738   0.00000  Uiso   1.00
C526   C     0.59437   0.85797   0.14616   0.00000  Uiso   1.00
H527   H     0.55729   0.85949   0.14692   0.00000  Uiso   1.00
H528   H     0.60451   0.89137   0.12899   0.00000  Uiso   1.00
H529   H     0.60989   0.85644   0.18504   0.00000  Uiso   1.00
O530   O     0.87077   0.67786   0.10451   0.00000  Uiso   1.00
C531   C     0.88239   0.63005   0.11099   0.00000  Uiso   1.00
H532   H     0.90470   0.62292   0.14509   0.00000  Uiso   1.00
H533   H     0.89800   0.61681   0.07721   0.00000  Uiso   1.00
H534   H     0.85119   0.60955   0.11442   0.00000  Uiso   1.00
O535   O     0.89498   0.82708   0.18679   0.00000  Uiso   1.00
C536   C     0.89514   0.86031   0.14760   0.00000  Uiso   1.00
H537   H     0.92772   0.86233   0.12979   0.00000  Uiso   1.00
H538   H     0.88930   0.89538   0.16357   0.00000  Uiso   1.00
H539   H     0.86773   0.85282   0.11865   0.00000  Uiso   1.00
O540   O     0.61887   0.68426   0.22500   0.00000  Uiso   1.00
C541   C     0.60928   0.63569   0.22247   0.00000  Uiso   1.00
H542   H     0.59247   0.62405   0.18622   0.00000  Uiso   1.00
H543   H     0.58857   0.62571   0.25375   0.00000  Uiso   1.00
H544   H     0.64127   0.61606   0.22764   0.00000  Uiso   1.00
O545   O     0.69641   0.53053   0.09388   0.00000  Uiso   1.00
C546   C     0.71457   0.52976   0.04671   0.00000  Uiso   1.00
H547   H     0.73651   0.99848   0.04466   0.00000  Uiso   1.00
H548   H     0.73395   0.56199   0.03892   0.00000  Uiso   1.00
C549   C     0.67623   0.52543   0.00664   0.00000  Uiso   1.00
H550   H     0.65400   0.55653   0.00762   0.00000  Uiso   1.00
H551   H     0.68929   0.52336   0.30224   0.00000  Uiso   1.00
H552   H     0.65632   0.99336   0.01304   0.00000  Uiso   1.00
O553   O     0.83099   0.96743   0.18533   0.00000  Uiso   1.00
C554   C     0.84451   0.98204   0.13809   0.00000  Uiso   1.00
H555   H     0.82164   0.50908   0.12096   0.00000  Uiso   1.00
H556   H     0.84582   0.95176   0.11188   0.00000  Uiso   1.00
C557   C     0.89088   0.50384   0.14472   0.00000  Uiso   1.00
H558   H     0.91539   0.97771   0.16054   0.00000  Uiso   1.00
H559   H     0.90165   0.51598   0.10791   0.00000  Uiso   1.00
H560   H     0.89020   0.53434   0.17053   0.00000  Uiso   1.00
O561   O     0.80182   0.52987   0.23993   0.00000  Uiso   1.00
C562   C     0.78378   0.52912   0.28716   0.00000  Uiso   1.00
H563   H     0.76198   0.99775   0.28933   0.00000  Uiso   1.00
H564   H     0.76433   0.56131   0.29497   0.00000  Uiso   1.00
C565   C     0.82220   0.52500   0.32717   0.00000  Uiso   1.00
H566   H     0.84429   0.55621   0.32620   0.00000  Uiso   1.00
H567   H     0.80919   0.52284   0.03158   0.00000  Uiso   1.00
H568   H     0.84225   0.99304   0.32074   0.00000  Uiso   1.00
O569   O     0.66836   0.96602   0.14542   0.00000  Uiso   1.00
C570   C     0.65168   0.97567   0.19253   0.00000  Uiso   1.00
H571   H     0.67455   0.99918   0.21542   0.00000  Uiso   1.00
H572   H     0.64674   0.94250   0.21351   0.00000  Uiso   1.00
C573   C     0.60679   0.50043   0.18468   0.00000  Uiso   1.00
H574   H     0.58252   0.97756   0.16304   0.00000  Uiso   1.00
H575   H     0.59348   0.50862   0.22151   0.00000  Uiso   1.00
H576   H     0.61091   0.53368   0.16381   0.00000  Uiso   1.00
O577   O     0.18453   0.28974   0.50000   0.00000  Uiso   1.00
O578   O     0.31547   0.21026   0.50000   0.00000  Uiso   1.00
O579   O     0.31547   0.28974   0.50000   0.00000  Uiso   1.00
O580   O     0.18453   0.21026   0.50000   0.00000  Uiso   1.00
C581   C     0.16370   0.24981   0.50104   0.00000  Uiso   1.00
C582   C     0.33606   0.24978   0.49690   0.00000  Uiso   1.00
O583   O     0.25000   0.28973   0.42845   0.00000  Uiso   1.00
O584   O     0.25000   0.21027   0.57155   0.00000  Uiso   1.00
O585   O     0.25000   0.28973   0.57155   0.00000  Uiso   1.00
O586   O     0.25000   0.21027   0.42845   0.00000  Uiso   1.00
C587   C     0.22466   0.05307   0.46234   0.00000  Uiso   1.00
C588   C     0.28904   0.44698   0.51274   0.00000  Uiso   1.00
C589   C     0.27366   0.05281   0.53833   0.00000  Uiso   1.00
C590   C     0.21041   0.44628   0.48618   0.00000  Uiso   1.00
C591   C     0.24973   0.25000   0.40621   0.00000  Uiso   1.00
C592   C     0.25030   0.25001   0.59379   0.00000  Uiso   1.00
Zn593  Zn    0.25000   0.30307   0.50000   0.00000  Uiso   1.00
Zn594  Zn    0.25000   0.19693   0.50000   0.00000  Uiso   1.00
N595   N     0.25000   0.12623   0.50000   0.00000  Uiso   1.00
N596   N     0.25000   0.37376   0.50000   0.00000  Uiso   1.00
C597   C     0.24892   0.02695   0.50041   0.00000  Uiso   1.00
C598   C     0.24936   0.47325   0.49995   0.00000  Uiso   1.00
C599   C     0.24994   0.25000   0.35512   0.00000  Uiso   1.00
C600   C     0.25015   0.25001   0.64488   0.00000  Uiso   1.00
C601   C     0.04566   0.26935   0.45338   0.00000  Uiso   1.00
C602   C     0.44752   0.20544   0.45848   0.00000  Uiso   1.00
C603   C     0.45793   0.27979   0.50322   0.00000  Uiso   1.00
C604   C     0.04663   0.20653   0.51567   0.00000  Uiso   1.00
C605   C     0.09027   0.27940   0.46749   0.00000  Uiso   1.00
C606   C     0.40089   0.20836   0.46320   0.00000  Uiso   1.00
C607   C     0.41187   0.28540   0.50314   0.00000  Uiso   1.00
C608   C     0.09364   0.21056   0.52272   0.00000  Uiso   1.00
C609   C     0.11500   0.24790   0.49873   0.00000  Uiso   1.00
C610   C     0.38364   0.24803   0.48782   0.00000  Uiso   1.00
C611   C     0.02354   0.23581   0.48067   0.00000  Uiso   1.00
C612   C     0.47539   0.23971   0.48122   0.00000  Uiso   1.00
C613   C     0.22499   0.10285   0.46356   0.00000  Uiso   1.00
C614   C     0.28560   0.39810   0.52097   0.00000  Uiso   1.00
C615   C     0.27430   0.10259   0.53682   0.00000  Uiso   1.00
C616   C     0.21486   0.39766   0.47776   0.00000  Uiso   1.00
O617   O     0.20368   0.12839   0.42497   0.00000  Uiso   1.00
C618   C     0.15695   0.12837   0.42969   0.00000  Uiso   1.00
H619   H     0.14880   0.13834   0.46796   0.00000  Uiso   1.00
H620   H     0.14202   0.09348   0.42101   0.00000  Uiso   1.00
C621   C     0.13513   0.16370   0.39309   0.00000  Uiso   1.00
H622   H     0.14091   0.15326   0.35401   0.00000  Uiso   1.00
H623   H     0.09850   0.16507   0.39761   0.00000  Uiso   1.00
H624   H     0.14945   0.19919   0.40028   0.00000  Uiso   1.00
O625   O     0.31968   0.37413   0.54675   0.00000  Uiso   1.00
C626   C     0.31619   0.38172   0.59853   0.00000  Uiso   1.00
H627   H     0.28190   0.37342   0.61011   0.00000  Uiso   1.00
H628   H     0.32443   0.41876   0.60849   0.00000  Uiso   1.00
C629   C     0.34918   0.34993   0.62789   0.00000  Uiso   1.00
H630   H     0.38396   0.35854   0.61888   0.00000  Uiso   1.00
H631   H     0.34605   0.35493   0.33537   0.00000  Uiso   1.00
H632   H     0.34213   0.31263   0.61824   0.00000  Uiso   1.00
O633   O     0.29519   0.12790   0.57586   0.00000  Uiso   1.00
C634   C     0.34201   0.12780   0.57199   0.00000  Uiso   1.00
H635   H     0.35080   0.13921   0.53445   0.00000  Uiso   1.00
H636   H     0.35667   0.09256   0.57945   0.00000  Uiso   1.00
C637   C     0.36347   0.16183   0.61023   0.00000  Uiso   1.00
H638   H     0.35630   0.15071   0.64870   0.00000  Uiso   1.00
H639   H     0.40030   0.16247   0.60708   0.00000  Uiso   1.00
H640   H     0.35006   0.19776   0.60338   0.00000  Uiso   1.00
O641   O     0.18445   0.37423   0.44616   0.00000  Uiso   1.00
C642   C     0.19507   0.38372   0.39636   0.00000  Uiso   1.00
H643   H     0.23036   0.37384   0.39019   0.00000  Uiso   1.00
H644   H     0.19020   0.42156   0.38733   0.00000  Uiso   1.00
C645   C     0.16449   0.35556   0.36007   0.00000  Uiso   1.00
H646   H     0.12946   0.36779   0.36207   0.00000  Uiso   1.00
H647   H     0.17470   0.36066   0.65457   0.00000  Uiso   1.00
H648   H     0.16657   0.31764   0.36946   0.00000  Uiso   1.00
O649   O     0.02103   0.29728   0.41921   0.00000  Uiso   1.00
C650   C     0.03850   0.29398   0.37152   0.00000  Uiso   1.00
H651   H     0.01057   0.29916   0.34285   0.00000  Uiso   1.00
H652   H     0.05390   0.25921   0.36396   0.00000  Uiso   1.00
H653   H     0.06313   0.32237   0.36668   0.00000  Uiso   1.00
O654   O     0.46624   0.16879   0.43311   0.00000  Uiso   1.00
C655   C     0.46556   0.18032   0.38182   0.00000  Uiso   1.00
H656   H     0.48850   0.20996   0.37537   0.00000  Uiso   1.00
H657   H     0.43120   0.18875   0.36600   0.00000  Uiso   1.00
H658   H     0.47746   0.14948   0.36119   0.00000  Uiso   1.00
O659   O     0.48570   0.31664   0.51868   0.00000  Uiso   1.00
C660   C     0.49414   0.31481   0.57104   0.00000  Uiso   1.00
H661   H     0.02084   0.28881   0.58086   0.00000  Uiso   1.00
H662   H     0.46361   0.30713   0.59141   0.00000  Uiso   1.00
H663   H     0.00684   0.34956   0.58408   0.00000  Uiso   1.00
O664   O     0.02333   0.17262   0.54048   0.00000  Uiso   1.00
C665   C     0.01382   0.18930   0.58829   0.00000  Uiso   1.00
H666   H     0.48494   0.21378   0.58538   0.00000  Uiso   1.00
H667   H     0.04329   0.20602   0.60871   0.00000  Uiso   1.00
H668   H     0.00394   0.15897   0.61100   0.00000  Uiso   1.00
O669   O     0.10935   0.32007   0.45071   0.00000  Uiso   1.00
C670   C     0.09437   0.35797   0.47950   0.00000  Uiso   1.00
H671   H     0.05729   0.35949   0.48025   0.00000  Uiso   1.00
H672   H     0.10451   0.39137   0.46232   0.00000  Uiso   1.00
H673   H     0.10989   0.35644   0.51838   0.00000  Uiso   1.00
O674   O     0.37077   0.17786   0.43785   0.00000  Uiso   1.00
C675   C     0.38239   0.13005   0.44433   0.00000  Uiso   1.00
H676   H     0.40470   0.12292   0.47843   0.00000  Uiso   1.00
H677   H     0.39800   0.11681   0.41054   0.00000  Uiso   1.00
H678   H     0.35119   0.10955   0.44775   0.00000  Uiso   1.00
O679   O     0.39498   0.32708   0.52013   0.00000  Uiso   1.00
C680   C     0.39514   0.36031   0.48093   0.00000  Uiso   1.00
H681   H     0.42772   0.36233   0.46312   0.00000  Uiso   1.00
H682   H     0.38930   0.39538   0.49690   0.00000  Uiso   1.00
H683   H     0.36773   0.35282   0.45199   0.00000  Uiso   1.00
O684   O     0.11887   0.18426   0.55834   0.00000  Uiso   1.00
C685   C     0.10928   0.13569   0.55580   0.00000  Uiso   1.00
H686   H     0.09247   0.12405   0.51955   0.00000  Uiso   1.00
H687   H     0.08857   0.12571   0.58708   0.00000  Uiso   1.00
H688   H     0.14127   0.11606   0.56098   0.00000  Uiso   1.00
O689   O     0.19641   0.03053   0.42722   0.00000  Uiso   1.00
C690   C     0.21457   0.02976   0.38005   0.00000  Uiso   1.00
H691   H     0.23651   0.49848   0.37799   0.00000  Uiso   1.00
H692   H     0.23395   0.06199   0.37225   0.00000  Uiso   1.00
C693   C     0.17623   0.02543   0.33997   0.00000  Uiso   1.00
H694   H     0.15400   0.05653   0.34096   0.00000  Uiso   1.00
H695   H     0.18929   0.02336   0.63557   0.00000  Uiso   1.00
H696   H     0.15632   0.49336   0.34638   0.00000  Uiso   1.00
O697   O     0.33099   0.46743   0.51866   0.00000  Uiso   1.00
C698   C     0.34451   0.48204   0.47143   0.00000  Uiso   1.00
H699   H     0.32164   0.00908   0.45429   0.00000  Uiso   1.00
H700   H     0.34582   0.45176   0.44521   0.00000  Uiso   1.00
C701   C     0.39088   0.00384   0.47805   0.00000  Uiso   1.00
H702   H     0.41539   0.47771   0.49387   0.00000  Uiso   1.00
H703   H     0.40165   0.01598   0.44124   0.00000  Uiso   1.00
H704   H     0.39020   0.03434   0.50386   0.00000  Uiso   1.00
O705   O     0.30182   0.02987   0.57326   0.00000  Uiso   1.00
C706   C     0.28378   0.02912   0.62050   0.00000  Uiso   1.00
H707   H     0.26198   0.49775   0.62266   0.00000  Uiso   1.00
H708   H     0.26433   0.06131   0.62830   0.00000  Uiso   1.00
C709   C     0.32220   0.02500   0.66051   0.00000  Uiso   1.00
H710   H     0.34429   0.05621   0.65953   0.00000  Uiso   1.00
H711   H     0.30919   0.02284   0.36492   0.00000  Uiso   1.00
H712   H     0.34225   0.49304   0.65408   0.00000  Uiso   1.00
O713   O     0.16836   0.46602   0.47876   0.00000  Uiso   1.00
C714   C     0.15168   0.47567   0.52587   0.00000  Uiso   1.00
H715   H     0.17455   0.49918   0.54875   0.00000  Uiso   1.00
H716   H     0.14674   0.44250   0.54684   0.00000  Uiso   1.00
C717   C     0.10679   0.00043   0.51801   0.00000  Uiso   1.00
H718   H     0.08252   0.47756   0.49638   0.00000  Uiso   1.00
H719   H     0.09348   0.00862   0.55485   0.00000  Uiso   1.00
H720   H     0.11091   0.03368   0.49714   0.00000  Uiso   1.00
O721   O     0.68453   0.28974   0.50000   0.00000  Uiso   1.00
O722   O     0.81547   0.21026   0.50000   0.00000  Uiso   1.00
O723   O     0.81547   0.28974   0.50000   0.00000  Uiso   1.00
O724   O     0.68453   0.21026   0.50000   0.00000  Uiso   1.00
C725   C     0.66370   0.24981   0.50104   0.00000  Uiso   1.00
C726   C     0.83606   0.24978   0.49690   0.00000  Uiso   1.00
O727   O     0.75000   0.28973   0.42845   0.00000  Uiso   1.00
O728   O     0.75000   0.21027   0.57155   0.00000  Uiso   1.00
O729   O     0.75000   0.28973   0.57155   0.00000  Uiso   1.00
O730   O     0.75000   0.21027   0.42845   0.00000  Uiso   1.00
C731   C     0.72466   0.05307   0.46234   0.00000  Uiso   1.00
C732   C     0.78904   0.44698   0.51274   0.00000  Uiso   1.00
C733   C     0.77366   0.05281   0.53833   0.00000  Uiso   1.00
C734   C     0.71041   0.44628   0.48618   0.00000  Uiso   1.00
C735   C     0.74973   0.25000   0.40621   0.00000  Uiso   1.00
C736   C     0.75030   0.25001   0.59379   0.00000  Uiso   1.00
Zn737  Zn    0.75000   0.30307   0.50000   0.00000  Uiso   1.00
Zn738  Zn    0.75000   0.19693   0.50000   0.00000  Uiso   1.00
N739   N     0.75000   0.12623   0.50000   0.00000  Uiso   1.00
N740   N     0.75000   0.37376   0.50000   0.00000  Uiso   1.00
C741   C     0.74892   0.02695   0.50041   0.00000  Uiso   1.00
C742   C     0.74936   0.47325   0.49995   0.00000  Uiso   1.00
C743   C     0.74994   0.25000   0.35512   0.00000  Uiso   1.00
C744   C     0.75015   0.25001   0.64488   0.00000  Uiso   1.00
C745   C     0.54566   0.26935   0.45338   0.00000  Uiso   1.00
C746   C     0.94752   0.20544   0.45848   0.00000  Uiso   1.00
C747   C     0.95793   0.27979   0.50322   0.00000  Uiso   1.00
C748   C     0.54663   0.20653   0.51567   0.00000  Uiso   1.00
C749   C     0.59027   0.27940   0.46749   0.00000  Uiso   1.00
C750   C     0.90089   0.20836   0.46320   0.00000  Uiso   1.00
C751   C     0.91187   0.28540   0.50314   0.00000  Uiso   1.00
C752   C     0.59364   0.21056   0.52272   0.00000  Uiso   1.00
C753   C     0.61500   0.24790   0.49873   0.00000  Uiso   1.00
C754   C     0.88364   0.24803   0.48782   0.00000  Uiso   1.00
C755   C     0.52354   0.23581   0.48067   0.00000  Uiso   1.00
C756   C     0.97539   0.23971   0.48122   0.00000  Uiso   1.00
C757   C     0.72499   0.10285   0.46356   0.00000  Uiso   1.00
C758   C     0.78560   0.39810   0.52097   0.00000  Uiso   1.00
C759   C     0.77430   0.10259   0.53682   0.00000  Uiso   1.00
C760   C     0.71486   0.39766   0.47776   0.00000  Uiso   1.00
O761   O     0.70368   0.12839   0.42497   0.00000  Uiso   1.00
C762   C     0.65695   0.12837   0.42969   0.00000  Uiso   1.00
H763   H     0.64880   0.13834   0.46796   0.00000  Uiso   1.00
H764   H     0.64202   0.09348   0.42101   0.00000  Uiso   1.00
C765   C     0.63513   0.16370   0.39309   0.00000  Uiso   1.00
H766   H     0.64091   0.15326   0.35401   0.00000  Uiso   1.00
H767   H     0.59850   0.16507   0.39761   0.00000  Uiso   1.00
H768   H     0.64945   0.19919   0.40028   0.00000  Uiso   1.00
O769   O     0.81968   0.37413   0.54675   0.00000  Uiso   1.00
C770   C     0.81619   0.38172   0.59853   0.00000  Uiso   1.00
H771   H     0.78190   0.37342   0.61011   0.00000  Uiso   1.00
H772   H     0.82443   0.41876   0.60849   0.00000  Uiso   1.00
C773   C     0.84918   0.34993   0.62789   0.00000  Uiso   1.00
H774   H     0.88396   0.35854   0.61888   0.00000  Uiso   1.00
H775   H     0.84605   0.35493   0.33537   0.00000  Uiso   1.00
H776   H     0.84213   0.31263   0.61824   0.00000  Uiso   1.00
O777   O     0.79519   0.12790   0.57586   0.00000  Uiso   1.00
C778   C     0.84201   0.12780   0.57199   0.00000  Uiso   1.00
H779   H     0.85080   0.13921   0.53445   0.00000  Uiso   1.00
H780   H     0.85667   0.09256   0.57945   0.00000  Uiso   1.00
C781   C     0.86347   0.16183   0.61023   0.00000  Uiso   1.00
H782   H     0.85630   0.15071   0.64870   0.00000  Uiso   1.00
H783   H     0.90030   0.16247   0.60708   0.00000  Uiso   1.00
H784   H     0.85006   0.19776   0.60338   0.00000  Uiso   1.00
O785   O     0.68445   0.37423   0.44616   0.00000  Uiso   1.00
C786   C     0.69507   0.38372   0.39636   0.00000  Uiso   1.00
H787   H     0.73036   0.37384   0.39019   0.00000  Uiso   1.00
H788   H     0.69020   0.42156   0.38733   0.00000  Uiso   1.00
C789   C     0.66449   0.35556   0.36007   0.00000  Uiso   1.00
H790   H     0.62946   0.36779   0.36207   0.00000  Uiso   1.00
H791   H     0.67470   0.36066   0.65457   0.00000  Uiso   1.00
H792   H     0.66657   0.31764   0.36946   0.00000  Uiso   1.00
O793   O     0.52103   0.29728   0.41921   0.00000  Uiso   1.00
C794   C     0.53850   0.29398   0.37152   0.00000  Uiso   1.00
H795   H     0.51057   0.29916   0.34285   0.00000  Uiso   1.00
H796   H     0.55390   0.25921   0.36396   0.00000  Uiso   1.00
H797   H     0.56313   0.32237   0.36668   0.00000  Uiso   1.00
O798   O     0.96624   0.16879   0.43311   0.00000  Uiso   1.00
C799   C     0.96556   0.18032   0.38182   0.00000  Uiso   1.00
H800   H     0.98850   0.20996   0.37537   0.00000  Uiso   1.00
H801   H     0.93120   0.18875   0.36600   0.00000  Uiso   1.00
H802   H     0.97746   0.14948   0.36119   0.00000  Uiso   1.00
O803   O     0.98570   0.31664   0.51868   0.00000  Uiso   1.00
C804   C     0.99414   0.31481   0.57104   0.00000  Uiso   1.00
H805   H     0.52084   0.28881   0.58086   0.00000  Uiso   1.00
H806   H     0.96361   0.30713   0.59141   0.00000  Uiso   1.00
H807   H     0.50684   0.34956   0.58408   0.00000  Uiso   1.00
O808   O     0.52333   0.17262   0.54048   0.00000  Uiso   1.00
C809   C     0.51382   0.18930   0.58829   0.00000  Uiso   1.00
H810   H     0.98494   0.21378   0.58538   0.00000  Uiso   1.00
H811   H     0.54329   0.20602   0.60871   0.00000  Uiso   1.00
H812   H     0.50394   0.15897   0.61100   0.00000  Uiso   1.00
O813   O     0.60935   0.32007   0.45071   0.00000  Uiso   1.00
C814   C     0.59437   0.35797   0.47950   0.00000  Uiso   1.00
H815   H     0.55729   0.35949   0.48025   0.00000  Uiso   1.00
H816   H     0.60451   0.39137   0.46232   0.00000  Uiso   1.00
H817   H     0.60989   0.35644   0.51838   0.00000  Uiso   1.00
O818   O     0.87077   0.17786   0.43785   0.00000  Uiso   1.00
C819   C     0.88239   0.13005   0.44433   0.00000  Uiso   1.00
H820   H     0.90470   0.12292   0.47843   0.00000  Uiso   1.00
H821   H     0.89800   0.11681   0.41054   0.00000  Uiso   1.00
H822   H     0.85119   0.10955   0.44775   0.00000  Uiso   1.00
O823   O     0.89498   0.32708   0.52013   0.00000  Uiso   1.00
C824   C     0.89514   0.36031   0.48093   0.00000  Uiso   1.00
H825   H     0.92772   0.36233   0.46312   0.00000  Uiso   1.00
H826   H     0.88930   0.39538   0.49690   0.00000  Uiso   1.00
H827   H     0.86773   0.35282   0.45199   0.00000  Uiso   1.00
O828   O     0.61887   0.18426   0.55834   0.00000  Uiso   1.00
C829   C     0.60928   0.13569   0.55580   0.00000  Uiso   1.00
H830   H     0.59247   0.12405   0.51955   0.00000  Uiso   1.00
H831   H     0.58857   0.12571   0.58708   0.00000  Uiso   1.00
H832   H     0.64127   0.11606   0.56098   0.00000  Uiso   1.00
O833   O     0.69641   0.03053   0.42722   0.00000  Uiso   1.00
C834   C     0.71457   0.02976   0.38005   0.00000  Uiso   1.00
H835   H     0.73651   0.49848   0.37799   0.00000  Uiso   1.00
H836   H     0.73395   0.06199   0.37225   0.00000  Uiso   1.00
C837   C     0.67623   0.02543   0.33997   0.00000  Uiso   1.00
H838   H     0.65400   0.05653   0.34096   0.00000  Uiso   1.00
H839   H     0.68929   0.02336   0.63557   0.00000  Uiso   1.00
H840   H     0.65632   0.49336   0.34638   0.00000  Uiso   1.00
O841   O     0.83099   0.46743   0.51866   0.00000  Uiso   1.00
C842   C     0.84451   0.48204   0.47143   0.00000  Uiso   1.00
H843   H     0.82164   0.00908   0.45429   0.00000  Uiso   1.00
H844   H     0.84582   0.45176   0.44521   0.00000  Uiso   1.00
C845   C     0.89088   0.00384   0.47805   0.00000  Uiso   1.00
H846   H     0.91539   0.47771   0.49387   0.00000  Uiso   1.00
H847   H     0.90165   0.01598   0.44124   0.00000  Uiso   1.00
H848   H     0.89020   0.03434   0.50386   0.00000  Uiso   1.00
O849   O     0.80182   0.02987   0.57326   0.00000  Uiso   1.00
C850   C     0.78378   0.02912   0.62050   0.00000  Uiso   1.00
H851   H     0.76198   0.49775   0.62266   0.00000  Uiso   1.00
H852   H     0.76433   0.06131   0.62830   0.00000  Uiso   1.00
C853   C     0.82220   0.02500   0.66051   0.00000  Uiso   1.00
H854   H     0.84429   0.05621   0.65953   0.00000  Uiso   1.00
H855   H     0.80919   0.02284   0.36492   0.00000  Uiso   1.00
H856   H     0.84225   0.49304   0.65408   0.00000  Uiso   1.00
O857   O     0.66836   0.46602   0.47876   0.00000  Uiso   1.00
C858   C     0.65168   0.47567   0.52587   0.00000  Uiso   1.00
H859   H     0.67455   0.49918   0.54875   0.00000  Uiso   1.00
H860   H     0.64674   0.44250   0.54684   0.00000  Uiso   1.00
C861   C     0.60679   0.00043   0.51801   0.00000  Uiso   1.00
H862   H     0.58252   0.47756   0.49638   0.00000  Uiso   1.00
H863   H     0.59348   0.00862   0.55485   0.00000  Uiso   1.00
H864   H     0.61091   0.03368   0.49714   0.00000  Uiso   1.00
O865   O     0.18453   0.78974   0.50000   0.00000  Uiso   1.00
O866   O     0.31547   0.71026   0.50000   0.00000  Uiso   1.00
O867   O     0.31547   0.78974   0.50000   0.00000  Uiso   1.00
O868   O     0.18453   0.71026   0.50000   0.00000  Uiso   1.00
C869   C     0.16370   0.74981   0.50104   0.00000  Uiso   1.00
C870   C     0.33606   0.74978   0.49690   0.00000  Uiso   1.00
O871   O     0.25000   0.78973   0.42845   0.00000  Uiso   1.00
O872   O     0.25000   0.71027   0.57155   0.00000  Uiso   1.00
O873   O     0.25000   0.78973   0.57155   0.00000  Uiso   1.00
O874   O     0.25000   0.71027   0.42845   0.00000  Uiso   1.00
C875   C     0.22466   0.55307   0.46234   0.00000  Uiso   1.00
C876   C     0.28904   0.94698   0.51274   0.00000  Uiso   1.00
C877   C     0.27366   0.55281   0.53833   0.00000  Uiso   1.00
C878   C     0.21041   0.94628   0.48618   0.00000  Uiso   1.00
C879   C     0.24973   0.75000   0.40621   0.00000  Uiso   1.00
C880   C     0.25030   0.75001   0.59379   0.00000  Uiso   1.00
Zn881  Zn    0.25000   0.80307   0.50000   0.00000  Uiso   1.00
Zn882  Zn    0.25000   0.69693   0.50000   0.00000  Uiso   1.00
N883   N     0.25000   0.62623   0.50000   0.00000  Uiso   1.00
N884   N     0.25000   0.87376   0.50000   0.00000  Uiso   1.00
C885   C     0.24892   0.52695   0.50041   0.00000  Uiso   1.00
C886   C     0.24936   0.97325   0.49995   0.00000  Uiso   1.00
C887   C     0.24994   0.75000   0.35512   0.00000  Uiso   1.00
C888   C     0.25015   0.75001   0.64488   0.00000  Uiso   1.00
C889   C     0.04566   0.76935   0.45338   0.00000  Uiso   1.00
C890   C     0.44752   0.70544   0.45848   0.00000  Uiso   1.00
C891   C     0.45793   0.77979   0.50322   0.00000  Uiso   1.00
C892   C     0.04663   0.70653   0.51567   0.00000  Uiso   1.00
C893   C     0.09027   0.77940   0.46749   0.00000  Uiso   1.00
C894   C     0.40089   0.70836   0.46320   0.00000  Uiso   1.00
C895   C     0.41187   0.78540   0.50314   0.00000  Uiso   1.00
C896   C     0.09364   0.71056   0.52272   0.00000  Uiso   1.00
C897   C     0.11500   0.74790   0.49873   0.00000  Uiso   1.00
C898   C     0.38364   0.74803   0.48782   0.00000  Uiso   1.00
C899   C     0.02354   0.73581   0.48067   0.00000  Uiso   1.00
C900   C     0.47539   0.73971   0.48122   0.00000  Uiso   1.00
C901   C     0.22499   0.60285   0.46356   0.00000  Uiso   1.00
C902   C     0.28560   0.89810   0.52097   0.00000  Uiso   1.00
C903   C     0.27430   0.60259   0.53682   0.00000  Uiso   1.00
C904   C     0.21486   0.89766   0.47776   0.00000  Uiso   1.00
O905   O     0.20368   0.62839   0.42497   0.00000  Uiso   1.00
C906   C     0.15695   0.62837   0.42969   0.00000  Uiso   1.00
H907   H     0.14880   0.63834   0.46796   0.00000  Uiso   1.00
H908   H     0.14202   0.59348   0.42101   0.00000  Uiso   1.00
C909   C     0.13513   0.66370   0.39309   0.00000  Uiso   1.00
H910   H     0.14091   0.65326   0.35401   0.00000  Uiso   1.00
H911   H     0.09850   0.66507   0.39761   0.00000  Uiso   1.00
H912   H     0.14945   0.69919   0.40028   0.00000  Uiso   1.00
O913   O     0.31968   0.87413   0.54675   0.00000  Uiso   1.00
C914   C     0.31619   0.88172   0.59853   0.00000  Uiso   1.00
H915   H     0.28190   0.87342   0.61011   0.00000  Uiso   1.00
H916   H     0.32443   0.91876   0.60849   0.00000  Uiso   1.00
C917   C     0.34918   0.84993   0.62789   0.00000  Uiso   1.00
H918   H     0.38396   0.85854   0.61888   0.00000  Uiso   1.00
H919   H     0.34605   0.85493   0.33537   0.00000  Uiso   1.00
H920   H     0.34213   0.81263   0.61824   0.00000  Uiso   1.00
O921   O     0.29519   0.62790   0.57586   0.00000  Uiso   1.00
C922   C     0.34201   0.62780   0.57199   0.00000  Uiso   1.00
H923   H     0.35080   0.63921   0.53445   0.00000  Uiso   1.00
H924   H     0.35667   0.59256   0.57945   0.00000  Uiso   1.00
C925   C     0.36347   0.66183   0.61023   0.00000  Uiso   1.00
H926   H     0.35630   0.65071   0.64870   0.00000  Uiso   1.00
H927   H     0.40030   0.66247   0.60708   0.00000  Uiso   1.00
H928   H     0.35006   0.69776   0.60338   0.00000  Uiso   1.00
O929   O     0.18445   0.87423   0.44616   0.00000  Uiso   1.00
C930   C     0.19507   0.88372   0.39636   0.00000  Uiso   1.00
H931   H     0.23036   0.87384   0.39019   0.00000  Uiso   1.00
H932   H     0.19020   0.92156   0.38733   0.00000  Uiso   1.00
C933   C     0.16449   0.85556   0.36007   0.00000  Uiso   1.00
H934   H     0.12946   0.86779   0.36207   0.00000  Uiso   1.00
H935   H     0.17470   0.86066   0.65457   0.00000  Uiso   1.00
H936   H     0.16657   0.81764   0.36946   0.00000  Uiso   1.00
O937   O     0.02103   0.79728   0.41921   0.00000  Uiso   1.00
C938   C     0.03850   0.79398   0.37152   0.00000  Uiso   1.00
H939   H     0.01057   0.79916   0.34285   0.00000  Uiso   1.00
H940   H     0.05390   0.75921   0.36396   0.00000  Uiso   1.00
H941   H     0.06313   0.82237   0.36668   0.00000  Uiso   1.00
O942   O     0.46624   0.66879   0.43311   0.00000  Uiso   1.00
C943   C     0.46556   0.68032   0.38182   0.00000  Uiso   1.00
H944   H     0.48850   0.70996   0.37537   0.00000  Uiso   1.00
H945   H     0.43120   0.68875   0.36600   0.00000  Uiso   1.00
H946   H     0.47746   0.64948   0.36119   0.00000  Uiso   1.00
O947   O     0.48570   0.81664   0.51868   0.00000  Uiso   1.00
C948   C     0.49414   0.81481   0.57104   0.00000  Uiso   1.00
H949   H     0.02084   0.78881   0.58086   0.00000  Uiso   1.00
H950   H     0.46361   0.80713   0.59141   0.00000  Uiso   1.00
H951   H     0.00684   0.84956   0.58408   0.00000  Uiso   1.00
O952   O     0.02333   0.67262   0.54048   0.00000  Uiso   1.00
C953   C     0.01382   0.68930   0.58829   0.00000  Uiso   1.00
H954   H     0.48494   0.71378   0.58538   0.00000  Uiso   1.00
H955   H     0.04329   0.70602   0.60871   0.00000  Uiso   1.00
H956   H     0.00394   0.65897   0.61100   0.00000  Uiso   1.00
O957   O     0.10935   0.82007   0.45071   0.00000  Uiso   1.00
C958   C     0.09437   0.85797   0.47950   0.00000  Uiso   1.00
H959   H     0.05729   0.85949   0.48025   0.00000  Uiso   1.00
H960   H     0.10451   0.89137   0.46232   0.00000  Uiso   1.00
H961   H     0.10989   0.85644   0.51838   0.00000  Uiso   1.00
O962   O     0.37077   0.67786   0.43785   0.00000  Uiso   1.00
C963   C     0.38239   0.63005   0.44433   0.00000  Uiso   1.00
H964   H     0.40470   0.62292   0.47843   0.00000  Uiso   1.00
H965   H     0.39800   0.61681   0.41054   0.00000  Uiso   1.00
H966   H     0.35119   0.60955   0.44775   0.00000  Uiso   1.00
O967   O     0.39498   0.82708   0.52013   0.00000  Uiso   1.00
C968   C     0.39514   0.86031   0.48093   0.00000  Uiso   1.00
H969   H     0.42772   0.86233   0.46312   0.00000  Uiso   1.00
H970   H     0.38930   0.89538   0.49690   0.00000  Uiso   1.00
H971   H     0.36773   0.85282   0.45199   0.00000  Uiso   1.00
O972   O     0.11887   0.68426   0.55834   0.00000  Uiso   1.00
C973   C     0.10928   0.63569   0.55580   0.00000  Uiso   1.00
H974   H     0.09247   0.62405   0.51955   0.00000  Uiso   1.00
H975   H     0.08857   0.62571   0.58708   0.00000  Uiso   1.00
H976   H     0.14127   0.61606   0.56098   0.00000  Uiso   1.00
O977   O     0.19641   0.53053   0.42722   0.00000  Uiso   1.00
C978   C     0.21457   0.52976   0.38005   0.00000  Uiso   1.00
H979   H     0.23651   0.99848   0.37799   0.00000  Uiso   1.00
H980   H     0.23395   0.56199   0.37225   0.00000  Uiso   1.00
C981   C     0.17623   0.52543   0.33997   0.00000  Uiso   1.00
H982   H     0.15400   0.55653   0.34096   0.00000  Uiso   1.00
H983   H     0.18929   0.52336   0.63557   0.00000  Uiso   1.00
H984   H     0.15632   0.99336   0.34638   0.00000  Uiso   1.00
O985   O     0.33099   0.96743   0.51866   0.00000  Uiso   1.00
C986   C     0.34451   0.98204   0.47143   0.00000  Uiso   1.00
H987   H     0.32164   0.50908   0.45429   0.00000  Uiso   1.00
H988   H     0.34582   0.95176   0.44521   0.00000  Uiso   1.00
C989   C     0.39088   0.50384   0.47805   0.00000  Uiso   1.00
H990   H     0.41539   0.97771   0.49387   0.00000  Uiso   1.00
H991   H     0.40165   0.51598   0.44124   0.00000  Uiso   1.00
H992   H     0.39020   0.53434   0.50386   0.00000  Uiso   1.00
O993   O     0.30182   0.52987   0.57326   0.00000  Uiso   1.00
C994   C     0.28378   0.52912   0.62050   0.00000  Uiso   1.00
H995   H     0.26198   0.99775   0.62266   0.00000  Uiso   1.00
H996   H     0.26433   0.56131   0.62830   0.00000  Uiso   1.00
C997   C     0.32220   0.52500   0.66051   0.00000  Uiso   1.00
H998   H     0.34429   0.55621   0.65953   0.00000  Uiso   1.00
H999   H     0.30919   0.52284   0.36492   0.00000  Uiso   1.00
H1000  H     0.34225   0.99304   0.65408   0.00000  Uiso   1.00
O1001  O     0.16836   0.96602   0.47876   0.00000  Uiso   1.00
C1002  C     0.15168   0.97567   0.52587   0.00000  Uiso   1.00
H1003  H     0.17455   0.99918   0.54875   0.00000  Uiso   1.00
H1004  H     0.14674   0.94250   0.54684   0.00000  Uiso   1.00
C1005  C     0.10679   0.50043   0.51801   0.00000  Uiso   1.00
H1006  H     0.08252   0.97756   0.49638   0.00000  Uiso   1.00
H1007  H     0.09348   0.50862   0.55485   0.00000  Uiso   1.00
H1008  H     0.11091   0.53368   0.49714   0.00000  Uiso   1.00
O1009  O     0.68453   0.78974   0.50000   0.00000  Uiso   1.00
O1010  O     0.81547   0.71026   0.50000   0.00000  Uiso   1.00
O1011  O     0.81547   0.78974   0.50000   0.00000  Uiso   1.00
O1012  O     0.68453   0.71026   0.50000   0.00000  Uiso   1.00
C1013  C     0.66370   0.74981   0.50104   0.00000  Uiso   1.00
C1014  C     0.83606   0.74978   0.49690   0.00000  Uiso   1.00
O1015  O     0.75000   0.78973   0.42845   0.00000  Uiso   1.00
O1016  O     0.75000   0.71027   0.57155   0.00000  Uiso   1.00
O1017  O     0.75000   0.78973   0.57155   0.00000  Uiso   1.00
O1018  O     0.75000   0.71027   0.42845   0.00000  Uiso   1.00
C1019  C     0.72466   0.55307   0.46234   0.00000  Uiso   1.00
C1020  C     0.78904   0.94698   0.51274   0.00000  Uiso   1.00
C1021  C     0.77366   0.55281   0.53833   0.00000  Uiso   1.00
C1022  C     0.71041   0.94628   0.48618   0.00000  Uiso   1.00
C1023  C     0.74973   0.75000   0.40621   0.00000  Uiso   1.00
C1024  C     0.75030   0.75001   0.59379   0.00000  Uiso   1.00
Zn1025 Zn    0.75000   0.80307   0.50000   0.00000  Uiso   1.00
Zn1026 Zn    0.75000   0.69693   0.50000   0.00000  Uiso   1.00
N1027  N     0.75000   0.62623   0.50000   0.00000  Uiso   1.00
N1028  N     0.75000   0.87376   0.50000   0.00000  Uiso   1.00
C1029  C     0.74892   0.52695   0.50041   0.00000  Uiso   1.00
C1030  C     0.74936   0.97325   0.49995   0.00000  Uiso   1.00
C1031  C     0.74994   0.75000   0.35512   0.00000  Uiso   1.00
C1032  C     0.75015   0.75001   0.64488   0.00000  Uiso   1.00
C1033  C     0.54566   0.76935   0.45338   0.00000  Uiso   1.00
C1034  C     0.94752   0.70544   0.45848   0.00000  Uiso   1.00
C1035  C     0.95793   0.77979   0.50322   0.00000  Uiso   1.00
C1036  C     0.54663   0.70653   0.51567   0.00000  Uiso   1.00
C1037  C     0.59027   0.77940   0.46749   0.00000  Uiso   1.00
C1038  C     0.90089   0.70836   0.46320   0.00000  Uiso   1.00
C1039  C     0.91187   0.78540   0.50314   0.00000  Uiso   1.00
C1040  C     0.59364   0.71056   0.52272   0.00000  Uiso   1.00
C1041  C     0.61500   0.74790   0.49873   0.00000  Uiso   1.00
C1042  C     0.88364   0.74803   0.48782   0.00000  Uiso   1.00
C1043  C     0.52354   0.73581   0.48067   0.00000  Uiso   1.00
C1044  C     0.97539   0.73971   0.48122   0.00000  Uiso   1.00
C1045  C     0.72499   0.60285   0.46356   0.00000  Uiso   1.00
C1046  C     0.78560   0.89810   0.52097   0.00000  Uiso   1.00
C1047  C     0.77430   0.60259   0.53682   0.00000  Uiso   1.00
C1048  C     0.71486   0.89766   0.47776   0.00000  Uiso   1.00
O1049  O     0.70368   0.62839   0.42497   0.00000  Uiso   1.00
C1050  C     0.65695   0.62837   0.42969   0.00000  Uiso   1.00
H1051  H     0.64880   0.63834   0.46796   0.00000  Uiso   1.00
H1052  H     0.64202   0.59348   0.42101   0.00000  Uiso   1.00
C1053  C     0.63513   0.66370   0.39309   0.00000  Uiso   1.00
H1054  H     0.64091   0.65326   0.35401   0.00000  Uiso   1.00
H1055  H     0.59850   0.66507   0.39761   0.00000  Uiso   1.00
H1056  H     0.64945   0.69919   0.40028   0.00000  Uiso   1.00
O1057  O     0.81968   0.87413   0.54675   0.00000  Uiso   1.00
C1058  C     0.81619   0.88172   0.59853   0.00000  Uiso   1.00
H1059  H     0.78190   0.87342   0.61011   0.00000  Uiso   1.00
H1060  H     0.82443   0.91876   0.60849   0.00000  Uiso   1.00
C1061  C     0.84918   0.84993   0.62789   0.00000  Uiso   1.00
H1062  H     0.88396   0.85854   0.61888   0.00000  Uiso   1.00
H1063  H     0.84605   0.85493   0.33537   0.00000  Uiso   1.00
H1064  H     0.84213   0.81263   0.61824   0.00000  Uiso   1.00
O1065  O     0.79519   0.62790   0.57586   0.00000  Uiso   1.00
C1066  C     0.84201   0.62780   0.57199   0.00000  Uiso   1.00
H1067  H     0.85080   0.63921   0.53445   0.00000  Uiso   1.00
H1068  H     0.85667   0.59256   0.57945   0.00000  Uiso   1.00
C1069  C     0.86347   0.66183   0.61023   0.00000  Uiso   1.00
H1070  H     0.85630   0.65071   0.64870   0.00000  Uiso   1.00
H1071  H     0.90030   0.66247   0.60708   0.00000  Uiso   1.00
H1072  H     0.85006   0.69776   0.60338   0.00000  Uiso   1.00
O1073  O     0.68445   0.87423   0.44616   0.00000  Uiso   1.00
C1074  C     0.69507   0.88372   0.39636   0.00000  Uiso   1.00
H1075  H     0.73036   0.87384   0.39019   0.00000  Uiso   1.00
H1076  H     0.69020   0.92156   0.38733   0.00000  Uiso   1.00
C1077  C     0.66449   0.85556   0.36007   0.00000  Uiso   1.00
H1078  H     0.62946   0.86779   0.36207   0.00000  Uiso   1.00
H1079  H     0.67470   0.86066   0.65457   0.00000  Uiso   1.00
H1080  H     0.66657   0.81764   0.36946   0.00000  Uiso   1.00
O1081  O     0.52103   0.79728   0.41921   0.00000  Uiso   1.00
C1082  C     0.53850   0.79398   0.37152   0.00000  Uiso   1.00
H1083  H     0.51057   0.79916   0.34285   0.00000  Uiso   1.00
H1084  H     0.55390   0.75921   0.36396   0.00000  Uiso   1.00
H1085  H     0.56313   0.82237   0.36668   0.00000  Uiso   1.00
O1086  O     0.96624   0.66879   0.43311   0.00000  Uiso   1.00
C1087  C     0.96556   0.68032   0.38182   0.00000  Uiso   1.00
H1088  H     0.98850   0.70996   0.37537   0.00000  Uiso   1.00
H1089  H     0.93120   0.68875   0.36600   0.00000  Uiso   1.00
H1090  H     0.97746   0.64948   0.36119   0.00000  Uiso   1.00
O1091  O     0.98570   0.81664   0.51868   0.00000  Uiso   1.00
C1092  C     0.99414   0.81481   0.57104   0.00000  Uiso   1.00
H1093  H     0.52084   0.78881   0.58086   0.00000  Uiso   1.00
H1094  H     0.96361   0.80713   0.59141   0.00000  Uiso   1.00
H1095  H     0.50684   0.84956   0.58408   0.00000  Uiso   1.00
O1096  O     0.52333   0.67262   0.54048   0.00000  Uiso   1.00
C1097  C     0.51382   0.68930   0.58829   0.00000  Uiso   1.00
H1098  H     0.98494   0.71378   0.58538   0.00000  Uiso   1.00
H1099  H     0.54329   0.70602   0.60871   0.00000  Uiso   1.00
H1100  H     0.50394   0.65897   0.61100   0.00000  Uiso   1.00
O1101  O     0.60935   0.82007   0.45071   0.00000  Uiso   1.00
C1102  C     0.59437   0.85797   0.47950   0.00000  Uiso   1.00
H1103  H     0.55729   0.85949   0.48025   0.00000  Uiso   1.00
H1104  H     0.60451   0.89137   0.46232   0.00000  Uiso   1.00
H1105  H     0.60989   0.85644   0.51838   0.00000  Uiso   1.00
O1106  O     0.87077   0.67786   0.43785   0.00000  Uiso   1.00
C1107  C     0.88239   0.63005   0.44433   0.00000  Uiso   1.00
H1108  H     0.90470   0.62292   0.47843   0.00000  Uiso   1.00
H1109  H     0.89800   0.61681   0.41054   0.00000  Uiso   1.00
H1110  H     0.85119   0.60955   0.44775   0.00000  Uiso   1.00
O1111  O     0.89498   0.82708   0.52013   0.00000  Uiso   1.00
C1112  C     0.89514   0.86031   0.48093   0.00000  Uiso   1.00
H1113  H     0.92772   0.86233   0.46312   0.00000  Uiso   1.00
H1114  H     0.88930   0.89538   0.49690   0.00000  Uiso   1.00
H1115  H     0.86773   0.85282   0.45199   0.00000  Uiso   1.00
O1116  O     0.61887   0.68426   0.55834   0.00000  Uiso   1.00
C1117  C     0.60928   0.63569   0.55580   0.00000  Uiso   1.00
H1118  H     0.59247   0.62405   0.51955   0.00000  Uiso   1.00
H1119  H     0.58857   0.62571   0.58708   0.00000  Uiso   1.00
H1120  H     0.64127   0.61606   0.56098   0.00000  Uiso   1.00
O1121  O     0.69641   0.53053   0.42722   0.00000  Uiso   1.00
C1122  C     0.71457   0.52976   0.38005   0.00000  Uiso   1.00
H1123  H     0.73651   0.99848   0.37799   0.00000  Uiso   1.00
H1124  H     0.73395   0.56199   0.37225   0.00000  Uiso   1.00
C1125  C     0.67623   0.52543   0.33997   0.00000  Uiso   1.00
H1126  H     0.65400   0.55653   0.34096   0.00000  Uiso   1.00
H1127  H     0.68929   0.52336   0.63557   0.00000  Uiso   1.00
H1128  H     0.65632   0.99336   0.34638   0.00000  Uiso   1.00
O1129  O     0.83099   0.96743   0.51866   0.00000  Uiso   1.00
C1130  C     0.84451   0.98204   0.47143   0.00000  Uiso   1.00
H1131  H     0.82164   0.50908   0.45429   0.00000  Uiso   1.00
H1132  H     0.84582   0.95176   0.44521   0.00000  Uiso   1.00
C1133  C     0.89088   0.50384   0.47805   0.00000  Uiso   1.00
H1134  H     0.91539   0.97771   0.49387   0.00000  Uiso   1.00
H1135  H     0.90165   0.51598   0.44124   0.00000  Uiso   1.00
H1136  H     0.89020   0.53434   0.50386   0.00000  Uiso   1.00
O1137  O     0.80182   0.52987   0.57326   0.00000  Uiso   1.00
C1138  C     0.78378   0.52912   0.62050   0.00000  Uiso   1.00
H1139  H     0.76198   0.99775   0.62266   0.00000  Uiso   1.00
H1140  H     0.76433   0.56131   0.62830   0.00000  Uiso   1.00
C1141  C     0.82220   0.52500   0.66051   0.00000  Uiso   1.00
H1142  H     0.84429   0.55621   0.65953   0.00000  Uiso   1.00
H1143  H     0.80919   0.52284   0.36492   0.00000  Uiso   1.00
H1144  H     0.84225   0.99304   0.65408   0.00000  Uiso   1.00
O1145  O     0.66836   0.96602   0.47876   0.00000  Uiso   1.00
C1146  C     0.65168   0.97567   0.52587   0.00000  Uiso   1.00
H1147  H     0.67455   0.99918   0.54875   0.00000  Uiso   1.00
H1148  H     0.64674   0.94250   0.54684   0.00000  Uiso   1.00
C1149  C     0.60679   0.50043   0.51801   0.00000  Uiso   1.00
H1150  H     0.58252   0.97756   0.49638   0.00000  Uiso   1.00
H1151  H     0.59348   0.50862   0.55485   0.00000  Uiso   1.00
H1152  H     0.61091   0.53368   0.49714   0.00000  Uiso   1.00
O1153  O     0.18453   0.28974   0.83334   0.00000  Uiso   1.00
O1154  O     0.31547   0.21026   0.83333   0.00000  Uiso   1.00
O1155  O     0.31547   0.28974   0.83333   0.00000  Uiso   1.00
O1156  O     0.18453   0.21026   0.83334   0.00000  Uiso   1.00
C1157  C     0.16370   0.24981   0.83438   0.00000  Uiso   1.00
C1158  C     0.33606   0.24978   0.83024   0.00000  Uiso   1.00
O1159  O     0.25000   0.28973   0.76178   0.00000  Uiso   1.00
O1160  O     0.25000   0.21027   0.90489   0.00000  Uiso   1.00
O1161  O     0.25000   0.28973   0.90489   0.00000  Uiso   1.00
O1162  O     0.25000   0.21027   0.76178   0.00000  Uiso   1.00
C1163  C     0.22466   0.05307   0.79568   0.00000  Uiso   1.00
C1164  C     0.28904   0.44698   0.84607   0.00000  Uiso   1.00
C1165  C     0.27366   0.05281   0.87167   0.00000  Uiso   1.00
C1166  C     0.21041   0.44628   0.81952   0.00000  Uiso   1.00
C1167  C     0.24973   0.25000   0.73955   0.00000  Uiso   1.00
C1168  C     0.25030   0.25001   0.92712   0.00000  Uiso   1.00
Zn1169 Zn    0.25000   0.30307   0.83333   0.00000  Uiso   1.00
Zn1170 Zn    0.25000   0.19693   0.83333   0.00000  Uiso   1.00
N1171  N     0.25000   0.12623   0.83333   0.00000  Uiso   1.00
N1172  N     0.25000   0.37376   0.83333   0.00000  Uiso   1.00
C1173  C     0.24892   0.02695   0.83374   0.00000  Uiso   1.00
C1174  C     0.24936   0.47325   0.83329   0.00000  Uiso   1.00
C1175  C     0.24994   0.25000   0.68846   0.00000  Uiso   1.00
C1176  C     0.25015   0.25001   0.97822   0.00000  Uiso   1.00
C1177  C     0.04566   0.26935   0.78672   0.00000  Uiso   1.00
C1178  C     0.44752   0.20544   0.79181   0.00000  Uiso   1.00
C1179  C     0.45793   0.27979   0.83656   0.00000  Uiso   1.00
C1180  C     0.04663   0.20653   0.84901   0.00000  Uiso   1.00
C1181  C     0.09027   0.27940   0.80083   0.00000  Uiso   1.00
C1182  C     0.40089   0.20836   0.79654   0.00000  Uiso   1.00
C1183  C     0.41187   0.28540   0.83647   0.00000  Uiso   1.00
C1184  C     0.09364   0.21056   0.85605   0.00000  Uiso   1.00
C1185  C     0.11500   0.24790   0.83206   0.00000  Uiso   1.00
C1186  C     0.38364   0.24803   0.82115   0.00000  Uiso   1.00
C1187  C     0.02354   0.23581   0.81400   0.00000  Uiso   1.00
C1188  C     0.47539   0.23971   0.81455   0.00000  Uiso   1.00
C1189  C     0.22499   0.10285   0.79690   0.00000  Uiso   1.00
C1190  C     0.28560   0.39810   0.85430   0.00000  Uiso   1.00
C1191  C     0.27430   0.10259   0.87016   0.00000  Uiso   1.00
C1192  C     0.21486   0.39766   0.81109   0.00000  Uiso   1.00
O1193  O     0.20368   0.12839   0.75830   0.00000  Uiso   1.00
C1194  C     0.15695   0.12837   0.76302   0.00000  Uiso   1.00
H1195  H     0.14880   0.13834   0.80130   0.00000  Uiso   1.00
H1196  H     0.14202   0.09348   0.75434   0.00000  Uiso   1.00
C1197  C     0.13513   0.16370   0.72643   0.00000  Uiso   1.00
H1198  H     0.14091   0.15326   0.68734   0.00000  Uiso   1.00
H1199  H     0.09850   0.16507   0.73094   0.00000  Uiso   1.00
H1200  H     0.14945   0.19919   0.73361   0.00000  Uiso   1.00
O1201  O     0.31968   0.37413   0.88009   0.00000  Uiso   1.00
C1202  C     0.31619   0.38172   0.93186   0.00000  Uiso   1.00
H1203  H     0.28190   0.37342   0.94344   0.00000  Uiso   1.00
H1204  H     0.32443   0.41876   0.94182   0.00000  Uiso   1.00
C1205  C     0.34918   0.34993   0.96122   0.00000  Uiso   1.00
H1206  H     0.38396   0.35854   0.95221   0.00000  Uiso   1.00
H1207  H     0.34605   0.35493   0.66871   0.00000  Uiso   1.00
H1208  H     0.34213   0.31263   0.95157   0.00000  Uiso   1.00
O1209  O     0.29519   0.12790   0.90919   0.00000  Uiso   1.00
C1210  C     0.34201   0.12780   0.90532   0.00000  Uiso   1.00
H1211  H     0.35080   0.13921   0.86779   0.00000  Uiso   1.00
H1212  H     0.35667   0.09256   0.91279   0.00000  Uiso   1.00
C1213  C     0.36347   0.16183   0.94356   0.00000  Uiso   1.00
H1214  H     0.35630   0.15071   0.98204   0.00000  Uiso   1.00
H1215  H     0.40030   0.16247   0.94042   0.00000  Uiso   1.00
H1216  H     0.35006   0.19776   0.93672   0.00000  Uiso   1.00
O1217  O     0.18445   0.37423   0.77949   0.00000  Uiso   1.00
C1218  C     0.19507   0.38372   0.72970   0.00000  Uiso   1.00
H1219  H     0.23036   0.37384   0.72352   0.00000  Uiso   1.00
H1220  H     0.19020   0.42156   0.72066   0.00000  Uiso   1.00
C1221  C     0.16449   0.35556   0.69341   0.00000  Uiso   1.00
H1222  H     0.12946   0.36779   0.69540   0.00000  Uiso   1.00
H1223  H     0.17470   0.36066   0.98790   0.00000  Uiso   1.00
H1224  H     0.16657   0.31764   0.70279   0.00000  Uiso   1.00
O1225  O     0.02103   0.29728   0.75255   0.00000  Uiso   1.00
C1226  C     0.03850   0.29398   0.70485   0.00000  Uiso   1.00
H1227  H     0.01057   0.29916   0.67618   0.00000  Uiso   1.00
H1228  H     0.05390   0.25921   0.69729   0.00000  Uiso   1.00
H1229  H     0.06313   0.32237   0.70001   0.00000  Uiso   1.00
O1230  O     0.46624   0.16879   0.76644   0.00000  Uiso   1.00
C1231  C     0.46556   0.18032   0.71515   0.00000  Uiso   1.00
H1232  H     0.48850   0.20996   0.70871   0.00000  Uiso   1.00
H1233  H     0.43120   0.18875   0.69934   0.00000  Uiso   1.00
H1234  H     0.47746   0.14948   0.69453   0.00000  Uiso   1.00
O1235  O     0.48570   0.31664   0.85201   0.00000  Uiso   1.00
C1236  C     0.49414   0.31481   0.90437   0.00000  Uiso   1.00
H1237  H     0.02084   0.28881   0.91419   0.00000  Uiso   1.00
H1238  H     0.46361   0.30713   0.92474   0.00000  Uiso   1.00
H1239  H     0.00684   0.34956   0.91741   0.00000  Uiso   1.00
O1240  O     0.02333   0.17262   0.87381   0.00000  Uiso   1.00
C1241  C     0.01382   0.18930   0.92162   0.00000  Uiso   1.00
H1242  H     0.48494   0.21378   0.91872   0.00000  Uiso   1.00
H1243  H     0.04329   0.20602   0.94204   0.00000  Uiso   1.00
H1244  H     0.00394   0.15897   0.94434   0.00000  Uiso   1.00
O1245  O     0.10935   0.32007   0.78404   0.00000  Uiso   1.00
C1246  C     0.09437   0.35797   0.81283   0.00000  Uiso   1.00
H1247  H     0.05729   0.35949   0.81358   0.00000  Uiso   1.00
H1248  H     0.10451   0.39137   0.79565   0.00000  Uiso   1.00
H1249  H     0.10989   0.35644   0.85171   0.00000  Uiso   1.00
O1250  O     0.37077   0.17786   0.77118   0.00000  Uiso   1.00
C1251  C     0.38239   0.13005   0.77766   0.00000  Uiso   1.00
H1252  H     0.40470   0.12292   0.81176   0.00000  Uiso   1.00
H1253  H     0.39800   0.11681   0.74388   0.00000  Uiso   1.00
H1254  H     0.35119   0.10955   0.78109   0.00000  Uiso   1.00
O1255  O     0.39498   0.32708   0.85346   0.00000  Uiso   1.00
C1256  C     0.39514   0.36031   0.81426   0.00000  Uiso   1.00
H1257  H     0.42772   0.36233   0.79645   0.00000  Uiso   1.00
H1258  H     0.38930   0.39538   0.83023   0.00000  Uiso   1.00
H1259  H     0.36773   0.35282   0.78532   0.00000  Uiso   1.00
O1260  O     0.11887   0.18426   0.89167   0.00000  Uiso   1.00
C1261  C     0.10928   0.13569   0.88913   0.00000  Uiso   1.00
H1262  H     0.09247   0.12405   0.85288   0.00000  Uiso   1.00
H1263  H     0.08857   0.12571   0.92041   0.00000  Uiso   1.00
H1264  H     0.14127   0.11606   0.89431   0.00000  Uiso   1.00
O1265  O     0.19641   0.03053   0.76055   0.00000  Uiso   1.00
C1266  C     0.21457   0.02976   0.71338   0.00000  Uiso   1.00
H1267  H     0.23651   0.49848   0.71133   0.00000  Uiso   1.00
H1268  H     0.23395   0.06199   0.70558   0.00000  Uiso   1.00
C1269  C     0.17623   0.02543   0.67330   0.00000  Uiso   1.00
H1270  H     0.15400   0.05653   0.67429   0.00000  Uiso   1.00
H1271  H     0.18929   0.02336   0.96890   0.00000  Uiso   1.00
H1272  H     0.15632   0.49336   0.67971   0.00000  Uiso   1.00
O1273  O     0.33099   0.46743   0.85200   0.00000  Uiso   1.00
C1274  C     0.34451   0.48204   0.80476   0.00000  Uiso   1.00
H1275  H     0.32164   0.00908   0.78762   0.00000  Uiso   1.00
H1276  H     0.34582   0.45176   0.77854   0.00000  Uiso   1.00
C1277  C     0.39088   0.00384   0.81139   0.00000  Uiso   1.00
H1278  H     0.41539   0.47771   0.82720   0.00000  Uiso   1.00
H1279  H     0.40165   0.01598   0.77457   0.00000  Uiso   1.00
H1280  H     0.39020   0.03434   0.83719   0.00000  Uiso   1.00
O1281  O     0.30182   0.02987   0.90660   0.00000  Uiso   1.00
C1282  C     0.28378   0.02912   0.95383   0.00000  Uiso   1.00
H1283  H     0.26198   0.49775   0.95599   0.00000  Uiso   1.00
H1284  H     0.26433   0.06131   0.96163   0.00000  Uiso   1.00
C1285  C     0.32220   0.02500   0.99384   0.00000  Uiso   1.00
H1286  H     0.34429   0.05621   0.99286   0.00000  Uiso   1.00
H1287  H     0.30919   0.02284   0.69825   0.00000  Uiso   1.00
H1288  H     0.34225   0.49304   0.98741   0.00000  Uiso   1.00
O1289  O     0.16836   0.46602   0.81209   0.00000  Uiso   1.00
C1290  C     0.15168   0.47567   0.85920   0.00000  Uiso   1.00
H1291  H     0.17455   0.49918   0.88209   0.00000  Uiso   1.00
H1292  H     0.14674   0.44250   0.88018   0.00000  Uiso   1.00
C1293  C     0.10679   0.00043   0.85134   0.00000  Uiso   1.00
H1294  H     0.08252   0.47756   0.82971   0.00000  Uiso   1.00
H1295  H     0.09348   0.00862   0.88818   0.00000  Uiso   1.00
H1296  H     0.11091   0.03368   0.83047   0.00000  Uiso   1.00
O1297  O     0.68453   0.28974   0.83334   0.00000  Uiso   1.00
O1298  O     0.81547   0.21026   0.83333   0.00000  Uiso   1.00
O1299  O     0.81547   0.28974   0.83333   0.00000  Uiso   1.00
O1300  O     0.68453   0.21026   0.83334   0.00000  Uiso   1.00
C1301  C     0.66370   0.24981   0.83438   0.00000  Uiso   1.00
C1302  C     0.83606   0.24978   0.83024   0.00000  Uiso   1.00
O1303  O     0.75000   0.28973   0.76178   0.00000  Uiso   1.00
O1304  O     0.75000   0.21027   0.90489   0.00000  Uiso   1.00
O1305  O     0.75000   0.28973   0.90489   0.00000  Uiso   1.00
O1306  O     0.75000   0.21027   0.76178   0.00000  Uiso   1.00
C1307  C     0.72466   0.05307   0.79568   0.00000  Uiso   1.00
C1308  C     0.78904   0.44698   0.84607   0.00000  Uiso   1.00
C1309  C     0.77366   0.05281   0.87167   0.00000  Uiso   1.00
C1310  C     0.71041   0.44628   0.81952   0.00000  Uiso   1.00
C1311  C     0.74973   0.25000   0.73955   0.00000  Uiso   1.00
C1312  C     0.75030   0.25001   0.92712   0.00000  Uiso   1.00
Zn1313 Zn    0.75000   0.30307   0.83333   0.00000  Uiso   1.00
Zn1314 Zn    0.75000   0.19693   0.83333   0.00000  Uiso   1.00
N1315  N     0.75000   0.12623   0.83333   0.00000  Uiso   1.00
N1316  N     0.75000   0.37376   0.83333   0.00000  Uiso   1.00
C1317  C     0.74892   0.02695   0.83374   0.00000  Uiso   1.00
C1318  C     0.74936   0.47325   0.83329   0.00000  Uiso   1.00
C1319  C     0.74994   0.25000   0.68846   0.00000  Uiso   1.00
C1320  C     0.75015   0.25001   0.97822   0.00000  Uiso   1.00
C1321  C     0.54566   0.26935   0.78672   0.00000  Uiso   1.00
C1322  C     0.94752   0.20544   0.79181   0.00000  Uiso   1.00
C1323  C     0.95793   0.27979   0.83656   0.00000  Uiso   1.00
C1324  C     0.54663   0.20653   0.84901   0.00000  Uiso   1.00
C1325  C     0.59027   0.27940   0.80083   0.00000  Uiso   1.00
C1326  C     0.90089   0.20836   0.79654   0.00000  Uiso   1.00
C1327  C     0.91187   0.28540   0.83647   0.00000  Uiso   1.00
C1328  C     0.59364   0.21056   0.85605   0.00000  Uiso   1.00
C1329  C     0.61500   0.24790   0.83206   0.00000  Uiso   1.00
C1330  C     0.88364   0.24803   0.82115   0.00000  Uiso   1.00
C1331  C     0.52354   0.23581   0.81400   0.00000  Uiso   1.00
C1332  C     0.97539   0.23971   0.81455   0.00000  Uiso   1.00
C1333  C     0.72499   0.10285   0.79690   0.00000  Uiso   1.00
C1334  C     0.78560   0.39810   0.85430   0.00000  Uiso   1.00
C1335  C     0.77430   0.10259   0.87016   0.00000  Uiso   1.00
C1336  C     0.71486   0.39766   0.81109   0.00000  Uiso   1.00
O1337  O     0.70368   0.12839   0.75830   0.00000  Uiso   1.00
C1338  C     0.65695   0.12837   0.76302   0.00000  Uiso   1.00
H1339  H     0.64880   0.13834   0.80130   0.00000  Uiso   1.00
H1340  H     0.64202   0.09348   0.75434   0.00000  Uiso   1.00
C1341  C     0.63513   0.16370   0.72643   0.00000  Uiso   1.00
H1342  H     0.64091   0.15326   0.68734   0.00000  Uiso   1.00
H1343  H     0.59850   0.16507   0.73094   0.00000  Uiso   1.00
H1344  H     0.64945   0.19919   0.73361   0.00000  Uiso   1.00
O1345  O     0.81968   0.37413   0.88009   0.00000  Uiso   1.00
C1346  C     0.81619   0.38172   0.93186   0.00000  Uiso   1.00
H1347  H     0.78190   0.37342   0.94344   0.00000  Uiso   1.00
H1348  H     0.82443   0.41876   0.94182   0.00000  Uiso   1.00
C1349  C     0.84918   0.34993   0.96122   0.00000  Uiso   1.00
H1350  H     0.88396   0.35854   0.95221   0.00000  Uiso   1.00
H1351  H     0.84605   0.35493   0.66871   0.00000  Uiso   1.00
H1352  H     0.84213   0.31263   0.95157   0.00000  Uiso   1.00
O1353  O     0.79519   0.12790   0.90919   0.00000  Uiso   1.00
C1354  C     0.84201   0.12780   0.90532   0.00000  Uiso   1.00
H1355  H     0.85080   0.13921   0.86779   0.00000  Uiso   1.00
H1356  H     0.85667   0.09256   0.91279   0.00000  Uiso   1.00
C1357  C     0.86347   0.16183   0.94356   0.00000  Uiso   1.00
H1358  H     0.85630   0.15071   0.98204   0.00000  Uiso   1.00
H1359  H     0.90030   0.16247   0.94042   0.00000  Uiso   1.00
H1360  H     0.85006   0.19776   0.93672   0.00000  Uiso   1.00
O1361  O     0.68445   0.37423   0.77949   0.00000  Uiso   1.00
C1362  C     0.69507   0.38372   0.72970   0.00000  Uiso   1.00
H1363  H     0.73036   0.37384   0.72352   0.00000  Uiso   1.00
H1364  H     0.69020   0.42156   0.72066   0.00000  Uiso   1.00
C1365  C     0.66449   0.35556   0.69341   0.00000  Uiso   1.00
H1366  H     0.62946   0.36779   0.69540   0.00000  Uiso   1.00
H1367  H     0.67470   0.36066   0.98790   0.00000  Uiso   1.00
H1368  H     0.66657   0.31764   0.70279   0.00000  Uiso   1.00
O1369  O     0.52103   0.29728   0.75255   0.00000  Uiso   1.00
C1370  C     0.53850   0.29398   0.70485   0.00000  Uiso   1.00
H1371  H     0.51057   0.29916   0.67618   0.00000  Uiso   1.00
H1372  H     0.55390   0.25921   0.69729   0.00000  Uiso   1.00
H1373  H     0.56313   0.32237   0.70001   0.00000  Uiso   1.00
O1374  O     0.96624   0.16879   0.76644   0.00000  Uiso   1.00
C1375  C     0.96556   0.18032   0.71515   0.00000  Uiso   1.00
H1376  H     0.98850   0.20996   0.70871   0.00000  Uiso   1.00
H1377  H     0.93120   0.18875   0.69934   0.00000  Uiso   1.00
H1378  H     0.97746   0.14948   0.69453   0.00000  Uiso   1.00
O1379  O     0.98570   0.31664   0.85201   0.00000  Uiso   1.00
C1380  C     0.99414   0.31481   0.90437   0.00000  Uiso   1.00
H1381  H     0.52084   0.28881   0.91419   0.00000  Uiso   1.00
H1382  H     0.96361   0.30713   0.92474   0.00000  Uiso   1.00
H1383  H     0.50684   0.34956   0.91741   0.00000  Uiso   1.00
O1384  O     0.52333   0.17262   0.87381   0.00000  Uiso   1.00
C1385  C     0.51382   0.18930   0.92162   0.00000  Uiso   1.00
H1386  H     0.98494   0.21378   0.91872   0.00000  Uiso   1.00
H1387  H     0.54329   0.20602   0.94204   0.00000  Uiso   1.00
H1388  H     0.50394   0.15897   0.94434   0.00000  Uiso   1.00
O1389  O     0.60935   0.32007   0.78404   0.00000  Uiso   1.00
C1390  C     0.59437   0.35797   0.81283   0.00000  Uiso   1.00
H1391  H     0.55729   0.35949   0.81358   0.00000  Uiso   1.00
H1392  H     0.60451   0.39137   0.79565   0.00000  Uiso   1.00
H1393  H     0.60989   0.35644   0.85171   0.00000  Uiso   1.00
O1394  O     0.87077   0.17786   0.77118   0.00000  Uiso   1.00
C1395  C     0.88239   0.13005   0.77766   0.00000  Uiso   1.00
H1396  H     0.90470   0.12292   0.81176   0.00000  Uiso   1.00
H1397  H     0.89800   0.11681   0.74388   0.00000  Uiso   1.00
H1398  H     0.85119   0.10955   0.78109   0.00000  Uiso   1.00
O1399  O     0.89498   0.32708   0.85346   0.00000  Uiso   1.00
C1400  C     0.89514   0.36031   0.81426   0.00000  Uiso   1.00
H1401  H     0.92772   0.36233   0.79645   0.00000  Uiso   1.00
H1402  H     0.88930   0.39538   0.83023   0.00000  Uiso   1.00
H1403  H     0.86773   0.35282   0.78532   0.00000  Uiso   1.00
O1404  O     0.61887   0.18426   0.89167   0.00000  Uiso   1.00
C1405  C     0.60928   0.13569   0.88913   0.00000  Uiso   1.00
H1406  H     0.59247   0.12405   0.85288   0.00000  Uiso   1.00
H1407  H     0.58857   0.12571   0.92041   0.00000  Uiso   1.00
H1408  H     0.64127   0.11606   0.89431   0.00000  Uiso   1.00
O1409  O     0.69641   0.03053   0.76055   0.00000  Uiso   1.00
C1410  C     0.71457   0.02976   0.71338   0.00000  Uiso   1.00
H1411  H     0.73651   0.49848   0.71133   0.00000  Uiso   1.00
H1412  H     0.73395   0.06199   0.70558   0.00000  Uiso   1.00
C1413  C     0.67623   0.02543   0.67330   0.00000  Uiso   1.00
H1414  H     0.65400   0.05653   0.67429   0.00000  Uiso   1.00
H1415  H     0.68929   0.02336   0.96890   0.00000  Uiso   1.00
H1416  H     0.65632   0.49336   0.67971   0.00000  Uiso   1.00
O1417  O     0.83099   0.46743   0.85200   0.00000  Uiso   1.00
C1418  C     0.84451   0.48204   0.80476   0.00000  Uiso   1.00
H1419  H     0.82164   0.00908   0.78762   0.00000  Uiso   1.00
H1420  H     0.84582   0.45176   0.77854   0.00000  Uiso   1.00
C1421  C     0.89088   0.00384   0.81139   0.00000  Uiso   1.00
H1422  H     0.91539   0.47771   0.82720   0.00000  Uiso   1.00
H1423  H     0.90165   0.01598   0.77457   0.00000  Uiso   1.00
H1424  H     0.89020   0.03434   0.83719   0.00000  Uiso   1.00
O1425  O     0.80182   0.02987   0.90660   0.00000  Uiso   1.00
C1426  C     0.78378   0.02912   0.95383   0.00000  Uiso   1.00
H1427  H     0.76198   0.49775   0.95599   0.00000  Uiso   1.00
H1428  H     0.76433   0.06131   0.96163   0.00000  Uiso   1.00
C1429  C     0.82220   0.02500   0.99384   0.00000  Uiso   1.00
H1430  H     0.84429   0.05621   0.99286   0.00000  Uiso   1.00
H1431  H     0.80919   0.02284   0.69825   0.00000  Uiso   1.00
H1432  H     0.84225   0.49304   0.98741   0.00000  Uiso   1.00
O1433  O     0.66836   0.46602   0.81209   0.00000  Uiso   1.00
C1434  C     0.65168   0.47567   0.85920   0.00000  Uiso   1.00
H1435  H     0.67455   0.49918   0.88209   0.00000  Uiso   1.00
H1436  H     0.64674   0.44250   0.88018   0.00000  Uiso   1.00
C1437  C     0.60679   0.00043   0.85134   0.00000  Uiso   1.00
H1438  H     0.58252   0.47756   0.82971   0.00000  Uiso   1.00
H1439  H     0.59348   0.00862   0.88818   0.00000  Uiso   1.00
H1440  H     0.61091   0.03368   0.83047   0.00000  Uiso   1.00
O1441  O     0.18453   0.78974   0.83334   0.00000  Uiso   1.00
O1442  O     0.31547   0.71026   0.83333   0.00000  Uiso   1.00
O1443  O     0.31547   0.78974   0.83333   0.00000  Uiso   1.00
O1444  O     0.18453   0.71026   0.83334   0.00000  Uiso   1.00
C1445  C     0.16370   0.74981   0.83438   0.00000  Uiso   1.00
C1446  C     0.33606   0.74978   0.83024   0.00000  Uiso   1.00
O1447  O     0.25000   0.78973   0.76178   0.00000  Uiso   1.00
O1448  O     0.25000   0.71027   0.90489   0.00000  Uiso   1.00
O1449  O     0.25000   0.78973   0.90489   0.00000  Uiso   1.00
O1450  O     0.25000   0.71027   0.76178   0.00000  Uiso   1.00
C1451  C     0.22466   0.55307   0.79568   0.00000  Uiso   1.00
C1452  C     0.28904   0.94698   0.84607   0.00000  Uiso   1.00
C1453  C     0.27366   0.55281   0.87167   0.00000  Uiso   1.00
C1454  C     0.21041   0.94628   0.81952   0.00000  Uiso   1.00
C1455  C     0.24973   0.75000   0.73955   0.00000  Uiso   1.00
C1456  C     0.25030   0.75001   0.92712   0.00000  Uiso   1.00
Zn1457 Zn    0.25000   0.80307   0.83333   0.00000  Uiso   1.00
Zn1458 Zn    0.25000   0.69693   0.83333   0.00000  Uiso   1.00
N1459  N     0.25000   0.62623   0.83333   0.00000  Uiso   1.00
N1460  N     0.25000   0.87376   0.83333   0.00000  Uiso   1.00
C1461  C     0.24892   0.52695   0.83374   0.00000  Uiso   1.00
C1462  C     0.24936   0.97325   0.83329   0.00000  Uiso   1.00
C1463  C     0.24994   0.75000   0.68846   0.00000  Uiso   1.00
C1464  C     0.25015   0.75001   0.97822   0.00000  Uiso   1.00
C1465  C     0.04566   0.76935   0.78672   0.00000  Uiso   1.00
C1466  C     0.44752   0.70544   0.79181   0.00000  Uiso   1.00
C1467  C     0.45793   0.77979   0.83656   0.00000  Uiso   1.00
C1468  C     0.04663   0.70653   0.84901   0.00000  Uiso   1.00
C1469  C     0.09027   0.77940   0.80083   0.00000  Uiso   1.00
C1470  C     0.40089   0.70836   0.79654   0.00000  Uiso   1.00
C1471  C     0.41187   0.78540   0.83647   0.00000  Uiso   1.00
C1472  C     0.09364   0.71056   0.85605   0.00000  Uiso   1.00
C1473  C     0.11500   0.74790   0.83206   0.00000  Uiso   1.00
C1474  C     0.38364   0.74803   0.82115   0.00000  Uiso   1.00
C1475  C     0.02354   0.73581   0.81400   0.00000  Uiso   1.00
C1476  C     0.47539   0.73971   0.81455   0.00000  Uiso   1.00
C1477  C     0.22499   0.60285   0.79690   0.00000  Uiso   1.00
C1478  C     0.28560   0.89810   0.85430   0.00000  Uiso   1.00
C1479  C     0.27430   0.60259   0.87016   0.00000  Uiso   1.00
C1480  C     0.21486   0.89766   0.81109   0.00000  Uiso   1.00
O1481  O     0.20368   0.62839   0.75830   0.00000  Uiso   1.00
C1482  C     0.15695   0.62837   0.76302   0.00000  Uiso   1.00
H1483  H     0.14880   0.63834   0.80130   0.00000  Uiso   1.00
H1484  H     0.14202   0.59348   0.75434   0.00000  Uiso   1.00
C1485  C     0.13513   0.66370   0.72643   0.00000  Uiso   1.00
H1486  H     0.14091   0.65326   0.68734   0.00000  Uiso   1.00
H1487  H     0.09850   0.66507   0.73094   0.00000  Uiso   1.00
H1488  H     0.14945   0.69919   0.73361   0.00000  Uiso   1.00
O1489  O     0.31968   0.87413   0.88009   0.00000  Uiso   1.00
C1490  C     0.31619   0.88172   0.93186   0.00000  Uiso   1.00
H1491  H     0.28190   0.87342   0.94344   0.00000  Uiso   1.00
H1492  H     0.32443   0.91876   0.94182   0.00000  Uiso   1.00
C1493  C     0.34918   0.84993   0.96122   0.00000  Uiso   1.00
H1494  H     0.38396   0.85854   0.95221   0.00000  Uiso   1.00
H1495  H     0.34605   0.85493   0.66871   0.00000  Uiso   1.00
H1496  H     0.34213   0.81263   0.95157   0.00000  Uiso   1.00
O1497  O     0.29519   0.62790   0.90919   0.00000  Uiso   1.00
C1498  C     0.34201   0.62780   0.90532   0.00000  Uiso   1.00
H1499  H     0.35080   0.63921   0.86779   0.00000  Uiso   1.00
H1500  H     0.35667   0.59256   0.91279   0.00000  Uiso   1.00
C1501  C     0.36347   0.66183   0.94356   0.00000  Uiso   1.00
H1502  H     0.35630   0.65071   0.98204   0.00000  Uiso   1.00
H1503  H     0.40030   0.66247   0.94042   0.00000  Uiso   1.00
H1504  H     0.35006   0.69776   0.93672   0.00000  Uiso   1.00
O1505  O     0.18445   0.87423   0.77949   0.00000  Uiso   1.00
C1506  C     0.19507   0.88372   0.72970   0.00000  Uiso   1.00
H1507  H     0.23036   0.87384   0.72352   0.00000  Uiso   1.00
H1508  H     0.19020   0.92156   0.72066   0.00000  Uiso   1.00
C1509  C     0.16449   0.85556   0.69341   0.00000  Uiso   1.00
H1510  H     0.12946   0.86779   0.69540   0.00000  Uiso   1.00
H1511  H     0.17470   0.86066   0.98790   0.00000  Uiso   1.00
H1512  H     0.16657   0.81764   0.70279   0.00000  Uiso   1.00
O1513  O     0.02103   0.79728   0.75255   0.00000  Uiso   1.00
C1514  C     0.03850   0.79398   0.70485   0.00000  Uiso   1.00
H1515  H     0.01057   0.79916   0.67618   0.00000  Uiso   1.00
H1516  H     0.05390   0.75921   0.69729   0.00000  Uiso   1.00
H1517  H     0.06313   0.82237   0.70001   0.00000  Uiso   1.00
O1518  O     0.46624   0.66879   0.76644   0.00000  Uiso   1.00
C1519  C     0.46556   0.68032   0.71515   0.00000  Uiso   1.00
H1520  H     0.48850   0.70996   0.70871   0.00000  Uiso   1.00
H1521  H     0.43120   0.68875   0.69934   0.00000  Uiso   1.00
H1522  H     0.47746   0.64948   0.69453   0.00000  Uiso   1.00
O1523  O     0.48570   0.81664   0.85201   0.00000  Uiso   1.00
C1524  C     0.49414   0.81481   0.90437   0.00000  Uiso   1.00
H1525  H     0.02084   0.78881   0.91419   0.00000  Uiso   1.00
H1526  H     0.46361   0.80713   0.92474   0.00000  Uiso   1.00
H1527  H     0.00684   0.84956   0.91741   0.00000  Uiso   1.00
O1528  O     0.02333   0.67262   0.87381   0.00000  Uiso   1.00
C1529  C     0.01382   0.68930   0.92162   0.00000  Uiso   1.00
H1530  H     0.48494   0.71378   0.91872   0.00000  Uiso   1.00
H1531  H     0.04329   0.70602   0.94204   0.00000  Uiso   1.00
H1532  H     0.00394   0.65897   0.94434   0.00000  Uiso   1.00
O1533  O     0.10935   0.82007   0.78404   0.00000  Uiso   1.00
C1534  C     0.09437   0.85797   0.81283   0.00000  Uiso   1.00
H1535  H     0.05729   0.85949   0.81358   0.00000  Uiso   1.00
H1536  H     0.10451   0.89137   0.79565   0.00000  Uiso   1.00
H1537  H     0.10989   0.85644   0.85171   0.00000  Uiso   1.00
O1538  O     0.37077   0.67786   0.77118   0.00000  Uiso   1.00
C1539  C     0.38239   0.63005   0.77766   0.00000  Uiso   1.00
H1540  H     0.40470   0.62292   0.81176   0.00000  Uiso   1.00
H1541  H     0.39800   0.61681   0.74388   0.00000  Uiso   1.00
H1542  H     0.35119   0.60955   0.78109   0.00000  Uiso   1.00
O1543  O     0.39498   0.82708   0.85346   0.00000  Uiso   1.00
C1544  C     0.39514   0.86031   0.81426   0.00000  Uiso   1.00
H1545  H     0.42772   0.86233   0.79645   0.00000  Uiso   1.00
H1546  H     0.38930   0.89538   0.83023   0.00000  Uiso   1.00
H1547  H     0.36773   0.85282   0.78532   0.00000  Uiso   1.00
O1548  O     0.11887   0.68426   0.89167   0.00000  Uiso   1.00
C1549  C     0.10928   0.63569   0.88913   0.00000  Uiso   1.00
H1550  H     0.09247   0.62405   0.85288   0.00000  Uiso   1.00
H1551  H     0.08857   0.62571   0.92041   0.00000  Uiso   1.00
H1552  H     0.14127   0.61606   0.89431   0.00000  Uiso   1.00
O1553  O     0.19641   0.53053   0.76055   0.00000  Uiso   1.00
C1554  C     0.21457   0.52976   0.71338   0.00000  Uiso   1.00
H1555  H     0.23651   0.99848   0.71133   0.00000  Uiso   1.00
H1556  H     0.23395   0.56199   0.70558   0.00000  Uiso   1.00
C1557  C     0.17623   0.52543   0.67330   0.00000  Uiso   1.00
H1558  H     0.15400   0.55653   0.67429   0.00000  Uiso   1.00
H1559  H     0.18929   0.52336   0.96890   0.00000  Uiso   1.00
H1560  H     0.15632   0.99336   0.67971   0.00000  Uiso   1.00
O1561  O     0.33099   0.96743   0.85200   0.00000  Uiso   1.00
C1562  C     0.34451   0.98204   0.80476   0.00000  Uiso   1.00
H1563  H     0.32164   0.50908   0.78762   0.00000  Uiso   1.00
H1564  H     0.34582   0.95176   0.77854   0.00000  Uiso   1.00
C1565  C     0.39088   0.50384   0.81139   0.00000  Uiso   1.00
H1566  H     0.41539   0.97771   0.82720   0.00000  Uiso   1.00
H1567  H     0.40165   0.51598   0.77457   0.00000  Uiso   1.00
H1568  H     0.39020   0.53434   0.83719   0.00000  Uiso   1.00
O1569  O     0.30182   0.52987   0.90660   0.00000  Uiso   1.00
C1570  C     0.28378   0.52912   0.95383   0.00000  Uiso   1.00
H1571  H     0.26198   0.99775   0.95599   0.00000  Uiso   1.00
H1572  H     0.26433   0.56131   0.96163   0.00000  Uiso   1.00
C1573  C     0.32220   0.52500   0.99384   0.00000  Uiso   1.00
H1574  H     0.34429   0.55621   0.99286   0.00000  Uiso   1.00
H1575  H     0.30919   0.52284   0.69825   0.00000  Uiso   1.00
H1576  H     0.34225   0.99304   0.98741   0.00000  Uiso   1.00
O1577  O     0.16836   0.96602   0.81209   0.00000  Uiso   1.00
C1578  C     0.15168   0.97567   0.85920   0.00000  Uiso   1.00
H1579  H     0.17455   0.99918   0.88209   0.00000  Uiso   1.00
H1580  H     0.14674   0.94250   0.88018   0.00000  Uiso   1.00
C1581  C     0.10679   0.50043   0.85134   0.00000  Uiso   1.00
H1582  H     0.08252   0.97756   0.82971   0.00000  Uiso   1.00
H1583  H     0.09348   0.50862   0.88818   0.00000  Uiso   1.00
H1584  H     0.11091   0.53368   0.83047   0.00000  Uiso   1.00
O1585  O     0.68453   0.78974   0.83334   0.00000  Uiso   1.00
O1586  O     0.81547   0.71026   0.83333   0.00000  Uiso   1.00
O1587  O     0.81547   0.78974   0.83333   0.00000  Uiso   1.00
O1588  O     0.68453   0.71026   0.83334   0.00000  Uiso   1.00
C1589  C     0.66370   0.74981   0.83438   0.00000  Uiso   1.00
C1590  C     0.83606   0.74978   0.83024   0.00000  Uiso   1.00
O1591  O     0.75000   0.78973   0.76178   0.00000  Uiso   1.00
O1592  O     0.75000   0.71027   0.90489   0.00000  Uiso   1.00
O1593  O     0.75000   0.78973   0.90489   0.00000  Uiso   1.00
O1594  O     0.75000   0.71027   0.76178   0.00000  Uiso   1.00
C1595  C     0.72466   0.55307   0.79568   0.00000  Uiso   1.00
C1596  C     0.78904   0.94698   0.84607   0.00000  Uiso   1.00
C1597  C     0.77366   0.55281   0.87167   0.00000  Uiso   1.00
C1598  C     0.71041   0.94628   0.81952   0.00000  Uiso   1.00
C1599  C     0.74973   0.75000   0.73955   0.00000  Uiso   1.00
C1600  C     0.75030   0.75001   0.92712   0.00000  Uiso   1.00
Zn1601 Zn    0.75000   0.80307   0.83333   0.00000  Uiso   1.00
Zn1602 Zn    0.75000   0.69693   0.83333   0.00000  Uiso   1.00
N1603  N     0.75000   0.62623   0.83333   0.00000  Uiso   1.00
N1604  N     0.75000   0.87376   0.83333   0.00000  Uiso   1.00
C1605  C     0.74892   0.52695   0.83374   0.00000  Uiso   1.00
C1606  C     0.74936   0.97325   0.83329   0.00000  Uiso   1.00
C1607  C     0.74994   0.75000   0.68846   0.00000  Uiso   1.00
C1608  C     0.75015   0.75001   0.97822   0.00000  Uiso   1.00
C1609  C     0.54566   0.76935   0.78672   0.00000  Uiso   1.00
C1610  C     0.94752   0.70544   0.79181   0.00000  Uiso   1.00
C1611  C     0.95793   0.77979   0.83656   0.00000  Uiso   1.00
C1612  C     0.54663   0.70653   0.84901   0.00000  Uiso   1.00
C1613  C     0.59027   0.77940   0.80083   0.00000  Uiso   1.00
C1614  C     0.90089   0.70836   0.79654   0.00000  Uiso   1.00
C1615  C     0.91187   0.78540   0.83647   0.00000  Uiso   1.00
C1616  C     0.59364   0.71056   0.85605   0.00000  Uiso   1.00
C1617  C     0.61500   0.74790   0.83206   0.00000  Uiso   1.00
C1618  C     0.88364   0.74803   0.82115   0.00000  Uiso   1.00
C1619  C     0.52354   0.73581   0.81400   0.00000  Uiso   1.00
C1620  C     0.97539   0.73971   0.81455   0.00000  Uiso   1.00
C1621  C     0.72499   0.60285   0.79690   0.00000  Uiso   1.00
C1622  C     0.78560   0.89810   0.85430   0.00000  Uiso   1.00
C1623  C     0.77430   0.60259   0.87016   0.00000  Uiso   1.00
C1624  C     0.71486   0.89766   0.81109   0.00000  Uiso   1.00
O1625  O     0.70368   0.62839   0.75830   0.00000  Uiso   1.00
C1626  C     0.65695   0.62837   0.76302   0.00000  Uiso   1.00
H1627  H     0.64880   0.63834   0.80130   0.00000  Uiso   1.00
H1628  H     0.64202   0.59348   0.75434   0.00000  Uiso   1.00
C1629  C     0.63513   0.66370   0.72643   0.00000  Uiso   1.00
H1630  H     0.64091   0.65326   0.68734   0.00000  Uiso   1.00
H1631  H     0.59850   0.66507   0.73094   0.00000  Uiso   1.00
H1632  H     0.64945   0.69919   0.73361   0.00000  Uiso   1.00
O1633  O     0.81968   0.87413   0.88009   0.00000  Uiso   1.00
C1634  C     0.81619   0.88172   0.93186   0.00000  Uiso   1.00
H1635  H     0.78190   0.87342   0.94344   0.00000  Uiso   1.00
H1636  H     0.82443   0.91876   0.94182   0.00000  Uiso   1.00
C1637  C     0.84918   0.84993   0.96122   0.00000  Uiso   1.00
H1638  H     0.88396   0.85854   0.95221   0.00000  Uiso   1.00
H1639  H     0.84605   0.85493   0.66871   0.00000  Uiso   1.00
H1640  H     0.84213   0.81263   0.95157   0.00000  Uiso   1.00
O1641  O     0.79519   0.62790   0.90919   0.00000  Uiso   1.00
C1642  C     0.84201   0.62780   0.90532   0.00000  Uiso   1.00
H1643  H     0.85080   0.63921   0.86779   0.00000  Uiso   1.00
H1644  H     0.85667   0.59256   0.91279   0.00000  Uiso   1.00
C1645  C     0.86347   0.66183   0.94356   0.00000  Uiso   1.00
H1646  H     0.85630   0.65071   0.98204   0.00000  Uiso   1.00
H1647  H     0.90030   0.66247   0.94042   0.00000  Uiso   1.00
H1648  H     0.85006   0.69776   0.93672   0.00000  Uiso   1.00
O1649  O     0.68445   0.87423   0.77949   0.00000  Uiso   1.00
C1650  C     0.69507   0.88372   0.72970   0.00000  Uiso   1.00
H1651  H     0.73036   0.87384   0.72352   0.00000  Uiso   1.00
H1652  H     0.69020   0.92156   0.72066   0.00000  Uiso   1.00
C1653  C     0.66449   0.85556   0.69341   0.00000  Uiso   1.00
H1654  H     0.62946   0.86779   0.69540   0.00000  Uiso   1.00
H1655  H     0.67470   0.86066   0.98790   0.00000  Uiso   1.00
H1656  H     0.66657   0.81764   0.70279   0.00000  Uiso   1.00
O1657  O     0.52103   0.79728   0.75255   0.00000  Uiso   1.00
C1658  C     0.53850   0.79398   0.70485   0.00000  Uiso   1.00
H1659  H     0.51057   0.79916   0.67618   0.00000  Uiso   1.00
H1660  H     0.55390   0.75921   0.69729   0.00000  Uiso   1.00
H1661  H     0.56313   0.82237   0.70001   0.00000  Uiso   1.00
O1662  O     0.96624   0.66879   0.76644   0.00000  Uiso   1.00
C1663  C     0.96556   0.68032   0.71515   0.00000  Uiso   1.00
H1664  H     0.98850   0.70996   0.70871   0.00000  Uiso   1.00
H1665  H     0.93120   0.68875   0.69934   0.00000  Uiso   1.00
H1666  H     0.97746   0.64948   0.69453   0.00000  Uiso   1.00
O1667  O     0.98570   0.81664   0.85201   0.00000  Uiso   1.00
C1668  C     0.99414   0.81481   0.90437   0.00000  Uiso   1.00
H1669  H     0.52084   0.78881   0.91419   0.00000  Uiso   1.00
H1670  H     0.96361   0.80713   0.92474   0.00000  Uiso   1.00
H1671  H     0.50684   0.84956   0.91741   0.00000  Uiso   1.00
O1672  O     0.52333   0.67262   0.87381   0.00000  Uiso   1.00
C1673  C     0.51382   0.68930   0.92162   0.00000  Uiso   1.00
H1674  H     0.98494   0.71378   0.91872   0.00000  Uiso   1.00
H1675  H     0.54329   0.70602   0.94204   0.00000  Uiso   1.00
H1676  H     0.50394   0.65897   0.94434   0.00000  Uiso   1.00
O1677  O     0.60935   0.82007   0.78404   0.00000  Uiso   1.00
C1678  C     0.59437   0.85797   0.81283   0.00000  Uiso   1.00
H1679  H     0.55729   0.85949   0.81358   0.00000  Uiso   1.00
H1680  H     0.60451   0.89137   0.79565   0.00000  Uiso   1.00
H1681  H     0.60989   0.85644   0.85171   0.00000  Uiso   1.00
O1682  O     0.87077   0.67786   0.77118   0.00000  Uiso   1.00
C1683  C     0.88239   0.63005   0.77766   0.00000  Uiso   1.00
H1684  H     0.90470   0.62292   0.81176   0.00000  Uiso   1.00
H1685  H     0.89800   0.61681   0.74388   0.00000  Uiso   1.00
H1686  H     0.85119   0.60955   0.78109   0.00000  Uiso   1.00
O1687  O     0.89498   0.82708   0.85346   0.00000  Uiso   1.00
C1688  C     0.89514   0.86031   0.81426   0.00000  Uiso   1.00
H1689  H     0.92772   0.86233   0.79645   0.00000  Uiso   1.00
H1690  H     0.88930   0.89538   0.83023   0.00000  Uiso   1.00
H1691  H     0.86773   0.85282   0.78532   0.00000  Uiso   1.00
O1692  O     0.61887   0.68426   0.89167   0.00000  Uiso   1.00
C1693  C     0.60928   0.63569   0.88913   0.00000  Uiso   1.00
H1694  H     0.59247   0.62405   0.85288   0.00000  Uiso   1.00
H1695  H     0.58857   0.62571   0.92041   0.00000  Uiso   1.00
H1696  H     0.64127   0.61606   0.89431   0.00000  Uiso   1.00
O1697  O     0.69641   0.53053   0.76055   0.00000  Uiso   1.00
C1698  C     0.71457   0.52976   0.71338   0.00000  Uiso   1.00
H1699  H     0.73651   0.99848   0.71133   0.00000  Uiso   1.00
H1700  H     0.73395   0.56199   0.70558   0.00000  Uiso   1.00
C1701  C     0.67623   0.52543   0.67330   0.00000  Uiso   1.00
H1702  H     0.65400   0.55653   0.67429   0.00000  Uiso   1.00
H1703  H     0.68929   0.52336   0.96890   0.00000  Uiso   1.00
H1704  H     0.65632   0.99336   0.67971   0.00000  Uiso   1.00
O1705  O     0.83099   0.96743   0.85200   0.00000  Uiso   1.00
C1706  C     0.84451   0.98204   0.80476   0.00000  Uiso   1.00
H1707  H     0.82164   0.50908   0.78762   0.00000  Uiso   1.00
H1708  H     0.84582   0.95176   0.77854   0.00000  Uiso   1.00
C1709  C     0.89088   0.50384   0.81139   0.00000  Uiso   1.00
H1710  H     0.91539   0.97771   0.82720   0.00000  Uiso   1.00
H1711  H     0.90165   0.51598   0.77457   0.00000  Uiso   1.00
H1712  H     0.89020   0.53434   0.83719   0.00000  Uiso   1.00
O1713  O     0.80182   0.52987   0.90660   0.00000  Uiso   1.00
C1714  C     0.78378   0.52912   0.95383   0.00000  Uiso   1.00
H1715  H     0.76198   0.99775   0.95599   0.00000  Uiso   1.00
H1716  H     0.76433   0.56131   0.96163   0.00000  Uiso   1.00
C1717  C     0.82220   0.52500   0.99384   0.00000  Uiso   1.00
H1718  H     0.84429   0.55621   0.99286   0.00000  Uiso   1.00
H1719  H     0.80919   0.52284   0.69825   0.00000  Uiso   1.00
H1720  H     0.84225   0.99304   0.98741   0.00000  Uiso   1.00
O1721  O     0.66836   0.96602   0.81209   0.00000  Uiso   1.00
C1722  C     0.65168   0.97567   0.85920   0.00000  Uiso   1.00
H1723  H     0.67455   0.99918   0.88209   0.00000  Uiso   1.00
H1724  H     0.64674   0.94250   0.88018   0.00000  Uiso   1.00
C1725  C     0.60679   0.50043   0.85134   0.00000  Uiso   1.00
H1726  H     0.58252   0.97756   0.82971   0.00000  Uiso   1.00
H1727  H     0.59348   0.50862   0.88818   0.00000  Uiso   1.00
H1728  H     0.61091   0.53368   0.83047   0.00000  Uiso   1.00
loop_
_geom_bond_atom_site_label_1
_geom_bond_atom_site_label_2
_geom_bond_distance
_geom_bond_site_symmetry_2
_ccdc_geom_bond_type
O1     C5      1.299   .     A
O1     Zn17    1.996   .     S
O2     Zn18    1.996   .     S
O2     C6      1.289   .     A
O3     C6      1.300   .     A
O3     Zn17    1.996   .     S
O4     Zn18    1.996   .     S
O4     C5      1.289   .     A
C5     C33     1.456   .     S
C6     C34     1.460   .     S
O7     Zn17    1.951   .     S
O7     C15     1.279   .     A
O8     Zn18    1.951   .     S
O8     C16     1.279   .     A
O9     C16     1.279   .     A
O9     Zn17    1.951   .     S
O10    C15     1.279   .     A
O10    Zn18    1.951   .     S
C11    C37     1.419   .     A
C11    C21     1.423   .     A
C11    O113    1.382   .     S
C12    C22     1.427   .     A
C12    O121    1.384   .     S
C12    C38     1.415   .     A
C13    C21     1.423   .     A
C13    C39     1.420   .     A
C13    O129    1.382   .     S
C14    O137    1.381   .     S
C14    C22     1.425   .     A
C14    C40     1.412   .     A
C15    C23     1.367   .     S
C16    C24     1.367   .     S
Zn17   N20     2.015   .     S
Zn18   N19     2.015   .     S
N19    C37     1.364   .     A
N19    C39     1.365   .     A
N20    C40     1.358   .     A
N20    C38     1.362   .     A
C21    C310    1.531   1_545 S
C22    C309    1.531   .     S
C23    C1176   1.166   1_554 S
C24    C599    1.166   .     S
C25    C29     1.394   .     A
C25    C35     1.395   .     A
C25    O73     1.388   .     S
C26    O78     1.383   .     S
C26    C30     1.412   .     A
C26    C36     1.398   .     A
C27    C31     1.388   .     A
C27    C36     1.401   .     A
C27    O83     1.386   .     S
C28    C35     1.403   .     A
C28    O88     1.385   .     S
C28    C32     1.412   .     A
C29    C33     1.405   .     A
C29    O93     1.380   .     S
C30    C34     1.422   .     A
C30    O98     1.396   .     S
C31    O103    1.379   .     S
C31    C34     1.404   .     A
C32    C33     1.416   .     A
C32    O108    1.396   .     S
C35    C180    1.446   1_455 S
C36    C179    1.446   .     S
C37    O41     1.385   .     S
C38    O49     1.376   .     S
C39    O57     1.385   .     S
C40    O65     1.375   .     S
O41    C42     1.412   .     S
C42    H44     1.109   .     S
C42    C45     1.523   .     S
C42    H43     1.104   .     S
C45    H46     1.111   .     S
C45    H47     1.111   .     S
C45    H48     1.110   .     S
O49    C50     1.412   .     S
C50    H52     1.113   .     S
C50    C53     1.521   .     S
C50    H51     1.116   .     S
C53    H56     1.111   .     S
C53    H54     1.111   .     S
C53    H631    1.111   .     S
H55    C1205   1.111   1_554 S
O57    C58     1.411   .     S
C58    H60     1.109   .     S
C58    C61     1.522   .     S
C58    H59     1.103   .     S
C61    H62     1.111   .     S
C61    H64     1.111   .     S
C61    H63     1.111   .     S
O65    C66     1.415   .     S
C66    H68     1.113   .     S
C66    C69     1.520   .     S
C66    H67     1.115   .     S
C69    H70     1.109   .     S
C69    H72     1.111   .     S
C69    H1223   1.111   1_554 S
H71    C645    1.111   .     S
O73    C74     1.412   .     S
C74    H76     1.116   .     S
C74    H77     1.108   .     S
C74    H75     1.108   .     S
O78    C79     1.410   .     S
C79    H81     1.113   .     S
C79    H80     1.109   .     S
C79    H82     1.108   .     S
O83    C84     1.408   .     S
C84    H86     1.115   .     S
C84    H229    1.109   .     S
C84    H231    1.109   .     S
H85    C228    1.109   1_455 S
H87    C228    1.109   1_455 S
O88    C89     1.410   .     S
C89    H91     1.114   .     S
C89    H92     1.108   .     S
C89    H234    1.110   1_455 S
H90    C233    1.110   .     S
O93    C94     1.416   .     S
C94    H97     1.112   .     S
C94    H96     1.108   .     S
C94    H95     1.112   .     S
O98    C99     1.414   .     S
C99    H100    1.114   .     S
C99    H101    1.109   .     S
C99    H102    1.110   .     S
O103   C104    1.413   .     S
C104   H106    1.105   .     S
C104   H105    1.113   .     S
C104   H107    1.112   .     S
O108   C109    1.415   .     S
C109   H111    1.109   .     S
C109   H112    1.110   .     S
C109   H110    1.114   .     S
O113   C114    1.405   .     S
C114   H116    1.113   .     S
C114   C117    1.524   .     S
C114   H403    1.110   1_545 S
H115   C402    1.110   .     S
C117   H118    1.110   .     S
C117   H1271   1.107   1_554 S
C117   H408    1.110   1_545 S
H119   C693    1.107   .     S
H120   C405    1.110   .     S
O121   C122    1.414   .     S
C122   H124    1.114   .     S
C122   H411    1.110   .     S
C122   C413    1.521   .     S
H123   C410    1.110   1_545 S
C125   H128    1.111   .     S
C125   H127    1.111   .     S
C125   C410    1.521   1_545 S
C125   H414    1.110   1_545 S
H126   C413    1.110   .     S
O129   C130    1.405   .     S
C130   H132    1.113   .     S
C130   C133    1.525   .     S
C130   H419    1.111   1_545 S
H131   C418    1.111   .     S
C133   H134    1.110   .     S
C133   H711    1.106   .     S
C133   H424    1.110   1_545 S
H135   C1285   1.106   1_554 S
H136   C421    1.110   .     S
O137   C138    1.411   .     S
C138   H140    1.114   .     S
C138   H139    1.113   .     S
C138   C429    1.520   .     S
C141   H143    1.111   .     S
C141   H144    1.111   .     S
C141   C426    1.520   1_545 S
C141   H430    1.111   1_545 S
H142   C429    1.111   .     S
O145   C149    1.299   .     A
O145   Zn161   1.996   .     S
O146   Zn162   1.996   .     S
O146   C150    1.289   .     A
O147   C150    1.300   .     A
O147   Zn161   1.996   .     S
O148   Zn162   1.996   .     S
O148   C149    1.289   .     A
C149   C177    1.456   .     S
C150   C178    1.460   .     S
O151   Zn161   1.951   .     S
O151   C159    1.279   .     A
O152   Zn162   1.951   .     S
O152   C160    1.279   .     A
O153   C160    1.279   .     A
O153   Zn161   1.951   .     S
O154   C159    1.279   .     A
O154   Zn162   1.951   .     S
C155   C181    1.419   .     A
C155   C165    1.423   .     A
C155   O257    1.382   .     S
C156   C166    1.427   .     A
C156   O265    1.384   .     S
C156   C182    1.415   .     A
C157   C165    1.423   .     A
C157   C183    1.420   .     A
C157   O273    1.382   .     S
C158   O281    1.381   .     S
C158   C166    1.425   .     A
C158   C184    1.412   .     A
C159   C167    1.367   .     S
C160   C168    1.367   .     S
Zn161  N164    2.015   .     S
Zn162  N163    2.015   .     S
N163   C181    1.364   .     A
N163   C183    1.365   .     A
N164   C184    1.358   .     A
N164   C182    1.362   .     A
C165   C454    1.531   1_545 S
C166   C453    1.531   .     S
C167   C1320   1.166   1_554 S
C168   C743    1.166   .     S
C169   C173    1.394   .     A
C169   C179    1.395   .     A
C169   O217    1.388   .     S
C170   O222    1.383   .     S
C170   C174    1.412   .     A
C170   C180    1.398   .     A
C171   C175    1.388   .     A
C171   C180    1.401   .     A
C171   O227    1.386   .     S
C172   C179    1.403   .     A
C172   O232    1.385   .     S
C172   C176    1.412   .     A
C173   C177    1.405   .     A
C173   O237    1.380   .     S
C174   C178    1.422   .     A
C174   O242    1.396   .     S
C175   O247    1.379   .     S
C175   C178    1.404   .     A
C176   C177    1.416   .     A
C176   O252    1.396   .     S
C180   C35     1.446   1_655 S
C181   O185    1.385   .     S
C182   O193    1.376   .     S
C183   O201    1.385   .     S
C184   O209    1.375   .     S
O185   C186    1.412   .     S
C186   H188    1.109   .     S
C186   C189    1.523   .     S
C186   H187    1.104   .     S
C189   H190    1.111   .     S
C189   H191    1.111   .     S
C189   H192    1.110   .     S
O193   C194    1.412   .     S
C194   H196    1.113   .     S
C194   C197    1.521   .     S
C194   H195    1.116   .     S
C197   H200    1.111   .     S
C197   H198    1.111   .     S
C197   H775    1.111   .     S
H199   C1349   1.111   1_554 S
O201   C202    1.411   .     S
C202   H204    1.109   .     S
C202   C205    1.522   .     S
C202   H203    1.103   .     S
C205   H206    1.111   .     S
C205   H208    1.111   .     S
C205   H207    1.111   .     S
O209   C210    1.415   .     S
C210   H212    1.113   .     S
C210   C213    1.520   .     S
C210   H211    1.115   .     S
C213   H214    1.109   .     S
C213   H216    1.111   .     S
C213   H1367   1.111   1_554 S
H215   C789    1.111   .     S
O217   C218    1.412   .     S
C218   H220    1.116   .     S
C218   H221    1.108   .     S
C218   H219    1.108   .     S
O222   C223    1.410   .     S
C223   H225    1.113   .     S
C223   H224    1.109   .     S
C223   H226    1.108   .     S
O227   C228    1.408   .     S
C228   H230    1.115   .     S
C228   H85     1.109   1_655 S
C228   H87     1.109   1_655 S
O232   C233    1.410   .     S
C233   H235    1.114   .     S
C233   H236    1.108   .     S
H234   C89     1.110   1_655 S
O237   C238    1.416   .     S
C238   H241    1.112   .     S
C238   H240    1.108   .     S
C238   H239    1.112   .     S
O242   C243    1.414   .     S
C243   H244    1.114   .     S
C243   H245    1.109   .     S
C243   H246    1.110   .     S
O247   C248    1.413   .     S
C248   H250    1.105   .     S
C248   H249    1.113   .     S
C248   H251    1.112   .     S
O252   C253    1.415   .     S
C253   H255    1.109   .     S
C253   H256    1.110   .     S
C253   H254    1.114   .     S
O257   C258    1.405   .     S
C258   H260    1.113   .     S
C258   C261    1.524   .     S
C258   H547    1.110   1_545 S
H259   C546    1.110   .     S
C261   H262    1.110   .     S
C261   H1415   1.107   1_554 S
C261   H552    1.110   1_545 S
H263   C837    1.107   .     S
H264   C549    1.110   .     S
O265   C266    1.414   .     S
C266   H268    1.114   .     S
C266   H555    1.110   .     S
C266   C557    1.521   .     S
H267   C554    1.110   1_545 S
C269   H272    1.111   .     S
C269   H271    1.111   .     S
C269   C554    1.521   1_545 S
C269   H558    1.110   1_545 S
H270   C557    1.110   .     S
O273   C274    1.405   .     S
C274   H276    1.113   .     S
C274   C277    1.525   .     S
C274   H563    1.111   1_545 S
H275   C562    1.111   .     S
C277   H278    1.110   .     S
C277   H855    1.106   .     S
C277   H568    1.110   1_545 S
H279   C1429   1.106   1_554 S
H280   C565    1.110   .     S
O281   C282    1.411   .     S
C282   H284    1.114   .     S
C282   H283    1.113   .     S
C282   C573    1.520   .     S
C285   H287    1.111   .     S
C285   H288    1.111   .     S
C285   C570    1.520   1_545 S
C285   H574    1.111   1_545 S
H286   C573    1.111   .     S
O289   C293    1.299   .     A
O289   Zn305   1.996   .     S
O290   Zn306   1.996   .     S
O290   C294    1.289   .     A
O291   C294    1.300   .     A
O291   Zn305   1.996   .     S
O292   Zn306   1.996   .     S
O292   C293    1.289   .     A
C293   C321    1.456   .     S
C294   C322    1.460   .     S
O295   Zn305   1.951   .     S
O295   C303    1.279   .     A
O296   Zn306   1.951   .     S
O296   C304    1.279   .     A
O297   C304    1.279   .     A
O297   Zn305   1.951   .     S
O298   C303    1.279   .     A
O298   Zn306   1.951   .     S
C299   C325    1.419   .     A
C299   C309    1.423   .     A
C299   O401    1.382   .     S
C300   C310    1.427   .     A
C300   O409    1.384   .     S
C300   C326    1.415   .     A
C301   C309    1.423   .     A
C301   C327    1.420   .     A
C301   O417    1.382   .     S
C302   O425    1.381   .     S
C302   C310    1.425   .     A
C302   C328    1.412   .     A
C303   C311    1.367   .     S
C304   C312    1.367   .     S
Zn305  N308    2.015   .     S
Zn306  N307    2.015   .     S
N307   C325    1.364   .     A
N307   C327    1.365   .     A
N308   C328    1.358   .     A
N308   C326    1.362   .     A
C310   C21     1.531   1_565 S
C311   C1464   1.166   1_554 S
C312   C887    1.166   .     S
C313   C317    1.394   .     A
C313   C323    1.395   .     A
C313   O361    1.388   .     S
C314   O366    1.383   .     S
C314   C318    1.412   .     A
C314   C324    1.398   .     A
C315   C319    1.388   .     A
C315   C324    1.401   .     A
C315   O371    1.386   .     S
C316   C323    1.403   .     A
C316   O376    1.385   .     S
C316   C320    1.412   .     A
C317   C321    1.405   .     A
C317   O381    1.380   .     S
C318   C322    1.422   .     A
C318   O386    1.396   .     S
C319   O391    1.379   .     S
C319   C322    1.404   .     A
C320   C321    1.416   .     A
C320   O396    1.396   .     S
C323   C468    1.446   1_455 S
C324   C467    1.446   .     S
C325   O329    1.385   .     S
C326   O337    1.376   .     S
C327   O345    1.385   .     S
C328   O353    1.375   .     S
O329   C330    1.412   .     S
C330   H332    1.109   .     S
C330   C333    1.523   .     S
C330   H331    1.104   .     S
C333   H334    1.111   .     S
C333   H335    1.111   .     S
C333   H336    1.110   .     S
O337   C338    1.412   .     S
C338   H340    1.113   .     S
C338   C341    1.521   .     S
C338   H339    1.116   .     S
C341   H344    1.111   .     S
C341   H342    1.111   .     S
C341   H919    1.111   .     S
H343   C1493   1.111   1_554 S
O345   C346    1.411   .     S
C346   H348    1.109   .     S
C346   C349    1.522   .     S
C346   H347    1.103   .     S
C349   H350    1.111   .     S
C349   H352    1.111   .     S
C349   H351    1.111   .     S
O353   C354    1.415   .     S
C354   H356    1.113   .     S
C354   C357    1.520   .     S
C354   H355    1.115   .     S
C357   H358    1.109   .     S
C357   H360    1.111   .     S
C357   H1511   1.111   1_554 S
H359   C933    1.111   .     S
O361   C362    1.412   .     S
C362   H364    1.116   .     S
C362   H365    1.108   .     S
C362   H363    1.108   .     S
O366   C367    1.410   .     S
C367   H369    1.113   .     S
C367   H368    1.109   .     S
C367   H370    1.108   .     S
O371   C372    1.408   .     S
C372   H374    1.115   .     S
C372   H517    1.109   .     S
C372   H519    1.109   .     S
H373   C516    1.109   1_455 S
H375   C516    1.109   1_455 S
O376   C377    1.410   .     S
C377   H379    1.114   .     S
C377   H380    1.108   .     S
C377   H522    1.110   1_455 S
H378   C521    1.110   .     S
O381   C382    1.416   .     S
C382   H385    1.112   .     S
C382   H384    1.108   .     S
C382   H383    1.112   .     S
O386   C387    1.414   .     S
C387   H388    1.114   .     S
C387   H389    1.109   .     S
C387   H390    1.110   .     S
O391   C392    1.413   .     S
C392   H394    1.105   .     S
C392   H393    1.113   .     S
C392   H395    1.112   .     S
O396   C397    1.415   .     S
C397   H399    1.109   .     S
C397   H400    1.110   .     S
C397   H398    1.114   .     S
O401   C402    1.405   .     S
C402   H404    1.113   .     S
C402   C405    1.524   .     S
H403   C114    1.110   1_565 S
C405   H406    1.110   .     S
C405   H1559   1.107   1_554 S
H407   C981    1.107   .     S
H408   C117    1.110   1_565 S
O409   C410    1.414   .     S
C410   H412    1.114   .     S
C410   H123    1.110   1_565 S
C410   C125    1.521   1_565 S
C413   H416    1.111   .     S
C413   H415    1.111   .     S
H414   C125    1.110   1_565 S
O417   C418    1.405   .     S
C418   H420    1.113   .     S
C418   C421    1.525   .     S
H419   C130    1.111   1_565 S
C421   H422    1.110   .     S
C421   H999    1.106   .     S
H423   C1573   1.106   1_554 S
H424   C133    1.110   1_565 S
O425   C426    1.411   .     S
C426   H428    1.114   .     S
C426   H427    1.113   .     S
C426   C141    1.520   1_565 S
C429   H431    1.111   .     S
C429   H432    1.111   .     S
H430   C141    1.111   1_565 S
O433   C437    1.299   .     A
O433   Zn449   1.996   .     S
O434   Zn450   1.996   .     S
O434   C438    1.289   .     A
O435   C438    1.300   .     A
O435   Zn449   1.996   .     S
O436   Zn450   1.996   .     S
O436   C437    1.289   .     A
C437   C465    1.456   .     S
C438   C466    1.460   .     S
O439   Zn449   1.951   .     S
O439   C447    1.279   .     A
O440   Zn450   1.951   .     S
O440   C448    1.279   .     A
O441   C448    1.279   .     A
O441   Zn449   1.951   .     S
O442   C447    1.279   .     A
O442   Zn450   1.951   .     S
C443   C469    1.419   .     A
C443   C453    1.423   .     A
C443   O545    1.382   .     S
C444   C454    1.427   .     A
C444   O553    1.384   .     S
C444   C470    1.415   .     A
C445   C453    1.423   .     A
C445   C471    1.420   .     A
C445   O561    1.382   .     S
C446   O569    1.381   .     S
C446   C454    1.425   .     A
C446   C472    1.412   .     A
C447   C455    1.367   .     S
C448   C456    1.367   .     S
Zn449  N452    2.015   .     S
Zn450  N451    2.015   .     S
N451   C469    1.364   .     A
N451   C471    1.365   .     A
N452   C472    1.358   .     A
N452   C470    1.362   .     A
C454   C165    1.531   1_565 S
C455   C1608   1.166   1_554 S
C456   C1031   1.166   .     S
C457   C461    1.394   .     A
C457   C467    1.395   .     A
C457   O505    1.388   .     S
C458   O510    1.383   .     S
C458   C462    1.412   .     A
C458   C468    1.398   .     A
C459   C463    1.388   .     A
C459   C468    1.401   .     A
C459   O515    1.386   .     S
C460   C467    1.403   .     A
C460   O520    1.385   .     S
C460   C464    1.412   .     A
C461   C465    1.405   .     A
C461   O525    1.380   .     S
C462   C466    1.422   .     A
C462   O530    1.396   .     S
C463   O535    1.379   .     S
C463   C466    1.404   .     A
C464   C465    1.416   .     A
C464   O540    1.396   .     S
C468   C323    1.446   1_655 S
C469   O473    1.385   .     S
C470   O481    1.376   .     S
C471   O489    1.385   .     S
C472   O497    1.375   .     S
O473   C474    1.412   .     S
C474   H476    1.109   .     S
C474   C477    1.523   .     S
C474   H475    1.104   .     S
C477   H478    1.111   .     S
C477   H479    1.111   .     S
C477   H480    1.110   .     S
O481   C482    1.412   .     S
C482   H484    1.113   .     S
C482   C485    1.521   .     S
C482   H483    1.116   .     S
C485   H488    1.111   .     S
C485   H486    1.111   .     S
C485   H1063   1.111   .     S
H487   C1637   1.111   1_554 S
O489   C490    1.411   .     S
C490   H492    1.109   .     S
C490   C493    1.522   .     S
C490   H491    1.103   .     S
C493   H494    1.111   .     S
C493   H496    1.111   .     S
C493   H495    1.111   .     S
O497   C498    1.415   .     S
C498   H500    1.113   .     S
C498   C501    1.520   .     S
C498   H499    1.115   .     S
C501   H502    1.109   .     S
C501   H504    1.111   .     S
C501   H1655   1.111   1_554 S
H503   C1077   1.111   .     S
O505   C506    1.412   .     S
C506   H508    1.116   .     S
C506   H509    1.108   .     S
C506   H507    1.108   .     S
O510   C511    1.410   .     S
C511   H513    1.113   .     S
C511   H512    1.109   .     S
C511   H514    1.108   .     S
O515   C516    1.408   .     S
C516   H518    1.115   .     S
C516   H373    1.109   1_655 S
C516   H375    1.109   1_655 S
O520   C521    1.410   .     S
C521   H523    1.114   .     S
C521   H524    1.108   .     S
H522   C377    1.110   1_655 S
O525   C526    1.416   .     S
C526   H529    1.112   .     S
C526   H528    1.108   .     S
C526   H527    1.112   .     S
O530   C531    1.414   .     S
C531   H532    1.114   .     S
C531   H533    1.109   .     S
C531   H534    1.110   .     S
O535   C536    1.413   .     S
C536   H538    1.105   .     S
C536   H537    1.113   .     S
C536   H539    1.112   .     S
O540   C541    1.415   .     S
C541   H543    1.109   .     S
C541   H544    1.110   .     S
C541   H542    1.114   .     S
O545   C546    1.405   .     S
C546   H548    1.113   .     S
C546   C549    1.524   .     S
H547   C258    1.110   1_565 S
C549   H550    1.110   .     S
C549   H1703   1.107   1_554 S
H551   C1125   1.107   .     S
H552   C261    1.110   1_565 S
O553   C554    1.414   .     S
C554   H556    1.114   .     S
C554   H267    1.110   1_565 S
C554   C269    1.521   1_565 S
C557   H560    1.111   .     S
C557   H559    1.111   .     S
H558   C269    1.110   1_565 S
O561   C562    1.405   .     S
C562   H564    1.113   .     S
C562   C565    1.525   .     S
H563   C274    1.111   1_565 S
C565   H566    1.110   .     S
C565   H1143   1.106   .     S
H567   C1717   1.106   1_554 S
H568   C277    1.110   1_565 S
O569   C570    1.411   .     S
C570   H572    1.114   .     S
C570   H571    1.113   .     S
C570   C285    1.520   1_565 S
C573   H575    1.111   .     S
C573   H576    1.111   .     S
H574   C285    1.111   1_565 S
O577   C581    1.299   .     A
O577   Zn593   1.996   .     S
O578   Zn594   1.996   .     S
O578   C582    1.289   .     A
O579   C582    1.300   .     A
O579   Zn593   1.996   .     S
O580   Zn594   1.996   .     S
O580   C581    1.289   .     A
C581   C609    1.456   .     S
C582   C610    1.460   .     S
O583   Zn593   1.951   .     S
O583   C591    1.279   .     A
O584   Zn594   1.951   .     S
O584   C592    1.279   .     A
O585   C592    1.279   .     A
O585   Zn593   1.951   .     S
O586   C591    1.279   .     A
O586   Zn594   1.951   .     S
C587   C613    1.419   .     A
C587   C597    1.423   .     A
C587   O689    1.382   .     S
C588   C598    1.427   .     A
C588   O697    1.384   .     S
C588   C614    1.415   .     A
C589   C597    1.423   .     A
C589   C615    1.420   .     A
C589   O705    1.382   .     S
C590   O713    1.381   .     S
C590   C598    1.425   .     A
C590   C616    1.412   .     A
C591   C599    1.367   .     S
C592   C600    1.367   .     S
Zn593  N596    2.015   .     S
Zn594  N595    2.015   .     S
N595   C613    1.364   .     A
N595   C615    1.365   .     A
N596   C616    1.358   .     A
N596   C614    1.362   .     A
C597   C886    1.531   1_545 S
C598   C885    1.531   .     S
C600   C1175   1.166   .     S
C601   C605    1.394   .     A
C601   C611    1.395   .     A
C601   O649    1.388   .     S
C602   O654    1.383   .     S
C602   C606    1.412   .     A
C602   C612    1.398   .     A
C603   C607    1.388   .     A
C603   C612    1.401   .     A
C603   O659    1.386   .     S
C604   C611    1.403   .     A
C604   O664    1.385   .     S
C604   C608    1.412   .     A
C605   C609    1.405   .     A
C605   O669    1.380   .     S
C606   C610    1.422   .     A
C606   O674    1.396   .     S
C607   O679    1.379   .     S
C607   C610    1.404   .     A
C608   C609    1.416   .     A
C608   O684    1.396   .     S
C611   C756    1.446   1_455 S
C612   C755    1.446   .     S
C613   O617    1.385   .     S
C614   O625    1.376   .     S
C615   O633    1.385   .     S
C616   O641    1.375   .     S
O617   C618    1.412   .     S
C618   H620    1.109   .     S
C618   C621    1.523   .     S
C618   H619    1.104   .     S
C621   H622    1.111   .     S
C621   H623    1.111   .     S
C621   H624    1.110   .     S
O625   C626    1.412   .     S
C626   H628    1.113   .     S
C626   C629    1.521   .     S
C626   H627    1.116   .     S
C629   H632    1.111   .     S
C629   H630    1.111   .     S
C629   H1207   1.111   .     S
O633   C634    1.411   .     S
C634   H636    1.109   .     S
C634   C637    1.522   .     S
C634   H635    1.103   .     S
C637   H638    1.111   .     S
C637   H640    1.111   .     S
C637   H639    1.111   .     S
O641   C642    1.415   .     S
C642   H644    1.113   .     S
C642   C645    1.520   .     S
C642   H643    1.115   .     S
C645   H646    1.109   .     S
C645   H648    1.111   .     S
H647   C1221   1.111   .     S
O649   C650    1.412   .     S
C650   H652    1.116   .     S
C650   H653    1.108   .     S
C650   H651    1.108   .     S
O654   C655    1.410   .     S
C655   H657    1.113   .     S
C655   H656    1.109   .     S
C655   H658    1.108   .     S
O659   C660    1.408   .     S
C660   H662    1.115   .     S
C660   H805    1.109   .     S
C660   H807    1.109   .     S
H661   C804    1.109   1_455 S
H663   C804    1.109   1_455 S
O664   C665    1.410   .     S
C665   H667    1.114   .     S
C665   H668    1.108   .     S
C665   H810    1.110   1_455 S
H666   C809    1.110   .     S
O669   C670    1.416   .     S
C670   H673    1.112   .     S
C670   H672    1.108   .     S
C670   H671    1.112   .     S
O674   C675    1.414   .     S
C675   H676    1.114   .     S
C675   H677    1.109   .     S
C675   H678    1.110   .     S
O679   C680    1.413   .     S
C680   H682    1.105   .     S
C680   H681    1.113   .     S
C680   H683    1.112   .     S
O684   C685    1.415   .     S
C685   H687    1.109   .     S
C685   H688    1.110   .     S
C685   H686    1.114   .     S
O689   C690    1.405   .     S
C690   H692    1.113   .     S
C690   C693    1.524   .     S
C690   H979    1.110   1_545 S
H691   C978    1.110   .     S
C693   H694    1.110   .     S
C693   H984    1.110   1_545 S
H695   C1269   1.107   .     S
H696   C981    1.110   .     S
O697   C698    1.414   .     S
C698   H700    1.114   .     S
C698   H987    1.110   .     S
C698   C989    1.521   .     S
H699   C986    1.110   1_545 S
C701   H704    1.111   .     S
C701   H703    1.111   .     S
C701   C986    1.521   1_545 S
C701   H990    1.110   1_545 S
H702   C989    1.110   .     S
O705   C706    1.405   .     S
C706   H708    1.113   .     S
C706   C709    1.525   .     S
C706   H995    1.111   1_545 S
H707   C994    1.111   .     S
C709   H710    1.110   .     S
C709   H1287   1.106   .     S
C709   H1000   1.110   1_545 S
H712   C997    1.110   .     S
O713   C714    1.411   .     S
C714   H716    1.114   .     S
C714   H715    1.113   .     S
C714   C1005   1.520   .     S
C717   H719    1.111   .     S
C717   H720    1.111   .     S
C717   C1002   1.520   1_545 S
C717   H1006   1.111   1_545 S
H718   C1005   1.111   .     S
O721   C725    1.299   .     A
O721   Zn737   1.996   .     S
O722   Zn738   1.996   .     S
O722   C726    1.289   .     A
O723   C726    1.300   .     A
O723   Zn737   1.996   .     S
O724   Zn738   1.996   .     S
O724   C725    1.289   .     A
C725   C753    1.456   .     S
C726   C754    1.460   .     S
O727   Zn737   1.951   .     S
O727   C735    1.279   .     A
O728   Zn738   1.951   .     S
O728   C736    1.279   .     A
O729   C736    1.279   .     A
O729   Zn737   1.951   .     S
O730   C735    1.279   .     A
O730   Zn738   1.951   .     S
C731   C757    1.419   .     A
C731   C741    1.423   .     A
C731   O833    1.382   .     S
C732   C742    1.427   .     A
C732   O841    1.384   .     S
C732   C758    1.415   .     A
C733   C741    1.423   .     A
C733   C759    1.420   .     A
C733   O849    1.382   .     S
C734   O857    1.381   .     S
C734   C742    1.425   .     A
C734   C760    1.412   .     A
C735   C743    1.367   .     S
C736   C744    1.367   .     S
Zn737  N740    2.015   .     S
Zn738  N739    2.015   .     S
N739   C757    1.364   .     A
N739   C759    1.365   .     A
N740   C760    1.358   .     A
N740   C758    1.362   .     A
C741   C1030   1.531   1_545 S
C742   C1029   1.531   .     S
C744   C1319   1.166   .     S
C745   C749    1.394   .     A
C745   C755    1.395   .     A
C745   O793    1.388   .     S
C746   O798    1.383   .     S
C746   C750    1.412   .     A
C746   C756    1.398   .     A
C747   C751    1.388   .     A
C747   C756    1.401   .     A
C747   O803    1.386   .     S
C748   C755    1.403   .     A
C748   O808    1.385   .     S
C748   C752    1.412   .     A
C749   C753    1.405   .     A
C749   O813    1.380   .     S
C750   C754    1.422   .     A
C750   O818    1.396   .     S
C751   O823    1.379   .     S
C751   C754    1.404   .     A
C752   C753    1.416   .     A
C752   O828    1.396   .     S
C756   C611    1.446   1_655 S
C757   O761    1.385   .     S
C758   O769    1.376   .     S
C759   O777    1.385   .     S
C760   O785    1.375   .     S
O761   C762    1.412   .     S
C762   H764    1.109   .     S
C762   C765    1.523   .     S
C762   H763    1.104   .     S
C765   H766    1.111   .     S
C765   H767    1.111   .     S
C765   H768    1.110   .     S
O769   C770    1.412   .     S
C770   H772    1.113   .     S
C770   C773    1.521   .     S
C770   H771    1.116   .     S
C773   H776    1.111   .     S
C773   H774    1.111   .     S
C773   H1351   1.111   .     S
O777   C778    1.411   .     S
C778   H780    1.109   .     S
C778   C781    1.522   .     S
C778   H779    1.103   .     S
C781   H782    1.111   .     S
C781   H784    1.111   .     S
C781   H783    1.111   .     S
O785   C786    1.415   .     S
C786   H788    1.113   .     S
C786   C789    1.520   .     S
C786   H787    1.115   .     S
C789   H790    1.109   .     S
C789   H792    1.111   .     S
H791   C1365   1.111   .     S
O793   C794    1.412   .     S
C794   H796    1.116   .     S
C794   H797    1.108   .     S
C794   H795    1.108   .     S
O798   C799    1.410   .     S
C799   H801    1.113   .     S
C799   H800    1.109   .     S
C799   H802    1.108   .     S
O803   C804    1.408   .     S
C804   H806    1.115   .     S
C804   H661    1.109   1_655 S
C804   H663    1.109   1_655 S
O808   C809    1.410   .     S
C809   H811    1.114   .     S
C809   H812    1.108   .     S
H810   C665    1.110   1_655 S
O813   C814    1.416   .     S
C814   H817    1.112   .     S
C814   H816    1.108   .     S
C814   H815    1.112   .     S
O818   C819    1.414   .     S
C819   H820    1.114   .     S
C819   H821    1.109   .     S
C819   H822    1.110   .     S
O823   C824    1.413   .     S
C824   H826    1.105   .     S
C824   H825    1.113   .     S
C824   H827    1.112   .     S
O828   C829    1.415   .     S
C829   H831    1.109   .     S
C829   H832    1.110   .     S
C829   H830    1.114   .     S
O833   C834    1.405   .     S
C834   H836    1.113   .     S
C834   C837    1.524   .     S
C834   H1123   1.110   1_545 S
H835   C1122   1.110   .     S
C837   H838    1.110   .     S
C837   H1128   1.110   1_545 S
H839   C1413   1.107   .     S
H840   C1125   1.110   .     S
O841   C842    1.414   .     S
C842   H844    1.114   .     S
C842   H1131   1.110   .     S
C842   C1133   1.521   .     S
H843   C1130   1.110   1_545 S
C845   H848    1.111   .     S
C845   H847    1.111   .     S
C845   C1130   1.521   1_545 S
C845   H1134   1.110   1_545 S
H846   C1133   1.110   .     S
O849   C850    1.405   .     S
C850   H852    1.113   .     S
C850   C853    1.525   .     S
C850   H1139   1.111   1_545 S
H851   C1138   1.111   .     S
C853   H854    1.110   .     S
C853   H1431   1.106   .     S
C853   H1144   1.110   1_545 S
H856   C1141   1.110   .     S
O857   C858    1.411   .     S
C858   H860    1.114   .     S
C858   H859    1.113   .     S
C858   C1149   1.520   .     S
C861   H863    1.111   .     S
C861   H864    1.111   .     S
C861   C1146   1.520   1_545 S
C861   H1150   1.111   1_545 S
H862   C1149   1.111   .     S
O865   C869    1.299   .     A
O865   Zn881   1.996   .     S
O866   Zn882   1.996   .     S
O866   C870    1.289   .     A
O867   C870    1.300   .     A
O867   Zn881   1.996   .     S
O868   Zn882   1.996   .     S
O868   C869    1.289   .     A
C869   C897    1.456   .     S
C870   C898    1.460   .     S
O871   Zn881   1.951   .     S
O871   C879    1.279   .     A
O872   Zn882   1.951   .     S
O872   C880    1.279   .     A
O873   C880    1.279   .     A
O873   Zn881   1.951   .     S
O874   C879    1.279   .     A
O874   Zn882   1.951   .     S
C875   C901    1.419   .     A
C875   C885    1.423   .     A
C875   O977    1.382   .     S
C876   C886    1.427   .     A
C876   O985    1.384   .     S
C876   C902    1.415   .     A
C877   C885    1.423   .     A
C877   C903    1.420   .     A
C877   O993    1.382   .     S
C878   O1001   1.381   .     S
C878   C886    1.425   .     A
C878   C904    1.412   .     A
C879   C887    1.367   .     S
C880   C888    1.367   .     S
Zn881  N884    2.015   .     S
Zn882  N883    2.015   .     S
N883   C901    1.364   .     A
N883   C903    1.365   .     A
N884   C904    1.358   .     A
N884   C902    1.362   .     A
C886   C597    1.531   1_565 S
C888   C1463   1.166   .     S
C889   C893    1.394   .     A
C889   C899    1.395   .     A
C889   O937    1.388   .     S
C890   O942    1.383   .     S
C890   C894    1.412   .     A
C890   C900    1.398   .     A
C891   C895    1.388   .     A
C891   C900    1.401   .     A
C891   O947    1.386   .     S
C892   C899    1.403   .     A
C892   O952    1.385   .     S
C892   C896    1.412   .     A
C893   C897    1.405   .     A
C893   O957    1.380   .     S
C894   C898    1.422   .     A
C894   O962    1.396   .     S
C895   O967    1.379   .     S
C895   C898    1.404   .     A
C896   C897    1.416   .     A
C896   O972    1.396   .     S
C899   C1044   1.446   1_455 S
C900   C1043   1.446   .     S
C901   O905    1.385   .     S
C902   O913    1.376   .     S
C903   O921    1.385   .     S
C904   O929    1.375   .     S
O905   C906    1.412   .     S
C906   H908    1.109   .     S
C906   C909    1.523   .     S
C906   H907    1.104   .     S
C909   H910    1.111   .     S
C909   H911    1.111   .     S
C909   H912    1.110   .     S
O913   C914    1.412   .     S
C914   H916    1.113   .     S
C914   C917    1.521   .     S
C914   H915    1.116   .     S
C917   H920    1.111   .     S
C917   H918    1.111   .     S
C917   H1495   1.111   .     S
O921   C922    1.411   .     S
C922   H924    1.109   .     S
C922   C925    1.522   .     S
C922   H923    1.103   .     S
C925   H926    1.111   .     S
C925   H928    1.111   .     S
C925   H927    1.111   .     S
O929   C930    1.415   .     S
C930   H932    1.113   .     S
C930   C933    1.520   .     S
C930   H931    1.115   .     S
C933   H934    1.109   .     S
C933   H936    1.111   .     S
H935   C1509   1.111   .     S
O937   C938    1.412   .     S
C938   H940    1.116   .     S
C938   H941    1.108   .     S
C938   H939    1.108   .     S
O942   C943    1.410   .     S
C943   H945    1.113   .     S
C943   H944    1.109   .     S
C943   H946    1.108   .     S
O947   C948    1.408   .     S
C948   H950    1.115   .     S
C948   H1093   1.109   .     S
C948   H1095   1.109   .     S
H949   C1092   1.109   1_455 S
H951   C1092   1.109   1_455 S
O952   C953    1.410   .     S
C953   H955    1.114   .     S
C953   H956    1.108   .     S
C953   H1098   1.110   1_455 S
H954   C1097   1.110   .     S
O957   C958    1.416   .     S
C958   H961    1.112   .     S
C958   H960    1.108   .     S
C958   H959    1.112   .     S
O962   C963    1.414   .     S
C963   H964    1.114   .     S
C963   H965    1.109   .     S
C963   H966    1.110   .     S
O967   C968    1.413   .     S
C968   H970    1.105   .     S
C968   H969    1.113   .     S
C968   H971    1.112   .     S
O972   C973    1.415   .     S
C973   H975    1.109   .     S
C973   H976    1.110   .     S
C973   H974    1.114   .     S
O977   C978    1.405   .     S
C978   H980    1.113   .     S
C978   C981    1.524   .     S
H979   C690    1.110   1_565 S
C981   H982    1.110   .     S
H983   C1557   1.107   .     S
H984   C693    1.110   1_565 S
O985   C986    1.414   .     S
C986   H988    1.114   .     S
C986   H699    1.110   1_565 S
C986   C701    1.521   1_565 S
C989   H992    1.111   .     S
C989   H991    1.111   .     S
H990   C701    1.110   1_565 S
O993   C994    1.405   .     S
C994   H996    1.113   .     S
C994   C997    1.525   .     S
H995   C706    1.111   1_565 S
C997   H998    1.110   .     S
C997   H1575   1.106   .     S
H1000  C709    1.110   1_565 S
O1001  C1002   1.411   .     S
C1002  H1004   1.114   .     S
C1002  H1003   1.113   .     S
C1002  C717    1.520   1_565 S
C1005  H1007   1.111   .     S
C1005  H1008   1.111   .     S
H1006  C717    1.111   1_565 S
O1009  C1013   1.299   .     A
O1009  Zn1025  1.996   .     S
O1010  Zn1026  1.996   .     S
O1010  C1014   1.289   .     A
O1011  C1014   1.300   .     A
O1011  Zn1025  1.996   .     S
O1012  Zn1026  1.996   .     S
O1012  C1013   1.289   .     A
C1013  C1041   1.456   .     S
C1014  C1042   1.460   .     S
O1015  Zn1025  1.951   .     S
O1015  C1023   1.279   .     A
O1016  Zn1026  1.951   .     S
O1016  C1024   1.279   .     A
O1017  C1024   1.279   .     A
O1017  Zn1025  1.951   .     S
O1018  C1023   1.279   .     A
O1018  Zn1026  1.951   .     S
C1019  C1045   1.419   .     A
C1019  C1029   1.423   .     A
C1019  O1121   1.382   .     S
C1020  C1030   1.427   .     A
C1020  O1129   1.384   .     S
C1020  C1046   1.415   .     A
C1021  C1029   1.423   .     A
C1021  C1047   1.420   .     A
C1021  O1137   1.382   .     S
C1022  O1145   1.381   .     S
C1022  C1030   1.425   .     A
C1022  C1048   1.412   .     A
C1023  C1031   1.367   .     S
C1024  C1032   1.367   .     S
Zn1025 N1028   2.015   .     S
Zn1026 N1027   2.015   .     S
N1027  C1045   1.364   .     A
N1027  C1047   1.365   .     A
N1028  C1048   1.358   .     A
N1028  C1046   1.362   .     A
C1030  C741    1.531   1_565 S
C1032  C1607   1.166   .     S
C1033  C1037   1.394   .     A
C1033  C1043   1.395   .     A
C1033  O1081   1.388   .     S
C1034  O1086   1.383   .     S
C1034  C1038   1.412   .     A
C1034  C1044   1.398   .     A
C1035  C1039   1.388   .     A
C1035  C1044   1.401   .     A
C1035  O1091   1.386   .     S
C1036  C1043   1.403   .     A
C1036  O1096   1.385   .     S
C1036  C1040   1.412   .     A
C1037  C1041   1.405   .     A
C1037  O1101   1.380   .     S
C1038  C1042   1.422   .     A
C1038  O1106   1.396   .     S
C1039  O1111   1.379   .     S
C1039  C1042   1.404   .     A
C1040  C1041   1.416   .     A
C1040  O1116   1.396   .     S
C1044  C899    1.446   1_655 S
C1045  O1049   1.385   .     S
C1046  O1057   1.376   .     S
C1047  O1065   1.385   .     S
C1048  O1073   1.375   .     S
O1049  C1050   1.412   .     S
C1050  H1052   1.109   .     S
C1050  C1053   1.523   .     S
C1050  H1051   1.104   .     S
C1053  H1054   1.111   .     S
C1053  H1055   1.111   .     S
C1053  H1056   1.110   .     S
O1057  C1058   1.412   .     S
C1058  H1060   1.113   .     S
C1058  C1061   1.521   .     S
C1058  H1059   1.116   .     S
C1061  H1064   1.111   .     S
C1061  H1062   1.111   .     S
C1061  H1639   1.111   .     S
O1065  C1066   1.411   .     S
C1066  H1068   1.109   .     S
C1066  C1069   1.522   .     S
C1066  H1067   1.103   .     S
C1069  H1070   1.111   .     S
C1069  H1072   1.111   .     S
C1069  H1071   1.111   .     S
O1073  C1074   1.415   .     S
C1074  H1076   1.113   .     S
C1074  C1077   1.520   .     S
C1074  H1075   1.115   .     S
C1077  H1078   1.109   .     S
C1077  H1080   1.111   .     S
H1079  C1653   1.111   .     S
O1081  C1082   1.412   .     S
C1082  H1084   1.116   .     S
C1082  H1085   1.108   .     S
C1082  H1083   1.108   .     S
O1086  C1087   1.410   .     S
C1087  H1089   1.113   .     S
C1087  H1088   1.109   .     S
C1087  H1090   1.108   .     S
O1091  C1092   1.408   .     S
C1092  H1094   1.115   .     S
C1092  H949    1.109   1_655 S
C1092  H951    1.109   1_655 S
O1096  C1097   1.410   .     S
C1097  H1099   1.114   .     S
C1097  H1100   1.108   .     S
H1098  C953    1.110   1_655 S
O1101  C1102   1.416   .     S
C1102  H1105   1.112   .     S
C1102  H1104   1.108   .     S
C1102  H1103   1.112   .     S
O1106  C1107   1.414   .     S
C1107  H1108   1.114   .     S
C1107  H1109   1.109   .     S
C1107  H1110   1.110   .     S
O1111  C1112   1.413   .     S
C1112  H1114   1.105   .     S
C1112  H1113   1.113   .     S
C1112  H1115   1.112   .     S
O1116  C1117   1.415   .     S
C1117  H1119   1.109   .     S
C1117  H1120   1.110   .     S
C1117  H1118   1.114   .     S
O1121  C1122   1.405   .     S
C1122  H1124   1.113   .     S
C1122  C1125   1.524   .     S
H1123  C834    1.110   1_565 S
C1125  H1126   1.110   .     S
H1127  C1701   1.107   .     S
H1128  C837    1.110   1_565 S
O1129  C1130   1.414   .     S
C1130  H1132   1.114   .     S
C1130  H843    1.110   1_565 S
C1130  C845    1.521   1_565 S
C1133  H1136   1.111   .     S
C1133  H1135   1.111   .     S
H1134  C845    1.110   1_565 S
O1137  C1138   1.405   .     S
C1138  H1140   1.113   .     S
C1138  C1141   1.525   .     S
H1139  C850    1.111   1_565 S
C1141  H1142   1.110   .     S
C1141  H1719   1.106   .     S
H1144  C853    1.110   1_565 S
O1145  C1146   1.411   .     S
C1146  H1148   1.114   .     S
C1146  H1147   1.113   .     S
C1146  C861    1.520   1_565 S
C1149  H1151   1.111   .     S
C1149  H1152   1.111   .     S
H1150  C861    1.111   1_565 S
O1153  C1157   1.299   .     A
O1153  Zn1169  1.996   .     S
O1154  Zn1170  1.996   .     S
O1154  C1158   1.289   .     A
O1155  C1158   1.300   .     A
O1155  Zn1169  1.996   .     S
O1156  Zn1170  1.996   .     S
O1156  C1157   1.289   .     A
C1157  C1185   1.456   .     S
C1158  C1186   1.460   .     S
O1159  Zn1169  1.951   .     S
O1159  C1167   1.279   .     A
O1160  Zn1170  1.951   .     S
O1160  C1168   1.279   .     A
O1161  C1168   1.279   .     A
O1161  Zn1169  1.951   .     S
O1162  C1167   1.279   .     A
O1162  Zn1170  1.951   .     S
C1163  C1189   1.419   .     A
C1163  C1173   1.423   .     A
C1163  O1265   1.382   .     S
C1164  C1174   1.427   .     A
C1164  O1273   1.384   .     S
C1164  C1190   1.415   .     A
C1165  C1173   1.423   .     A
C1165  C1191   1.420   .     A
C1165  O1281   1.382   .     S
C1166  O1289   1.381   .     S
C1166  C1174   1.425   .     A
C1166  C1192   1.412   .     A
C1167  C1175   1.367   .     S
C1168  C1176   1.367   .     S
Zn1169 N1172   2.015   .     S
Zn1170 N1171   2.015   .     S
N1171  C1189   1.364   .     A
N1171  C1191   1.365   .     A
N1172  C1192   1.358   .     A
N1172  C1190   1.362   .     A
C1173  C1462   1.531   1_545 S
C1174  C1461   1.531   .     S
C1176  C23     1.166   1_556 S
C1177  C1181   1.394   .     A
C1177  C1187   1.395   .     A
C1177  O1225   1.388   .     S
C1178  O1230   1.383   .     S
C1178  C1182   1.412   .     A
C1178  C1188   1.398   .     A
C1179  C1183   1.388   .     A
C1179  C1188   1.401   .     A
C1179  O1235   1.386   .     S
C1180  C1187   1.403   .     A
C1180  O1240   1.385   .     S
C1180  C1184   1.412   .     A
C1181  C1185   1.405   .     A
C1181  O1245   1.380   .     S
C1182  C1186   1.422   .     A
C1182  O1250   1.396   .     S
C1183  O1255   1.379   .     S
C1183  C1186   1.404   .     A
C1184  C1185   1.416   .     A
C1184  O1260   1.396   .     S
C1187  C1332   1.446   1_455 S
C1188  C1331   1.446   .     S
C1189  O1193   1.385   .     S
C1190  O1201   1.376   .     S
C1191  O1209   1.385   .     S
C1192  O1217   1.375   .     S
O1193  C1194   1.412   .     S
C1194  H1196   1.109   .     S
C1194  C1197   1.523   .     S
C1194  H1195   1.104   .     S
C1197  H1198   1.111   .     S
C1197  H1199   1.111   .     S
C1197  H1200   1.110   .     S
O1201  C1202   1.412   .     S
C1202  H1204   1.113   .     S
C1202  C1205   1.521   .     S
C1202  H1203   1.116   .     S
C1205  H1208   1.111   .     S
C1205  H1206   1.111   .     S
C1205  H55     1.111   1_556 S
O1209  C1210   1.411   .     S
C1210  H1212   1.109   .     S
C1210  C1213   1.522   .     S
C1210  H1211   1.103   .     S
C1213  H1214   1.111   .     S
C1213  H1216   1.111   .     S
C1213  H1215   1.111   .     S
O1217  C1218   1.415   .     S
C1218  H1220   1.113   .     S
C1218  C1221   1.520   .     S
C1218  H1219   1.115   .     S
C1221  H1222   1.109   .     S
C1221  H1224   1.111   .     S
H1223  C69     1.111   1_556 S
O1225  C1226   1.412   .     S
C1226  H1228   1.116   .     S
C1226  H1229   1.108   .     S
C1226  H1227   1.108   .     S
O1230  C1231   1.410   .     S
C1231  H1233   1.113   .     S
C1231  H1232   1.109   .     S
C1231  H1234   1.108   .     S
O1235  C1236   1.408   .     S
C1236  H1238   1.115   .     S
C1236  H1381   1.109   .     S
C1236  H1383   1.109   .     S
H1237  C1380   1.109   1_455 S
H1239  C1380   1.109   1_455 S
O1240  C1241   1.410   .     S
C1241  H1243   1.114   .     S
C1241  H1244   1.108   .     S
C1241  H1386   1.110   1_455 S
H1242  C1385   1.110   .     S
O1245  C1246   1.416   .     S
C1246  H1249   1.112   .     S
C1246  H1248   1.108   .     S
C1246  H1247   1.112   .     S
O1250  C1251   1.414   .     S
C1251  H1252   1.114   .     S
C1251  H1253   1.109   .     S
C1251  H1254   1.110   .     S
O1255  C1256   1.413   .     S
C1256  H1258   1.105   .     S
C1256  H1257   1.113   .     S
C1256  H1259   1.112   .     S
O1260  C1261   1.415   .     S
C1261  H1263   1.109   .     S
C1261  H1264   1.110   .     S
C1261  H1262   1.114   .     S
O1265  C1266   1.405   .     S
C1266  H1268   1.113   .     S
C1266  C1269   1.524   .     S
C1266  H1555   1.110   1_545 S
H1267  C1554   1.110   .     S
C1269  H1270   1.110   .     S
C1269  H1560   1.110   1_545 S
H1271  C117    1.107   1_556 S
H1272  C1557   1.110   .     S
O1273  C1274   1.414   .     S
C1274  H1276   1.114   .     S
C1274  H1563   1.110   .     S
C1274  C1565   1.521   .     S
H1275  C1562   1.110   1_545 S
C1277  H1280   1.111   .     S
C1277  H1279   1.111   .     S
C1277  C1562   1.521   1_545 S
C1277  H1566   1.110   1_545 S
H1278  C1565   1.110   .     S
O1281  C1282   1.405   .     S
C1282  H1284   1.113   .     S
C1282  C1285   1.525   .     S
C1282  H1571   1.111   1_545 S
H1283  C1570   1.111   .     S
C1285  H1286   1.110   .     S
C1285  H135    1.106   1_556 S
C1285  H1576   1.110   1_545 S
H1288  C1573   1.110   .     S
O1289  C1290   1.411   .     S
C1290  H1292   1.114   .     S
C1290  H1291   1.113   .     S
C1290  C1581   1.520   .     S
C1293  H1295   1.111   .     S
C1293  H1296   1.111   .     S
C1293  C1578   1.520   1_545 S
C1293  H1582   1.111   1_545 S
H1294  C1581   1.111   .     S
O1297  C1301   1.299   .     A
O1297  Zn1313  1.996   .     S
O1298  Zn1314  1.996   .     S
O1298  C1302   1.289   .     A
O1299  C1302   1.300   .     A
O1299  Zn1313  1.996   .     S
O1300  Zn1314  1.996   .     S
O1300  C1301   1.289   .     A
C1301  C1329   1.456   .     S
C1302  C1330   1.460   .     S
O1303  Zn1313  1.951   .     S
O1303  C1311   1.279   .     A
O1304  Zn1314  1.951   .     S
O1304  C1312   1.279   .     A
O1305  C1312   1.279   .     A
O1305  Zn1313  1.951   .     S
O1306  C1311   1.279   .     A
O1306  Zn1314  1.951   .     S
C1307  C1333   1.419   .     A
C1307  C1317   1.423   .     A
C1307  O1409   1.382   .     S
C1308  C1318   1.427   .     A
C1308  O1417   1.384   .     S
C1308  C1334   1.415   .     A
C1309  C1317   1.423   .     A
C1309  C1335   1.420   .     A
C1309  O1425   1.382   .     S
C1310  O1433   1.381   .     S
C1310  C1318   1.425   .     A
C1310  C1336   1.412   .     A
C1311  C1319   1.367   .     S
C1312  C1320   1.367   .     S
Zn1313 N1316   2.015   .     S
Zn1314 N1315   2.015   .     S
N1315  C1333   1.364   .     A
N1315  C1335   1.365   .     A
N1316  C1336   1.358   .     A
N1316  C1334   1.362   .     A
C1317  C1606   1.531   1_545 S
C1318  C1605   1.531   .     S
C1320  C167    1.166   1_556 S
C1321  C1325   1.394   .     A
C1321  C1331   1.395   .     A
C1321  O1369   1.388   .     S
C1322  O1374   1.383   .     S
C1322  C1326   1.412   .     A
C1322  C1332   1.398   .     A
C1323  C1327   1.388   .     A
C1323  C1332   1.401   .     A
C1323  O1379   1.386   .     S
C1324  C1331   1.403   .     A
C1324  O1384   1.385   .     S
C1324  C1328   1.412   .     A
C1325  C1329   1.405   .     A
C1325  O1389   1.380   .     S
C1326  C1330   1.422   .     A
C1326  O1394   1.396   .     S
C1327  O1399   1.379   .     S
C1327  C1330   1.404   .     A
C1328  C1329   1.416   .     A
C1328  O1404   1.396   .     S
C1332  C1187   1.446   1_655 S
C1333  O1337   1.385   .     S
C1334  O1345   1.376   .     S
C1335  O1353   1.385   .     S
C1336  O1361   1.375   .     S
O1337  C1338   1.412   .     S
C1338  H1340   1.109   .     S
C1338  C1341   1.523   .     S
C1338  H1339   1.104   .     S
C1341  H1342   1.111   .     S
C1341  H1343   1.111   .     S
C1341  H1344   1.110   .     S
O1345  C1346   1.412   .     S
C1346  H1348   1.113   .     S
C1346  C1349   1.521   .     S
C1346  H1347   1.116   .     S
C1349  H1352   1.111   .     S
C1349  H1350   1.111   .     S
C1349  H199    1.111   1_556 S
O1353  C1354   1.411   .     S
C1354  H1356   1.109   .     S
C1354  C1357   1.522   .     S
C1354  H1355   1.103   .     S
C1357  H1358   1.111   .     S
C1357  H1360   1.111   .     S
C1357  H1359   1.111   .     S
O1361  C1362   1.415   .     S
C1362  H1364   1.113   .     S
C1362  C1365   1.520   .     S
C1362  H1363   1.115   .     S
C1365  H1366   1.109   .     S
C1365  H1368   1.111   .     S
H1367  C213    1.111   1_556 S
O1369  C1370   1.412   .     S
C1370  H1372   1.116   .     S
C1370  H1373   1.108   .     S
C1370  H1371   1.108   .     S
O1374  C1375   1.410   .     S
C1375  H1377   1.113   .     S
C1375  H1376   1.109   .     S
C1375  H1378   1.108   .     S
O1379  C1380   1.408   .     S
C1380  H1382   1.115   .     S
C1380  H1237   1.109   1_655 S
C1380  H1239   1.109   1_655 S
O1384  C1385   1.410   .     S
C1385  H1387   1.114   .     S
C1385  H1388   1.108   .     S
H1386  C1241   1.110   1_655 S
O1389  C1390   1.416   .     S
C1390  H1393   1.112   .     S
C1390  H1392   1.108   .     S
C1390  H1391   1.112   .     S
O1394  C1395   1.414   .     S
C1395  H1396   1.114   .     S
C1395  H1397   1.109   .     S
C1395  H1398   1.110   .     S
O1399  C1400   1.413   .     S
C1400  H1402   1.105   .     S
C1400  H1401   1.113   .     S
C1400  H1403   1.112   .     S
O1404  C1405   1.415   .     S
C1405  H1407   1.109   .     S
C1405  H1408   1.110   .     S
C1405  H1406   1.114   .     S
O1409  C1410   1.405   .     S
C1410  H1412   1.113   .     S
C1410  C1413   1.524   .     S
C1410  H1699   1.110   1_545 S
H1411  C1698   1.110   .     S
C1413  H1414   1.110   .     S
C1413  H1704   1.110   1_545 S
H1415  C261    1.107   1_556 S
H1416  C1701   1.110   .     S
O1417  C1418   1.414   .     S
C1418  H1420   1.114   .     S
C1418  H1707   1.110   .     S
C1418  C1709   1.521   .     S
H1419  C1706   1.110   1_545 S
C1421  H1424   1.111   .     S
C1421  H1423   1.111   .     S
C1421  C1706   1.521   1_545 S
C1421  H1710   1.110   1_545 S
H1422  C1709   1.110   .     S
O1425  C1426   1.405   .     S
C1426  H1428   1.113   .     S
C1426  C1429   1.525   .     S
C1426  H1715   1.111   1_545 S
H1427  C1714   1.111   .     S
C1429  H1430   1.110   .     S
C1429  H279    1.106   1_556 S
C1429  H1720   1.110   1_545 S
H1432  C1717   1.110   .     S
O1433  C1434   1.411   .     S
C1434  H1436   1.114   .     S
C1434  H1435   1.113   .     S
C1434  C1725   1.520   .     S
C1437  H1439   1.111   .     S
C1437  H1440   1.111   .     S
C1437  C1722   1.520   1_545 S
C1437  H1726   1.111   1_545 S
H1438  C1725   1.111   .     S
O1441  C1445   1.299   .     A
O1441  Zn1457  1.996   .     S
O1442  Zn1458  1.996   .     S
O1442  C1446   1.289   .     A
O1443  C1446   1.300   .     A
O1443  Zn1457  1.996   .     S
O1444  Zn1458  1.996   .     S
O1444  C1445   1.289   .     A
C1445  C1473   1.456   .     S
C1446  C1474   1.460   .     S
O1447  Zn1457  1.951   .     S
O1447  C1455   1.279   .     A
O1448  Zn1458  1.951   .     S
O1448  C1456   1.279   .     A
O1449  C1456   1.279   .     A
O1449  Zn1457  1.951   .     S
O1450  C1455   1.279   .     A
O1450  Zn1458  1.951   .     S
C1451  C1477   1.419   .     A
C1451  C1461   1.423   .     A
C1451  O1553   1.382   .     S
C1452  C1462   1.427   .     A
C1452  O1561   1.384   .     S
C1452  C1478   1.415   .     A
C1453  C1461   1.423   .     A
C1453  C1479   1.420   .     A
C1453  O1569   1.382   .     S
C1454  O1577   1.381   .     S
C1454  C1462   1.425   .     A
C1454  C1480   1.412   .     A
C1455  C1463   1.367   .     S
C1456  C1464   1.367   .     S
Zn1457 N1460   2.015   .     S
Zn1458 N1459   2.015   .     S
N1459  C1477   1.364   .     A
N1459  C1479   1.365   .     A
N1460  C1480   1.358   .     A
N1460  C1478   1.362   .     A
C1462  C1173   1.531   1_565 S
C1464  C311    1.166   1_556 S
C1465  C1469   1.394   .     A
C1465  C1475   1.395   .     A
C1465  O1513   1.388   .     S
C1466  O1518   1.383   .     S
C1466  C1470   1.412   .     A
C1466  C1476   1.398   .     A
C1467  C1471   1.388   .     A
C1467  C1476   1.401   .     A
C1467  O1523   1.386   .     S
C1468  C1475   1.403   .     A
C1468  O1528   1.385   .     S
C1468  C1472   1.412   .     A
C1469  C1473   1.405   .     A
C1469  O1533   1.380   .     S
C1470  C1474   1.422   .     A
C1470  O1538   1.396   .     S
C1471  O1543   1.379   .     S
C1471  C1474   1.404   .     A
C1472  C1473   1.416   .     A
C1472  O1548   1.396   .     S
C1475  C1620   1.446   1_455 S
C1476  C1619   1.446   .     S
C1477  O1481   1.385   .     S
C1478  O1489   1.376   .     S
C1479  O1497   1.385   .     S
C1480  O1505   1.375   .     S
O1481  C1482   1.412   .     S
C1482  H1484   1.109   .     S
C1482  C1485   1.523   .     S
C1482  H1483   1.104   .     S
C1485  H1486   1.111   .     S
C1485  H1487   1.111   .     S
C1485  H1488   1.110   .     S
O1489  C1490   1.412   .     S
C1490  H1492   1.113   .     S
C1490  C1493   1.521   .     S
C1490  H1491   1.116   .     S
C1493  H1496   1.111   .     S
C1493  H1494   1.111   .     S
C1493  H343    1.111   1_556 S
O1497  C1498   1.411   .     S
C1498  H1500   1.109   .     S
C1498  C1501   1.522   .     S
C1498  H1499   1.103   .     S
C1501  H1502   1.111   .     S
C1501  H1504   1.111   .     S
C1501  H1503   1.111   .     S
O1505  C1506   1.415   .     S
C1506  H1508   1.113   .     S
C1506  C1509   1.520   .     S
C1506  H1507   1.115   .     S
C1509  H1510   1.109   .     S
C1509  H1512   1.111   .     S
H1511  C357    1.111   1_556 S
O1513  C1514   1.412   .     S
C1514  H1516   1.116   .     S
C1514  H1517   1.108   .     S
C1514  H1515   1.108   .     S
O1518  C1519   1.410   .     S
C1519  H1521   1.113   .     S
C1519  H1520   1.109   .     S
C1519  H1522   1.108   .     S
O1523  C1524   1.408   .     S
C1524  H1526   1.115   .     S
C1524  H1669   1.109   .     S
C1524  H1671   1.109   .     S
H1525  C1668   1.109   1_455 S
H1527  C1668   1.109   1_455 S
O1528  C1529   1.410   .     S
C1529  H1531   1.114   .     S
C1529  H1532   1.108   .     S
C1529  H1674   1.110   1_455 S
H1530  C1673   1.110   .     S
O1533  C1534   1.416   .     S
C1534  H1537   1.112   .     S
C1534  H1536   1.108   .     S
C1534  H1535   1.112   .     S
O1538  C1539   1.414   .     S
C1539  H1540   1.114   .     S
C1539  H1541   1.109   .     S
C1539  H1542   1.110   .     S
O1543  C1544   1.413   .     S
C1544  H1546   1.105   .     S
C1544  H1545   1.113   .     S
C1544  H1547   1.112   .     S
O1548  C1549   1.415   .     S
C1549  H1551   1.109   .     S
C1549  H1552   1.110   .     S
C1549  H1550   1.114   .     S
O1553  C1554   1.405   .     S
C1554  H1556   1.113   .     S
C1554  C1557   1.524   .     S
H1555  C1266   1.110   1_565 S
C1557  H1558   1.110   .     S
H1559  C405    1.107   1_556 S
H1560  C1269   1.110   1_565 S
O1561  C1562   1.414   .     S
C1562  H1564   1.114   .     S
C1562  H1275   1.110   1_565 S
C1562  C1277   1.521   1_565 S
C1565  H1568   1.111   .     S
C1565  H1567   1.111   .     S
H1566  C1277   1.110   1_565 S
O1569  C1570   1.405   .     S
C1570  H1572   1.113   .     S
C1570  C1573   1.525   .     S
H1571  C1282   1.111   1_565 S
C1573  H1574   1.110   .     S
C1573  H423    1.106   1_556 S
H1576  C1285   1.110   1_565 S
O1577  C1578   1.411   .     S
C1578  H1580   1.114   .     S
C1578  H1579   1.113   .     S
C1578  C1293   1.520   1_565 S
C1581  H1583   1.111   .     S
C1581  H1584   1.111   .     S
H1582  C1293   1.111   1_565 S
O1585  C1589   1.299   .     A
O1585  Zn1601  1.996   .     S
O1586  Zn1602  1.996   .     S
O1586  C1590   1.289   .     A
O1587  C1590   1.300   .     A
O1587  Zn1601  1.996   .     S
O1588  Zn1602  1.996   .     S
O1588  C1589   1.289   .     A
C1589  C1617   1.456   .     S
C1590  C1618   1.460   .     S
O1591  Zn1601  1.951   .     S
O1591  C1599   1.279   .     A
O1592  Zn1602  1.951   .     S
O1592  C1600   1.279   .     A
O1593  C1600   1.279   .     A
O1593  Zn1601  1.951   .     S
O1594  C1599   1.279   .     A
O1594  Zn1602  1.951   .     S
C1595  C1621   1.419   .     A
C1595  C1605   1.423   .     A
C1595  O1697   1.382   .     S
C1596  C1606   1.427   .     A
C1596  O1705   1.384   .     S
C1596  C1622   1.415   .     A
C1597  C1605   1.423   .     A
C1597  C1623   1.420   .     A
C1597  O1713   1.382   .     S
C1598  O1721   1.381   .     S
C1598  C1606   1.425   .     A
C1598  C1624   1.412   .     A
C1599  C1607   1.367   .     S
C1600  C1608   1.367   .     S
Zn1601 N1604   2.015   .     S
Zn1602 N1603   2.015   .     S
N1603  C1621   1.364   .     A
N1603  C1623   1.365   .     A
N1604  C1624   1.358   .     A
N1604  C1622   1.362   .     A
C1606  C1317   1.531   1_565 S
C1608  C455    1.166   1_556 S
C1609  C1613   1.394   .     A
C1609  C1619   1.395   .     A
C1609  O1657   1.388   .     S
C1610  O1662   1.383   .     S
C1610  C1614   1.412   .     A
C1610  C1620   1.398   .     A
C1611  C1615   1.388   .     A
C1611  C1620   1.401   .     A
C1611  O1667   1.386   .     S
C1612  C1619   1.403   .     A
C1612  O1672   1.385   .     S
C1612  C1616   1.412   .     A
C1613  C1617   1.405   .     A
C1613  O1677   1.380   .     S
C1614  C1618   1.422   .     A
C1614  O1682   1.396   .     S
C1615  O1687   1.379   .     S
C1615  C1618   1.404   .     A
C1616  C1617   1.416   .     A
C1616  O1692   1.396   .     S
C1620  C1475   1.446   1_655 S
C1621  O1625   1.385   .     S
C1622  O1633   1.376   .     S
C1623  O1641   1.385   .     S
C1624  O1649   1.375   .     S
O1625  C1626   1.412   .     S
C1626  H1628   1.109   .     S
C1626  C1629   1.523   .     S
C1626  H1627   1.104   .     S
C1629  H1630   1.111   .     S
C1629  H1631   1.111   .     S
C1629  H1632   1.110   .     S
O1633  C1634   1.412   .     S
C1634  H1636   1.113   .     S
C1634  C1637   1.521   .     S
C1634  H1635   1.116   .     S
C1637  H1640   1.111   .     S
C1637  H1638   1.111   .     S
C1637  H487    1.111   1_556 S
O1641  C1642   1.411   .     S
C1642  H1644   1.109   .     S
C1642  C1645   1.522   .     S
C1642  H1643   1.103   .     S
C1645  H1646   1.111   .     S
C1645  H1648   1.111   .     S
C1645  H1647   1.111   .     S
O1649  C1650   1.415   .     S
C1650  H1652   1.113   .     S
C1650  C1653   1.520   .     S
C1650  H1651   1.115   .     S
C1653  H1654   1.109   .     S
C1653  H1656   1.111   .     S
H1655  C501    1.111   1_556 S
O1657  C1658   1.412   .     S
C1658  H1660   1.116   .     S
C1658  H1661   1.108   .     S
C1658  H1659   1.108   .     S
O1662  C1663   1.410   .     S
C1663  H1665   1.113   .     S
C1663  H1664   1.109   .     S
C1663  H1666   1.108   .     S
O1667  C1668   1.408   .     S
C1668  H1670   1.115   .     S
C1668  H1525   1.109   1_655 S
C1668  H1527   1.109   1_655 S
O1672  C1673   1.410   .     S
C1673  H1675   1.114   .     S
C1673  H1676   1.108   .     S
H1674  C1529   1.110   1_655 S
O1677  C1678   1.416   .     S
C1678  H1681   1.112   .     S
C1678  H1680   1.108   .     S
C1678  H1679   1.112   .     S
O1682  C1683   1.414   .     S
C1683  H1684   1.114   .     S
C1683  H1685   1.109   .     S
C1683  H1686   1.110   .     S
O1687  C1688   1.413   .     S
C1688  H1690   1.105   .     S
C1688  H1689   1.113   .     S
C1688  H1691   1.112   .     S
O1692  C1693   1.415   .     S
C1693  H1695   1.109   .     S
C1693  H1696   1.110   .     S
C1693  H1694   1.114   .     S
O1697  C1698   1.405   .     S
C1698  H1700   1.113   .     S
C1698  C1701   1.524   .     S
H1699  C1410   1.110   1_565 S
C1701  H1702   1.110   .     S
H1703  C549    1.107   1_556 S
H1704  C1413   1.110   1_565 S
O1705  C1706   1.414   .     S
C1706  H1708   1.114   .     S
C1706  H1419   1.110   1_565 S
C1706  C1421   1.521   1_565 S
C1709  H1712   1.111   .     S
C1709  H1711   1.111   .     S
H1710  C1421   1.110   1_565 S
O1713  C1714   1.405   .     S
C1714  H1716   1.113   .     S
C1714  C1717   1.525   .     S
H1715  C1426   1.111   1_565 S
C1717  H1718   1.110   .     S
C1717  H567    1.106   1_556 S
H1720  C1429   1.110   1_565 S
O1721  C1722   1.411   .     S
C1722  H1724   1.114   .     S
C1722  H1723   1.113   .     S
C1722  C1437   1.520   1_565 S
C1725  H1727   1.111   .     S
C1725  H1728   1.111   .     S
H1726  C1437   1.111   1_565 S
