data_str_m1_o10_o16_pcu_sym.114
_audit_creation_date              2020-01-03
_audit_creation_method            'Materials Studio'
_symmetry_space_group_name_H-M    'P1'
_symmetry_Int_Tables_number       1
_symmetry_cell_setting            triclinic
loop_
_symmetry_equiv_pos_as_xyz
  x,y,z
_cell_length_a                    32.5559
_cell_length_b                    32.5481
_cell_length_c                    31.0166
_cell_angle_alpha                 96.1295
_cell_angle_beta                  74.3986
_cell_angle_gamma                 97.7629
loop_
_atom_site_label
_atom_site_type_symbol
_atom_site_fract_x
_atom_site_fract_y
_atom_site_fract_z
_atom_site_U_iso_or_equiv
_atom_site_adp_type
_atom_site_occupancy
C1     C     0.05297   0.16031   0.25986   0.00000  Uiso   1.00
C2     C     0.16523   0.15048   0.05908   0.00000  Uiso   1.00
C3     C     0.23776   0.13866   0.05667   0.00000  Uiso   1.00
C4     C     0.28076   0.17356   0.24010   0.00000  Uiso   1.00
C5     C     0.13595   0.18652   0.42031   0.00000  Uiso   1.00
C6     C     0.32648   0.17320   0.23499   0.00000  Uiso   1.00
C7     C     0.00718   0.15819   0.26655   0.00000  Uiso   1.00
C8     C     0.17798   0.32234   0.23683   0.00000  Uiso   1.00
C9     C     0.15083   0.01233   0.26677   0.00000  Uiso   1.00
C10    C     0.15656   0.05613   0.26021   0.00000  Uiso   1.00
C11    C     0.17630   0.27797   0.24045   0.00000  Uiso   1.00
C12    C     0.07651   0.17894   0.48682   0.00000  Uiso   1.00
C13    C     0.18563   0.14841   0.12939   0.00000  Uiso   1.00
C14    C     0.14861   0.18469   0.37097   0.00000  Uiso   1.00
C15    C     0.25077   0.14485   0.01124   0.00000  Uiso   1.00
C16    C     0.19538   0.14262   0.08079   0.00000  Uiso   1.00
C17    C     0.09241   0.18798   0.44210   0.00000  Uiso   1.00
C18    C     0.31891   0.11461   0.32519   0.00000  Uiso   1.00
C19    C     0.29271   0.07755   0.30667   0.00000  Uiso   1.00
C20    C     0.29684   0.03721   0.32530   0.00000  Uiso   1.00
C21    C     0.08938   0.01989   0.32747   0.00000  Uiso   1.00
C22    C     0.09983   0.04562   0.36834   0.00000  Uiso   1.00
C23    C     0.10406   0.16768   0.01003   0.00000  Uiso   1.00
C24    C     0.06684   0.07606   0.38913   0.00000  Uiso   1.00
C25    C     0.02016   0.21273   0.02943   0.00000  Uiso   1.00
C26    C     0.01270   0.20962   0.07995   0.00000  Uiso   1.00
C27    C     0.32479   0.24656   0.10708   0.00000  Uiso   1.00
C28    C     0.14866   0.16811   0.48998   0.00000  Uiso   1.00
C29    C     0.16472   0.17854   0.44467   0.00000  Uiso   1.00
C30    C     0.17772   0.15749   0.01302   0.00000  Uiso   1.00
C31    C     0.22166   0.15590   0.48970   0.00000  Uiso   1.00
C32    C     0.23681   0.16754   0.44587   0.00000  Uiso   1.00
C33    C     0.20914   0.18012   0.42427   0.00000  Uiso   1.00
H34    H     0.28414   0.14313   0.49347   0.00000  Uiso   1.00
H35    H     0.33083   0.03055   0.31539   0.00000  Uiso   1.00
H36    H     0.27723   0.01107   0.31161   0.00000  Uiso   1.00
H37    H     0.28523   0.03949   0.36249   0.00000  Uiso   1.00
H38    H     0.20153   0.00289   0.20868   0.00000  Uiso   1.00
H39    H     0.06022   0.33135   0.33979   0.00000  Uiso   1.00
H40    H     0.08035   0.03953   0.30495   0.00000  Uiso   1.00
H41    H     0.10029   0.02430   0.39388   0.00000  Uiso   1.00
H42    H     0.13204   0.06343   0.35870   0.00000  Uiso   1.00
H43    H     0.06824   0.09955   0.36516   0.00000  Uiso   1.00
H44    H     0.07405   0.09249   0.41996   0.00000  Uiso   1.00
H45    H     0.13352   0.15478   0.07985   0.00000  Uiso   1.00
H46    H     0.03399   0.05929   0.39819   0.00000  Uiso   1.00
H47    H     0.27058   0.16816   0.42860   0.00000  Uiso   1.00
H48    H     0.32271   0.21762   0.02273   0.00000  Uiso   1.00
H49    H     0.04312   0.24070   0.01836   0.00000  Uiso   1.00
H50    H     0.32513   0.18051   0.09017   0.00000  Uiso   1.00
H51    H     0.04388   0.20864   0.08778   0.00000  Uiso   1.00
H52    H     0.01173   0.27612   0.09747   0.00000  Uiso   1.00
H53    H     0.32067   0.24374   0.14340   0.00000  Uiso   1.00
H54    H     0.29269   0.24726   0.10124   0.00000  Uiso   1.00
H55    H     0.22318   0.19126   0.39131   0.00000  Uiso   1.00
H56    H     0.06994   0.19304   0.42350   0.00000  Uiso   1.00
H57    H     0.01558   0.18394   0.20441   0.00000  Uiso   1.00
H58    H     0.08927   0.15751   0.04313   0.00000  Uiso   1.00
H59    H     0.26132   0.13304   0.07363   0.00000  Uiso   1.00
H60    H     0.30672   0.11739   0.36233   0.00000  Uiso   1.00
H61    H     0.01974   0.10886   0.31821   0.00000  Uiso   1.00
H62    H     0.25835   0.08303   0.31600   0.00000  Uiso   1.00
H63    H     0.30410   0.07432   0.26946   0.00000  Uiso   1.00
O64    O     0.16667   0.16667   0.25000   0.00000  Uiso   1.00
O65    O     0.15451   0.12637   0.15459   0.00000  Uiso   1.00
O66    O     0.12940   0.20391   0.34968   0.00000  Uiso   1.00
O67    O     0.20824   0.17759   0.14606   0.00000  Uiso   1.00
O68    O     0.17451   0.15880   0.34968   0.00000  Uiso   1.00
O69    O     0.31331   0.15208   0.30911   0.00000  Uiso   1.00
O70    O     0.12319   0.32904   0.30543   0.00000  Uiso   1.00
O71    O     0.03274   0.17493   0.00573   0.00000  Uiso   1.00
O72    O     0.17930   0.08019   0.28214   0.00000  Uiso   1.00
O73    O     0.14632   0.26085   0.27013   0.00000  Uiso   1.00
O74    O     0.07412   0.13291   0.23413   0.00000  Uiso   1.00
O75    O     0.26693   0.19272   0.21361   0.00000  Uiso   1.00
O76    O     0.07071   0.18878   0.28213   0.00000  Uiso   1.00
O77    O     0.25491   0.15226   0.27014   0.00000  Uiso   1.00
O78    O     0.13760   0.06944   0.23413   0.00000  Uiso   1.00
O79    O     0.20345   0.25620   0.21360   0.00000  Uiso   1.00
Zn80   Zn    0.19338   0.13994   0.28734   0.00000  Uiso   1.00
Zn81   Zn    0.13379   0.12458   0.21876   0.00000  Uiso   1.00
Zn82   Zn    0.21056   0.19775   0.20657   0.00000  Uiso   1.00
Zn83   Zn    0.12893   0.20439   0.28733   0.00000  Uiso   1.00
C84    C     0.38630   0.16031   0.25986   0.00000  Uiso   1.00
C85    C     0.49857   0.15048   0.05908   0.00000  Uiso   1.00
C86    C     0.57110   0.13866   0.05667   0.00000  Uiso   1.00
C87    C     0.61409   0.17356   0.24010   0.00000  Uiso   1.00
C88    C     0.46928   0.18652   0.42031   0.00000  Uiso   1.00
C89    C     0.65981   0.17320   0.23499   0.00000  Uiso   1.00
C90    C     0.34051   0.15819   0.26655   0.00000  Uiso   1.00
C91    C     0.51132   0.32234   0.23683   0.00000  Uiso   1.00
C92    C     0.48416   0.01233   0.26677   0.00000  Uiso   1.00
C93    C     0.48990   0.05613   0.26021   0.00000  Uiso   1.00
C94    C     0.50963   0.27797   0.24045   0.00000  Uiso   1.00
C95    C     0.40984   0.17894   0.48682   0.00000  Uiso   1.00
C96    C     0.51897   0.14841   0.12939   0.00000  Uiso   1.00
C97    C     0.48195   0.18469   0.37097   0.00000  Uiso   1.00
C98    C     0.58410   0.14485   0.01124   0.00000  Uiso   1.00
C99    C     0.52872   0.14262   0.08079   0.00000  Uiso   1.00
C100   C     0.42574   0.18798   0.44210   0.00000  Uiso   1.00
C101   C     0.65224   0.11461   0.32519   0.00000  Uiso   1.00
C102   C     0.62605   0.07755   0.30667   0.00000  Uiso   1.00
C103   C     0.63018   0.03721   0.32530   0.00000  Uiso   1.00
C104   C     0.42271   0.01989   0.32747   0.00000  Uiso   1.00
C105   C     0.43316   0.04562   0.36834   0.00000  Uiso   1.00
C106   C     0.43739   0.16768   0.01003   0.00000  Uiso   1.00
C107   C     0.40017   0.07606   0.38913   0.00000  Uiso   1.00
C108   C     0.35349   0.21273   0.02943   0.00000  Uiso   1.00
C109   C     0.34603   0.20962   0.07995   0.00000  Uiso   1.00
C110   C     0.65812   0.24656   0.10708   0.00000  Uiso   1.00
C111   C     0.48199   0.16811   0.48998   0.00000  Uiso   1.00
C112   C     0.49805   0.17854   0.44467   0.00000  Uiso   1.00
C113   C     0.51105   0.15749   0.01302   0.00000  Uiso   1.00
C114   C     0.55499   0.15590   0.48970   0.00000  Uiso   1.00
C115   C     0.57014   0.16754   0.44587   0.00000  Uiso   1.00
C116   C     0.54247   0.18012   0.42427   0.00000  Uiso   1.00
H117   H     0.61747   0.14313   0.49347   0.00000  Uiso   1.00
H118   H     0.66416   0.03055   0.31539   0.00000  Uiso   1.00
H119   H     0.61057   0.01107   0.31161   0.00000  Uiso   1.00
H120   H     0.61856   0.03949   0.36249   0.00000  Uiso   1.00
H121   H     0.53487   0.00289   0.20868   0.00000  Uiso   1.00
H122   H     0.39355   0.33135   0.33979   0.00000  Uiso   1.00
H123   H     0.41368   0.03953   0.30495   0.00000  Uiso   1.00
H124   H     0.43362   0.02430   0.39388   0.00000  Uiso   1.00
H125   H     0.46537   0.06343   0.35870   0.00000  Uiso   1.00
H126   H     0.40157   0.09955   0.36516   0.00000  Uiso   1.00
H127   H     0.40738   0.09249   0.41996   0.00000  Uiso   1.00
H128   H     0.46686   0.15478   0.07985   0.00000  Uiso   1.00
H129   H     0.36732   0.05929   0.39819   0.00000  Uiso   1.00
H130   H     0.60391   0.16816   0.42860   0.00000  Uiso   1.00
H131   H     0.65605   0.21762   0.02273   0.00000  Uiso   1.00
H132   H     0.37645   0.24070   0.01836   0.00000  Uiso   1.00
H133   H     0.65846   0.18051   0.09017   0.00000  Uiso   1.00
H134   H     0.37722   0.20864   0.08778   0.00000  Uiso   1.00
H135   H     0.34507   0.27612   0.09747   0.00000  Uiso   1.00
H136   H     0.65400   0.24374   0.14340   0.00000  Uiso   1.00
H137   H     0.62602   0.24726   0.10124   0.00000  Uiso   1.00
H138   H     0.55652   0.19126   0.39131   0.00000  Uiso   1.00
H139   H     0.40327   0.19304   0.42350   0.00000  Uiso   1.00
H140   H     0.34891   0.18394   0.20441   0.00000  Uiso   1.00
H141   H     0.42261   0.15751   0.04313   0.00000  Uiso   1.00
H142   H     0.59465   0.13304   0.07363   0.00000  Uiso   1.00
H143   H     0.64005   0.11739   0.36233   0.00000  Uiso   1.00
H144   H     0.35308   0.10886   0.31821   0.00000  Uiso   1.00
H145   H     0.59168   0.08303   0.31600   0.00000  Uiso   1.00
H146   H     0.63743   0.07432   0.26946   0.00000  Uiso   1.00
O147   O     0.50000   0.16667   0.25000   0.00000  Uiso   1.00
O148   O     0.48784   0.12637   0.15459   0.00000  Uiso   1.00
O149   O     0.46274   0.20391   0.34968   0.00000  Uiso   1.00
O150   O     0.54157   0.17759   0.14606   0.00000  Uiso   1.00
O151   O     0.50785   0.15880   0.34968   0.00000  Uiso   1.00
O152   O     0.64665   0.15208   0.30911   0.00000  Uiso   1.00
O153   O     0.45653   0.32904   0.30543   0.00000  Uiso   1.00
O154   O     0.36607   0.17493   0.00573   0.00000  Uiso   1.00
O155   O     0.51264   0.08019   0.28214   0.00000  Uiso   1.00
O156   O     0.47965   0.26085   0.27013   0.00000  Uiso   1.00
O157   O     0.40745   0.13291   0.23413   0.00000  Uiso   1.00
O158   O     0.60026   0.19272   0.21361   0.00000  Uiso   1.00
O159   O     0.40405   0.18878   0.28213   0.00000  Uiso   1.00
O160   O     0.58824   0.15226   0.27014   0.00000  Uiso   1.00
O161   O     0.47093   0.06944   0.23413   0.00000  Uiso   1.00
O162   O     0.53678   0.25620   0.21360   0.00000  Uiso   1.00
Zn163  Zn    0.52672   0.13994   0.28734   0.00000  Uiso   1.00
Zn164  Zn    0.46713   0.12458   0.21876   0.00000  Uiso   1.00
Zn165  Zn    0.54389   0.19775   0.20657   0.00000  Uiso   1.00
Zn166  Zn    0.46226   0.20439   0.28733   0.00000  Uiso   1.00
C167   C     0.71963   0.16031   0.25986   0.00000  Uiso   1.00
C168   C     0.83190   0.15048   0.05908   0.00000  Uiso   1.00
C169   C     0.90443   0.13866   0.05667   0.00000  Uiso   1.00
C170   C     0.94742   0.17356   0.24010   0.00000  Uiso   1.00
C171   C     0.80262   0.18652   0.42031   0.00000  Uiso   1.00
C172   C     0.99315   0.17320   0.23499   0.00000  Uiso   1.00
C173   C     0.67385   0.15819   0.26655   0.00000  Uiso   1.00
C174   C     0.84465   0.32234   0.23683   0.00000  Uiso   1.00
C175   C     0.81749   0.01233   0.26677   0.00000  Uiso   1.00
C176   C     0.82323   0.05613   0.26021   0.00000  Uiso   1.00
C177   C     0.84297   0.27797   0.24045   0.00000  Uiso   1.00
C178   C     0.74318   0.17894   0.48682   0.00000  Uiso   1.00
C179   C     0.85230   0.14841   0.12939   0.00000  Uiso   1.00
C180   C     0.81528   0.18469   0.37097   0.00000  Uiso   1.00
C181   C     0.91744   0.14485   0.01124   0.00000  Uiso   1.00
C182   C     0.86205   0.14262   0.08079   0.00000  Uiso   1.00
C183   C     0.75908   0.18798   0.44210   0.00000  Uiso   1.00
C184   C     0.98557   0.11461   0.32519   0.00000  Uiso   1.00
C185   C     0.95938   0.07755   0.30667   0.00000  Uiso   1.00
C186   C     0.96351   0.03721   0.32530   0.00000  Uiso   1.00
C187   C     0.75604   0.01989   0.32747   0.00000  Uiso   1.00
C188   C     0.76649   0.04562   0.36834   0.00000  Uiso   1.00
C189   C     0.77073   0.16768   0.01003   0.00000  Uiso   1.00
C190   C     0.73351   0.07606   0.38913   0.00000  Uiso   1.00
C191   C     0.68683   0.21273   0.02943   0.00000  Uiso   1.00
C192   C     0.67937   0.20962   0.07995   0.00000  Uiso   1.00
C193   C     0.99145   0.24656   0.10708   0.00000  Uiso   1.00
C194   C     0.81532   0.16811   0.48998   0.00000  Uiso   1.00
C195   C     0.83139   0.17854   0.44467   0.00000  Uiso   1.00
C196   C     0.84438   0.15749   0.01302   0.00000  Uiso   1.00
C197   C     0.88832   0.15590   0.48970   0.00000  Uiso   1.00
C198   C     0.90347   0.16754   0.44587   0.00000  Uiso   1.00
C199   C     0.87580   0.18012   0.42427   0.00000  Uiso   1.00
H200   H     0.95080   0.14313   0.49347   0.00000  Uiso   1.00
H201   H     0.99749   0.03055   0.31539   0.00000  Uiso   1.00
H202   H     0.94390   0.01107   0.31161   0.00000  Uiso   1.00
H203   H     0.95190   0.03949   0.36249   0.00000  Uiso   1.00
H204   H     0.86820   0.00289   0.20868   0.00000  Uiso   1.00
H205   H     0.72689   0.33135   0.33979   0.00000  Uiso   1.00
H206   H     0.74701   0.03953   0.30495   0.00000  Uiso   1.00
H207   H     0.76695   0.02430   0.39388   0.00000  Uiso   1.00
H208   H     0.79870   0.06343   0.35870   0.00000  Uiso   1.00
H209   H     0.73490   0.09955   0.36516   0.00000  Uiso   1.00
H210   H     0.74071   0.09249   0.41996   0.00000  Uiso   1.00
H211   H     0.80019   0.15478   0.07985   0.00000  Uiso   1.00
H212   H     0.70065   0.05929   0.39819   0.00000  Uiso   1.00
H213   H     0.93724   0.16816   0.42860   0.00000  Uiso   1.00
H214   H     0.98938   0.21762   0.02273   0.00000  Uiso   1.00
H215   H     0.70978   0.24070   0.01836   0.00000  Uiso   1.00
H216   H     0.99180   0.18051   0.09017   0.00000  Uiso   1.00
H217   H     0.71055   0.20864   0.08778   0.00000  Uiso   1.00
H218   H     0.67840   0.27612   0.09747   0.00000  Uiso   1.00
H219   H     0.98733   0.24374   0.14340   0.00000  Uiso   1.00
H220   H     0.95935   0.24726   0.10124   0.00000  Uiso   1.00
H221   H     0.88985   0.19126   0.39131   0.00000  Uiso   1.00
H222   H     0.73661   0.19304   0.42350   0.00000  Uiso   1.00
H223   H     0.68224   0.18394   0.20441   0.00000  Uiso   1.00
H224   H     0.75594   0.15751   0.04313   0.00000  Uiso   1.00
H225   H     0.92799   0.13304   0.07363   0.00000  Uiso   1.00
H226   H     0.97339   0.11739   0.36233   0.00000  Uiso   1.00
H227   H     0.68641   0.10886   0.31821   0.00000  Uiso   1.00
H228   H     0.92502   0.08303   0.31600   0.00000  Uiso   1.00
H229   H     0.97077   0.07432   0.26946   0.00000  Uiso   1.00
O230   O     0.83333   0.16667   0.25000   0.00000  Uiso   1.00
O231   O     0.82118   0.12637   0.15459   0.00000  Uiso   1.00
O232   O     0.79607   0.20391   0.34968   0.00000  Uiso   1.00
O233   O     0.87491   0.17759   0.14606   0.00000  Uiso   1.00
O234   O     0.84118   0.15880   0.34968   0.00000  Uiso   1.00
O235   O     0.97998   0.15208   0.30911   0.00000  Uiso   1.00
O236   O     0.78986   0.32904   0.30543   0.00000  Uiso   1.00
O237   O     0.69940   0.17493   0.00573   0.00000  Uiso   1.00
O238   O     0.84597   0.08019   0.28214   0.00000  Uiso   1.00
O239   O     0.81298   0.26085   0.27013   0.00000  Uiso   1.00
O240   O     0.74078   0.13291   0.23413   0.00000  Uiso   1.00
O241   O     0.93360   0.19272   0.21361   0.00000  Uiso   1.00
O242   O     0.73738   0.18878   0.28213   0.00000  Uiso   1.00
O243   O     0.92158   0.15226   0.27014   0.00000  Uiso   1.00
O244   O     0.80426   0.06944   0.23413   0.00000  Uiso   1.00
O245   O     0.87012   0.25620   0.21360   0.00000  Uiso   1.00
Zn246  Zn    0.86005   0.13994   0.28734   0.00000  Uiso   1.00
Zn247  Zn    0.80046   0.12458   0.21876   0.00000  Uiso   1.00
Zn248  Zn    0.87723   0.19775   0.20657   0.00000  Uiso   1.00
Zn249  Zn    0.79560   0.20439   0.28733   0.00000  Uiso   1.00
C250   C     0.05297   0.49365   0.25986   0.00000  Uiso   1.00
C251   C     0.16523   0.48381   0.05908   0.00000  Uiso   1.00
C252   C     0.23776   0.47199   0.05667   0.00000  Uiso   1.00
C253   C     0.28076   0.50690   0.24010   0.00000  Uiso   1.00
C254   C     0.13595   0.51985   0.42031   0.00000  Uiso   1.00
C255   C     0.32648   0.50653   0.23499   0.00000  Uiso   1.00
C256   C     0.00718   0.49153   0.26655   0.00000  Uiso   1.00
C257   C     0.17798   0.65567   0.23683   0.00000  Uiso   1.00
C258   C     0.15083   0.34566   0.26677   0.00000  Uiso   1.00
C259   C     0.15656   0.38947   0.26021   0.00000  Uiso   1.00
C260   C     0.17630   0.61131   0.24045   0.00000  Uiso   1.00
C261   C     0.07651   0.51228   0.48682   0.00000  Uiso   1.00
C262   C     0.18563   0.48174   0.12939   0.00000  Uiso   1.00
C263   C     0.14861   0.51802   0.37097   0.00000  Uiso   1.00
C264   C     0.25077   0.47818   0.01124   0.00000  Uiso   1.00
C265   C     0.19538   0.47596   0.08079   0.00000  Uiso   1.00
C266   C     0.09241   0.52131   0.44210   0.00000  Uiso   1.00
C267   C     0.31891   0.44795   0.32519   0.00000  Uiso   1.00
C268   C     0.29271   0.41089   0.30667   0.00000  Uiso   1.00
C269   C     0.29684   0.37054   0.32530   0.00000  Uiso   1.00
C270   C     0.08938   0.35322   0.32747   0.00000  Uiso   1.00
C271   C     0.09983   0.37895   0.36834   0.00000  Uiso   1.00
C272   C     0.10406   0.50102   0.01003   0.00000  Uiso   1.00
C273   C     0.06684   0.40939   0.38913   0.00000  Uiso   1.00
C274   C     0.02016   0.54606   0.02943   0.00000  Uiso   1.00
C275   C     0.01270   0.54295   0.07995   0.00000  Uiso   1.00
C276   C     0.32479   0.57990   0.10708   0.00000  Uiso   1.00
C277   C     0.14866   0.50145   0.48998   0.00000  Uiso   1.00
C278   C     0.16472   0.51187   0.44467   0.00000  Uiso   1.00
C279   C     0.17772   0.49082   0.01302   0.00000  Uiso   1.00
C280   C     0.22166   0.48923   0.48970   0.00000  Uiso   1.00
C281   C     0.23681   0.50087   0.44587   0.00000  Uiso   1.00
C282   C     0.20914   0.51345   0.42427   0.00000  Uiso   1.00
H283   H     0.28414   0.47646   0.49347   0.00000  Uiso   1.00
H284   H     0.33083   0.36389   0.31539   0.00000  Uiso   1.00
H285   H     0.27723   0.34441   0.31161   0.00000  Uiso   1.00
H286   H     0.28523   0.37282   0.36249   0.00000  Uiso   1.00
H287   H     0.20153   0.33623   0.20868   0.00000  Uiso   1.00
H288   H     0.06022   0.66469   0.33979   0.00000  Uiso   1.00
H289   H     0.08035   0.37287   0.30495   0.00000  Uiso   1.00
H290   H     0.10029   0.35763   0.39388   0.00000  Uiso   1.00
H291   H     0.13204   0.39677   0.35870   0.00000  Uiso   1.00
H292   H     0.06824   0.43289   0.36516   0.00000  Uiso   1.00
H293   H     0.07405   0.42583   0.41996   0.00000  Uiso   1.00
H294   H     0.13352   0.48811   0.07985   0.00000  Uiso   1.00
H295   H     0.03399   0.39262   0.39819   0.00000  Uiso   1.00
H296   H     0.27058   0.50149   0.42860   0.00000  Uiso   1.00
H297   H     0.32271   0.55096   0.02273   0.00000  Uiso   1.00
H298   H     0.04312   0.57404   0.01836   0.00000  Uiso   1.00
H299   H     0.32513   0.51384   0.09017   0.00000  Uiso   1.00
H300   H     0.04388   0.54197   0.08778   0.00000  Uiso   1.00
H301   H     0.01173   0.60945   0.09747   0.00000  Uiso   1.00
H302   H     0.32067   0.57707   0.14340   0.00000  Uiso   1.00
H303   H     0.29269   0.58059   0.10124   0.00000  Uiso   1.00
H304   H     0.22318   0.52459   0.39131   0.00000  Uiso   1.00
H305   H     0.06994   0.52637   0.42350   0.00000  Uiso   1.00
H306   H     0.01558   0.51727   0.20441   0.00000  Uiso   1.00
H307   H     0.08927   0.49084   0.04313   0.00000  Uiso   1.00
H308   H     0.26132   0.46638   0.07363   0.00000  Uiso   1.00
H309   H     0.30672   0.45072   0.36233   0.00000  Uiso   1.00
H310   H     0.01974   0.44219   0.31821   0.00000  Uiso   1.00
H311   H     0.25835   0.41636   0.31600   0.00000  Uiso   1.00
H312   H     0.30410   0.40765   0.26946   0.00000  Uiso   1.00
O313   O     0.16667   0.50000   0.25000   0.00000  Uiso   1.00
O314   O     0.15451   0.45970   0.15459   0.00000  Uiso   1.00
O315   O     0.12940   0.53724   0.34968   0.00000  Uiso   1.00
O316   O     0.20824   0.51092   0.14606   0.00000  Uiso   1.00
O317   O     0.17451   0.49213   0.34968   0.00000  Uiso   1.00
O318   O     0.31331   0.48541   0.30911   0.00000  Uiso   1.00
O319   O     0.12319   0.66237   0.30543   0.00000  Uiso   1.00
O320   O     0.03274   0.50827   0.00573   0.00000  Uiso   1.00
O321   O     0.17930   0.41352   0.28214   0.00000  Uiso   1.00
O322   O     0.14632   0.59418   0.27013   0.00000  Uiso   1.00
O323   O     0.07412   0.46625   0.23413   0.00000  Uiso   1.00
O324   O     0.26693   0.52605   0.21361   0.00000  Uiso   1.00
O325   O     0.07071   0.52211   0.28213   0.00000  Uiso   1.00
O326   O     0.25491   0.48559   0.27014   0.00000  Uiso   1.00
O327   O     0.13760   0.40277   0.23413   0.00000  Uiso   1.00
O328   O     0.20345   0.58953   0.21360   0.00000  Uiso   1.00
Zn329  Zn    0.19338   0.47327   0.28734   0.00000  Uiso   1.00
Zn330  Zn    0.13379   0.45791   0.21876   0.00000  Uiso   1.00
Zn331  Zn    0.21056   0.53109   0.20657   0.00000  Uiso   1.00
Zn332  Zn    0.12893   0.53773   0.28733   0.00000  Uiso   1.00
C333   C     0.38630   0.49365   0.25986   0.00000  Uiso   1.00
C334   C     0.49857   0.48381   0.05908   0.00000  Uiso   1.00
C335   C     0.57110   0.47199   0.05667   0.00000  Uiso   1.00
C336   C     0.61409   0.50690   0.24010   0.00000  Uiso   1.00
C337   C     0.46928   0.51985   0.42031   0.00000  Uiso   1.00
C338   C     0.65981   0.50653   0.23499   0.00000  Uiso   1.00
C339   C     0.34051   0.49153   0.26655   0.00000  Uiso   1.00
C340   C     0.51132   0.65567   0.23683   0.00000  Uiso   1.00
C341   C     0.48416   0.34566   0.26677   0.00000  Uiso   1.00
C342   C     0.48990   0.38947   0.26021   0.00000  Uiso   1.00
C343   C     0.50963   0.61131   0.24045   0.00000  Uiso   1.00
C344   C     0.40984   0.51228   0.48682   0.00000  Uiso   1.00
C345   C     0.51897   0.48174   0.12939   0.00000  Uiso   1.00
C346   C     0.48195   0.51802   0.37097   0.00000  Uiso   1.00
C347   C     0.58410   0.47818   0.01124   0.00000  Uiso   1.00
C348   C     0.52872   0.47596   0.08079   0.00000  Uiso   1.00
C349   C     0.42574   0.52131   0.44210   0.00000  Uiso   1.00
C350   C     0.65224   0.44795   0.32519   0.00000  Uiso   1.00
C351   C     0.62605   0.41089   0.30667   0.00000  Uiso   1.00
C352   C     0.63018   0.37054   0.32530   0.00000  Uiso   1.00
C353   C     0.42271   0.35322   0.32747   0.00000  Uiso   1.00
C354   C     0.43316   0.37895   0.36834   0.00000  Uiso   1.00
C355   C     0.43739   0.50102   0.01003   0.00000  Uiso   1.00
C356   C     0.40017   0.40939   0.38913   0.00000  Uiso   1.00
C357   C     0.35349   0.54606   0.02943   0.00000  Uiso   1.00
C358   C     0.34603   0.54295   0.07995   0.00000  Uiso   1.00
C359   C     0.65812   0.57990   0.10708   0.00000  Uiso   1.00
C360   C     0.48199   0.50145   0.48998   0.00000  Uiso   1.00
C361   C     0.49805   0.51187   0.44467   0.00000  Uiso   1.00
C362   C     0.51105   0.49082   0.01302   0.00000  Uiso   1.00
C363   C     0.55499   0.48923   0.48970   0.00000  Uiso   1.00
C364   C     0.57014   0.50087   0.44587   0.00000  Uiso   1.00
C365   C     0.54247   0.51345   0.42427   0.00000  Uiso   1.00
H366   H     0.61747   0.47646   0.49347   0.00000  Uiso   1.00
H367   H     0.66416   0.36389   0.31539   0.00000  Uiso   1.00
H368   H     0.61057   0.34441   0.31161   0.00000  Uiso   1.00
H369   H     0.61856   0.37282   0.36249   0.00000  Uiso   1.00
H370   H     0.53487   0.33623   0.20868   0.00000  Uiso   1.00
H371   H     0.39355   0.66469   0.33979   0.00000  Uiso   1.00
H372   H     0.41368   0.37287   0.30495   0.00000  Uiso   1.00
H373   H     0.43362   0.35763   0.39388   0.00000  Uiso   1.00
H374   H     0.46537   0.39677   0.35870   0.00000  Uiso   1.00
H375   H     0.40157   0.43289   0.36516   0.00000  Uiso   1.00
H376   H     0.40738   0.42583   0.41996   0.00000  Uiso   1.00
H377   H     0.46686   0.48811   0.07985   0.00000  Uiso   1.00
H378   H     0.36732   0.39262   0.39819   0.00000  Uiso   1.00
H379   H     0.60391   0.50149   0.42860   0.00000  Uiso   1.00
H380   H     0.65605   0.55096   0.02273   0.00000  Uiso   1.00
H381   H     0.37645   0.57404   0.01836   0.00000  Uiso   1.00
H382   H     0.65846   0.51384   0.09017   0.00000  Uiso   1.00
H383   H     0.37722   0.54197   0.08778   0.00000  Uiso   1.00
H384   H     0.34507   0.60945   0.09747   0.00000  Uiso   1.00
H385   H     0.65400   0.57707   0.14340   0.00000  Uiso   1.00
H386   H     0.62602   0.58059   0.10124   0.00000  Uiso   1.00
H387   H     0.55652   0.52459   0.39131   0.00000  Uiso   1.00
H388   H     0.40327   0.52637   0.42350   0.00000  Uiso   1.00
H389   H     0.34891   0.51727   0.20441   0.00000  Uiso   1.00
H390   H     0.42261   0.49084   0.04313   0.00000  Uiso   1.00
H391   H     0.59465   0.46638   0.07363   0.00000  Uiso   1.00
H392   H     0.64005   0.45072   0.36233   0.00000  Uiso   1.00
H393   H     0.35308   0.44219   0.31821   0.00000  Uiso   1.00
H394   H     0.59168   0.41636   0.31600   0.00000  Uiso   1.00
H395   H     0.63743   0.40765   0.26946   0.00000  Uiso   1.00
O396   O     0.50000   0.50000   0.25000   0.00000  Uiso   1.00
O397   O     0.48784   0.45970   0.15459   0.00000  Uiso   1.00
O398   O     0.46274   0.53724   0.34968   0.00000  Uiso   1.00
O399   O     0.54157   0.51092   0.14606   0.00000  Uiso   1.00
O400   O     0.50785   0.49213   0.34968   0.00000  Uiso   1.00
O401   O     0.64665   0.48541   0.30911   0.00000  Uiso   1.00
O402   O     0.45653   0.66237   0.30543   0.00000  Uiso   1.00
O403   O     0.36607   0.50827   0.00573   0.00000  Uiso   1.00
O404   O     0.51264   0.41352   0.28214   0.00000  Uiso   1.00
O405   O     0.47965   0.59418   0.27013   0.00000  Uiso   1.00
O406   O     0.40745   0.46625   0.23413   0.00000  Uiso   1.00
O407   O     0.60026   0.52605   0.21361   0.00000  Uiso   1.00
O408   O     0.40405   0.52211   0.28213   0.00000  Uiso   1.00
O409   O     0.58824   0.48559   0.27014   0.00000  Uiso   1.00
O410   O     0.47093   0.40277   0.23413   0.00000  Uiso   1.00
O411   O     0.53678   0.58953   0.21360   0.00000  Uiso   1.00
Zn412  Zn    0.52672   0.47327   0.28734   0.00000  Uiso   1.00
Zn413  Zn    0.46713   0.45791   0.21876   0.00000  Uiso   1.00
Zn414  Zn    0.54389   0.53109   0.20657   0.00000  Uiso   1.00
Zn415  Zn    0.46226   0.53773   0.28733   0.00000  Uiso   1.00
C416   C     0.71963   0.49365   0.25986   0.00000  Uiso   1.00
C417   C     0.83190   0.48381   0.05908   0.00000  Uiso   1.00
C418   C     0.90443   0.47199   0.05667   0.00000  Uiso   1.00
C419   C     0.94742   0.50690   0.24010   0.00000  Uiso   1.00
C420   C     0.80262   0.51985   0.42031   0.00000  Uiso   1.00
C421   C     0.99315   0.50653   0.23499   0.00000  Uiso   1.00
C422   C     0.67385   0.49153   0.26655   0.00000  Uiso   1.00
C423   C     0.84465   0.65567   0.23683   0.00000  Uiso   1.00
C424   C     0.81749   0.34566   0.26677   0.00000  Uiso   1.00
C425   C     0.82323   0.38947   0.26021   0.00000  Uiso   1.00
C426   C     0.84297   0.61131   0.24045   0.00000  Uiso   1.00
C427   C     0.74318   0.51228   0.48682   0.00000  Uiso   1.00
C428   C     0.85230   0.48174   0.12939   0.00000  Uiso   1.00
C429   C     0.81528   0.51802   0.37097   0.00000  Uiso   1.00
C430   C     0.91744   0.47818   0.01124   0.00000  Uiso   1.00
C431   C     0.86205   0.47596   0.08079   0.00000  Uiso   1.00
C432   C     0.75908   0.52131   0.44210   0.00000  Uiso   1.00
C433   C     0.98557   0.44795   0.32519   0.00000  Uiso   1.00
C434   C     0.95938   0.41089   0.30667   0.00000  Uiso   1.00
C435   C     0.96351   0.37054   0.32530   0.00000  Uiso   1.00
C436   C     0.75604   0.35322   0.32747   0.00000  Uiso   1.00
C437   C     0.76649   0.37895   0.36834   0.00000  Uiso   1.00
C438   C     0.77073   0.50102   0.01003   0.00000  Uiso   1.00
C439   C     0.73351   0.40939   0.38913   0.00000  Uiso   1.00
C440   C     0.68683   0.54606   0.02943   0.00000  Uiso   1.00
C441   C     0.67937   0.54295   0.07995   0.00000  Uiso   1.00
C442   C     0.99145   0.57990   0.10708   0.00000  Uiso   1.00
C443   C     0.81532   0.50145   0.48998   0.00000  Uiso   1.00
C444   C     0.83139   0.51187   0.44467   0.00000  Uiso   1.00
C445   C     0.84438   0.49082   0.01302   0.00000  Uiso   1.00
C446   C     0.88832   0.48923   0.48970   0.00000  Uiso   1.00
C447   C     0.90347   0.50087   0.44587   0.00000  Uiso   1.00
C448   C     0.87580   0.51345   0.42427   0.00000  Uiso   1.00
H449   H     0.95080   0.47646   0.49347   0.00000  Uiso   1.00
H450   H     0.99749   0.36389   0.31539   0.00000  Uiso   1.00
H451   H     0.94390   0.34441   0.31161   0.00000  Uiso   1.00
H452   H     0.95190   0.37282   0.36249   0.00000  Uiso   1.00
H453   H     0.86820   0.33623   0.20868   0.00000  Uiso   1.00
H454   H     0.72689   0.66469   0.33979   0.00000  Uiso   1.00
H455   H     0.74701   0.37287   0.30495   0.00000  Uiso   1.00
H456   H     0.76695   0.35763   0.39388   0.00000  Uiso   1.00
H457   H     0.79870   0.39677   0.35870   0.00000  Uiso   1.00
H458   H     0.73490   0.43289   0.36516   0.00000  Uiso   1.00
H459   H     0.74071   0.42583   0.41996   0.00000  Uiso   1.00
H460   H     0.80019   0.48811   0.07985   0.00000  Uiso   1.00
H461   H     0.70065   0.39262   0.39819   0.00000  Uiso   1.00
H462   H     0.93724   0.50149   0.42860   0.00000  Uiso   1.00
H463   H     0.98938   0.55096   0.02273   0.00000  Uiso   1.00
H464   H     0.70978   0.57404   0.01836   0.00000  Uiso   1.00
H465   H     0.99180   0.51384   0.09017   0.00000  Uiso   1.00
H466   H     0.71055   0.54197   0.08778   0.00000  Uiso   1.00
H467   H     0.67840   0.60945   0.09747   0.00000  Uiso   1.00
H468   H     0.98733   0.57707   0.14340   0.00000  Uiso   1.00
H469   H     0.95935   0.58059   0.10124   0.00000  Uiso   1.00
H470   H     0.88985   0.52459   0.39131   0.00000  Uiso   1.00
H471   H     0.73661   0.52637   0.42350   0.00000  Uiso   1.00
H472   H     0.68224   0.51727   0.20441   0.00000  Uiso   1.00
H473   H     0.75594   0.49084   0.04313   0.00000  Uiso   1.00
H474   H     0.92799   0.46638   0.07363   0.00000  Uiso   1.00
H475   H     0.97339   0.45072   0.36233   0.00000  Uiso   1.00
H476   H     0.68641   0.44219   0.31821   0.00000  Uiso   1.00
H477   H     0.92502   0.41636   0.31600   0.00000  Uiso   1.00
H478   H     0.97077   0.40765   0.26946   0.00000  Uiso   1.00
O479   O     0.83333   0.50000   0.25000   0.00000  Uiso   1.00
O480   O     0.82118   0.45970   0.15459   0.00000  Uiso   1.00
O481   O     0.79607   0.53724   0.34968   0.00000  Uiso   1.00
O482   O     0.87491   0.51092   0.14606   0.00000  Uiso   1.00
O483   O     0.84118   0.49213   0.34968   0.00000  Uiso   1.00
O484   O     0.97998   0.48541   0.30911   0.00000  Uiso   1.00
O485   O     0.78986   0.66237   0.30543   0.00000  Uiso   1.00
O486   O     0.69940   0.50827   0.00573   0.00000  Uiso   1.00
O487   O     0.84597   0.41352   0.28214   0.00000  Uiso   1.00
O488   O     0.81298   0.59418   0.27013   0.00000  Uiso   1.00
O489   O     0.74078   0.46625   0.23413   0.00000  Uiso   1.00
O490   O     0.93360   0.52605   0.21361   0.00000  Uiso   1.00
O491   O     0.73738   0.52211   0.28213   0.00000  Uiso   1.00
O492   O     0.92158   0.48559   0.27014   0.00000  Uiso   1.00
O493   O     0.80426   0.40277   0.23413   0.00000  Uiso   1.00
O494   O     0.87012   0.58953   0.21360   0.00000  Uiso   1.00
Zn495  Zn    0.86005   0.47327   0.28734   0.00000  Uiso   1.00
Zn496  Zn    0.80046   0.45791   0.21876   0.00000  Uiso   1.00
Zn497  Zn    0.87723   0.53109   0.20657   0.00000  Uiso   1.00
Zn498  Zn    0.79560   0.53773   0.28733   0.00000  Uiso   1.00
C499   C     0.05297   0.82698   0.25986   0.00000  Uiso   1.00
C500   C     0.16523   0.81714   0.05908   0.00000  Uiso   1.00
C501   C     0.23776   0.80533   0.05667   0.00000  Uiso   1.00
C502   C     0.28076   0.84023   0.24010   0.00000  Uiso   1.00
C503   C     0.13595   0.85318   0.42031   0.00000  Uiso   1.00
C504   C     0.32648   0.83987   0.23499   0.00000  Uiso   1.00
C505   C     0.00718   0.82486   0.26655   0.00000  Uiso   1.00
C506   C     0.17798   0.98901   0.23683   0.00000  Uiso   1.00
C507   C     0.15083   0.67900   0.26677   0.00000  Uiso   1.00
C508   C     0.15656   0.72280   0.26021   0.00000  Uiso   1.00
C509   C     0.17630   0.94464   0.24045   0.00000  Uiso   1.00
C510   C     0.07651   0.84561   0.48682   0.00000  Uiso   1.00
C511   C     0.18563   0.81507   0.12939   0.00000  Uiso   1.00
C512   C     0.14861   0.85136   0.37097   0.00000  Uiso   1.00
C513   C     0.25077   0.81151   0.01124   0.00000  Uiso   1.00
C514   C     0.19538   0.80929   0.08079   0.00000  Uiso   1.00
C515   C     0.09241   0.85465   0.44210   0.00000  Uiso   1.00
C516   C     0.31891   0.78128   0.32519   0.00000  Uiso   1.00
C517   C     0.29271   0.74422   0.30667   0.00000  Uiso   1.00
C518   C     0.29684   0.70387   0.32530   0.00000  Uiso   1.00
C519   C     0.08938   0.68656   0.32747   0.00000  Uiso   1.00
C520   C     0.09983   0.71229   0.36834   0.00000  Uiso   1.00
C521   C     0.10406   0.83435   0.01003   0.00000  Uiso   1.00
C522   C     0.06684   0.74273   0.38913   0.00000  Uiso   1.00
C523   C     0.02016   0.87940   0.02943   0.00000  Uiso   1.00
C524   C     0.01270   0.87628   0.07995   0.00000  Uiso   1.00
C525   C     0.32479   0.91323   0.10708   0.00000  Uiso   1.00
C526   C     0.14866   0.83478   0.48998   0.00000  Uiso   1.00
C527   C     0.16472   0.84521   0.44467   0.00000  Uiso   1.00
C528   C     0.17772   0.82416   0.01302   0.00000  Uiso   1.00
C529   C     0.22166   0.82256   0.48970   0.00000  Uiso   1.00
C530   C     0.23681   0.83421   0.44587   0.00000  Uiso   1.00
C531   C     0.20914   0.84678   0.42427   0.00000  Uiso   1.00
H532   H     0.28414   0.80979   0.49347   0.00000  Uiso   1.00
H533   H     0.33083   0.69722   0.31539   0.00000  Uiso   1.00
H534   H     0.27723   0.67774   0.31161   0.00000  Uiso   1.00
H535   H     0.28523   0.70615   0.36249   0.00000  Uiso   1.00
H536   H     0.20153   0.66956   0.20868   0.00000  Uiso   1.00
H537   H     0.06022   0.99802   0.33979   0.00000  Uiso   1.00
H538   H     0.08035   0.70620   0.30495   0.00000  Uiso   1.00
H539   H     0.10029   0.69097   0.39388   0.00000  Uiso   1.00
H540   H     0.13204   0.73010   0.35870   0.00000  Uiso   1.00
H541   H     0.06824   0.76622   0.36516   0.00000  Uiso   1.00
H542   H     0.07405   0.75916   0.41996   0.00000  Uiso   1.00
H543   H     0.13352   0.82144   0.07985   0.00000  Uiso   1.00
H544   H     0.03399   0.72596   0.39819   0.00000  Uiso   1.00
H545   H     0.27058   0.83482   0.42860   0.00000  Uiso   1.00
H546   H     0.32271   0.88429   0.02273   0.00000  Uiso   1.00
H547   H     0.04312   0.90737   0.01836   0.00000  Uiso   1.00
H548   H     0.32513   0.84717   0.09017   0.00000  Uiso   1.00
H549   H     0.04388   0.87531   0.08778   0.00000  Uiso   1.00
H550   H     0.01173   0.94279   0.09747   0.00000  Uiso   1.00
H551   H     0.32067   0.91040   0.14340   0.00000  Uiso   1.00
H552   H     0.29269   0.91393   0.10124   0.00000  Uiso   1.00
H553   H     0.22318   0.85792   0.39131   0.00000  Uiso   1.00
H554   H     0.06994   0.85970   0.42350   0.00000  Uiso   1.00
H555   H     0.01558   0.85060   0.20441   0.00000  Uiso   1.00
H556   H     0.08927   0.82418   0.04313   0.00000  Uiso   1.00
H557   H     0.26132   0.79971   0.07363   0.00000  Uiso   1.00
H558   H     0.30672   0.78405   0.36233   0.00000  Uiso   1.00
H559   H     0.01974   0.77553   0.31821   0.00000  Uiso   1.00
H560   H     0.25835   0.74969   0.31600   0.00000  Uiso   1.00
H561   H     0.30410   0.74098   0.26946   0.00000  Uiso   1.00
O562   O     0.16667   0.83333   0.25000   0.00000  Uiso   1.00
O563   O     0.15451   0.79304   0.15459   0.00000  Uiso   1.00
O564   O     0.12940   0.87058   0.34968   0.00000  Uiso   1.00
O565   O     0.20824   0.84425   0.14606   0.00000  Uiso   1.00
O566   O     0.17451   0.82546   0.34968   0.00000  Uiso   1.00
O567   O     0.31331   0.81874   0.30911   0.00000  Uiso   1.00
O568   O     0.12319   0.99571   0.30543   0.00000  Uiso   1.00
O569   O     0.03274   0.84160   0.00573   0.00000  Uiso   1.00
O570   O     0.17930   0.74686   0.28214   0.00000  Uiso   1.00
O571   O     0.14632   0.92751   0.27013   0.00000  Uiso   1.00
O572   O     0.07412   0.79958   0.23413   0.00000  Uiso   1.00
O573   O     0.26693   0.85939   0.21361   0.00000  Uiso   1.00
O574   O     0.07071   0.85544   0.28213   0.00000  Uiso   1.00
O575   O     0.25491   0.81892   0.27014   0.00000  Uiso   1.00
O576   O     0.13760   0.73610   0.23413   0.00000  Uiso   1.00
O577   O     0.20345   0.92286   0.21360   0.00000  Uiso   1.00
Zn578  Zn    0.19338   0.80661   0.28734   0.00000  Uiso   1.00
Zn579  Zn    0.13379   0.79124   0.21876   0.00000  Uiso   1.00
Zn580  Zn    0.21056   0.86442   0.20657   0.00000  Uiso   1.00
Zn581  Zn    0.12893   0.87106   0.28733   0.00000  Uiso   1.00
C582   C     0.38630   0.82698   0.25986   0.00000  Uiso   1.00
C583   C     0.49857   0.81714   0.05908   0.00000  Uiso   1.00
C584   C     0.57110   0.80533   0.05667   0.00000  Uiso   1.00
C585   C     0.61409   0.84023   0.24010   0.00000  Uiso   1.00
C586   C     0.46928   0.85318   0.42031   0.00000  Uiso   1.00
C587   C     0.65981   0.83987   0.23499   0.00000  Uiso   1.00
C588   C     0.34051   0.82486   0.26655   0.00000  Uiso   1.00
C589   C     0.51132   0.98901   0.23683   0.00000  Uiso   1.00
C590   C     0.48416   0.67900   0.26677   0.00000  Uiso   1.00
C591   C     0.48990   0.72280   0.26021   0.00000  Uiso   1.00
C592   C     0.50963   0.94464   0.24045   0.00000  Uiso   1.00
C593   C     0.40984   0.84561   0.48682   0.00000  Uiso   1.00
C594   C     0.51897   0.81507   0.12939   0.00000  Uiso   1.00
C595   C     0.48195   0.85136   0.37097   0.00000  Uiso   1.00
C596   C     0.58410   0.81151   0.01124   0.00000  Uiso   1.00
C597   C     0.52872   0.80929   0.08079   0.00000  Uiso   1.00
C598   C     0.42574   0.85465   0.44210   0.00000  Uiso   1.00
C599   C     0.65224   0.78128   0.32519   0.00000  Uiso   1.00
C600   C     0.62605   0.74422   0.30667   0.00000  Uiso   1.00
C601   C     0.63018   0.70387   0.32530   0.00000  Uiso   1.00
C602   C     0.42271   0.68656   0.32747   0.00000  Uiso   1.00
C603   C     0.43316   0.71229   0.36834   0.00000  Uiso   1.00
C604   C     0.43739   0.83435   0.01003   0.00000  Uiso   1.00
C605   C     0.40017   0.74273   0.38913   0.00000  Uiso   1.00
C606   C     0.35349   0.87940   0.02943   0.00000  Uiso   1.00
C607   C     0.34603   0.87628   0.07995   0.00000  Uiso   1.00
C608   C     0.65812   0.91323   0.10708   0.00000  Uiso   1.00
C609   C     0.48199   0.83478   0.48998   0.00000  Uiso   1.00
C610   C     0.49805   0.84521   0.44467   0.00000  Uiso   1.00
C611   C     0.51105   0.82416   0.01302   0.00000  Uiso   1.00
C612   C     0.55499   0.82256   0.48970   0.00000  Uiso   1.00
C613   C     0.57014   0.83421   0.44587   0.00000  Uiso   1.00
C614   C     0.54247   0.84678   0.42427   0.00000  Uiso   1.00
H615   H     0.61747   0.80979   0.49347   0.00000  Uiso   1.00
H616   H     0.66416   0.69722   0.31539   0.00000  Uiso   1.00
H617   H     0.61057   0.67774   0.31161   0.00000  Uiso   1.00
H618   H     0.61856   0.70615   0.36249   0.00000  Uiso   1.00
H619   H     0.53487   0.66956   0.20868   0.00000  Uiso   1.00
H620   H     0.39355   0.99802   0.33979   0.00000  Uiso   1.00
H621   H     0.41368   0.70620   0.30495   0.00000  Uiso   1.00
H622   H     0.43362   0.69097   0.39388   0.00000  Uiso   1.00
H623   H     0.46537   0.73010   0.35870   0.00000  Uiso   1.00
H624   H     0.40157   0.76622   0.36516   0.00000  Uiso   1.00
H625   H     0.40738   0.75916   0.41996   0.00000  Uiso   1.00
H626   H     0.46686   0.82144   0.07985   0.00000  Uiso   1.00
H627   H     0.36732   0.72596   0.39819   0.00000  Uiso   1.00
H628   H     0.60391   0.83482   0.42860   0.00000  Uiso   1.00
H629   H     0.65605   0.88429   0.02273   0.00000  Uiso   1.00
H630   H     0.37645   0.90737   0.01836   0.00000  Uiso   1.00
H631   H     0.65846   0.84717   0.09017   0.00000  Uiso   1.00
H632   H     0.37722   0.87531   0.08778   0.00000  Uiso   1.00
H633   H     0.34507   0.94279   0.09747   0.00000  Uiso   1.00
H634   H     0.65400   0.91040   0.14340   0.00000  Uiso   1.00
H635   H     0.62602   0.91393   0.10124   0.00000  Uiso   1.00
H636   H     0.55652   0.85792   0.39131   0.00000  Uiso   1.00
H637   H     0.40327   0.85970   0.42350   0.00000  Uiso   1.00
H638   H     0.34891   0.85060   0.20441   0.00000  Uiso   1.00
H639   H     0.42261   0.82418   0.04313   0.00000  Uiso   1.00
H640   H     0.59465   0.79971   0.07363   0.00000  Uiso   1.00
H641   H     0.64005   0.78405   0.36233   0.00000  Uiso   1.00
H642   H     0.35308   0.77553   0.31821   0.00000  Uiso   1.00
H643   H     0.59168   0.74969   0.31600   0.00000  Uiso   1.00
H644   H     0.63743   0.74098   0.26946   0.00000  Uiso   1.00
O645   O     0.50000   0.83333   0.25000   0.00000  Uiso   1.00
O646   O     0.48784   0.79304   0.15459   0.00000  Uiso   1.00
O647   O     0.46274   0.87058   0.34968   0.00000  Uiso   1.00
O648   O     0.54157   0.84425   0.14606   0.00000  Uiso   1.00
O649   O     0.50785   0.82546   0.34968   0.00000  Uiso   1.00
O650   O     0.64665   0.81874   0.30911   0.00000  Uiso   1.00
O651   O     0.45653   0.99571   0.30543   0.00000  Uiso   1.00
O652   O     0.36607   0.84160   0.00573   0.00000  Uiso   1.00
O653   O     0.51264   0.74686   0.28214   0.00000  Uiso   1.00
O654   O     0.47965   0.92751   0.27013   0.00000  Uiso   1.00
O655   O     0.40745   0.79958   0.23413   0.00000  Uiso   1.00
O656   O     0.60026   0.85939   0.21361   0.00000  Uiso   1.00
O657   O     0.40405   0.85544   0.28213   0.00000  Uiso   1.00
O658   O     0.58824   0.81892   0.27014   0.00000  Uiso   1.00
O659   O     0.47093   0.73610   0.23413   0.00000  Uiso   1.00
O660   O     0.53678   0.92286   0.21360   0.00000  Uiso   1.00
Zn661  Zn    0.52672   0.80661   0.28734   0.00000  Uiso   1.00
Zn662  Zn    0.46713   0.79124   0.21876   0.00000  Uiso   1.00
Zn663  Zn    0.54389   0.86442   0.20657   0.00000  Uiso   1.00
Zn664  Zn    0.46226   0.87106   0.28733   0.00000  Uiso   1.00
C665   C     0.71963   0.82698   0.25986   0.00000  Uiso   1.00
C666   C     0.83190   0.81714   0.05908   0.00000  Uiso   1.00
C667   C     0.90443   0.80533   0.05667   0.00000  Uiso   1.00
C668   C     0.94742   0.84023   0.24010   0.00000  Uiso   1.00
C669   C     0.80262   0.85318   0.42031   0.00000  Uiso   1.00
C670   C     0.99315   0.83987   0.23499   0.00000  Uiso   1.00
C671   C     0.67385   0.82486   0.26655   0.00000  Uiso   1.00
C672   C     0.84465   0.98901   0.23683   0.00000  Uiso   1.00
C673   C     0.81749   0.67900   0.26677   0.00000  Uiso   1.00
C674   C     0.82323   0.72280   0.26021   0.00000  Uiso   1.00
C675   C     0.84297   0.94464   0.24045   0.00000  Uiso   1.00
C676   C     0.74318   0.84561   0.48682   0.00000  Uiso   1.00
C677   C     0.85230   0.81507   0.12939   0.00000  Uiso   1.00
C678   C     0.81528   0.85136   0.37097   0.00000  Uiso   1.00
C679   C     0.91744   0.81151   0.01124   0.00000  Uiso   1.00
C680   C     0.86205   0.80929   0.08079   0.00000  Uiso   1.00
C681   C     0.75908   0.85465   0.44210   0.00000  Uiso   1.00
C682   C     0.98557   0.78128   0.32519   0.00000  Uiso   1.00
C683   C     0.95938   0.74422   0.30667   0.00000  Uiso   1.00
C684   C     0.96351   0.70387   0.32530   0.00000  Uiso   1.00
C685   C     0.75604   0.68656   0.32747   0.00000  Uiso   1.00
C686   C     0.76649   0.71229   0.36834   0.00000  Uiso   1.00
C687   C     0.77073   0.83435   0.01003   0.00000  Uiso   1.00
C688   C     0.73351   0.74273   0.38913   0.00000  Uiso   1.00
C689   C     0.68683   0.87940   0.02943   0.00000  Uiso   1.00
C690   C     0.67937   0.87628   0.07995   0.00000  Uiso   1.00
C691   C     0.99145   0.91323   0.10708   0.00000  Uiso   1.00
C692   C     0.81532   0.83478   0.48998   0.00000  Uiso   1.00
C693   C     0.83139   0.84521   0.44467   0.00000  Uiso   1.00
C694   C     0.84438   0.82416   0.01302   0.00000  Uiso   1.00
C695   C     0.88832   0.82256   0.48970   0.00000  Uiso   1.00
C696   C     0.90347   0.83421   0.44587   0.00000  Uiso   1.00
C697   C     0.87580   0.84678   0.42427   0.00000  Uiso   1.00
H698   H     0.95080   0.80979   0.49347   0.00000  Uiso   1.00
H699   H     0.99749   0.69722   0.31539   0.00000  Uiso   1.00
H700   H     0.94390   0.67774   0.31161   0.00000  Uiso   1.00
H701   H     0.95190   0.70615   0.36249   0.00000  Uiso   1.00
H702   H     0.86820   0.66956   0.20868   0.00000  Uiso   1.00
H703   H     0.72689   0.99802   0.33979   0.00000  Uiso   1.00
H704   H     0.74701   0.70620   0.30495   0.00000  Uiso   1.00
H705   H     0.76695   0.69097   0.39388   0.00000  Uiso   1.00
H706   H     0.79870   0.73010   0.35870   0.00000  Uiso   1.00
H707   H     0.73490   0.76622   0.36516   0.00000  Uiso   1.00
H708   H     0.74071   0.75916   0.41996   0.00000  Uiso   1.00
H709   H     0.80019   0.82144   0.07985   0.00000  Uiso   1.00
H710   H     0.70065   0.72596   0.39819   0.00000  Uiso   1.00
H711   H     0.93724   0.83482   0.42860   0.00000  Uiso   1.00
H712   H     0.98938   0.88429   0.02273   0.00000  Uiso   1.00
H713   H     0.70978   0.90737   0.01836   0.00000  Uiso   1.00
H714   H     0.99180   0.84717   0.09017   0.00000  Uiso   1.00
H715   H     0.71055   0.87531   0.08778   0.00000  Uiso   1.00
H716   H     0.67840   0.94279   0.09747   0.00000  Uiso   1.00
H717   H     0.98733   0.91040   0.14340   0.00000  Uiso   1.00
H718   H     0.95935   0.91393   0.10124   0.00000  Uiso   1.00
H719   H     0.88985   0.85792   0.39131   0.00000  Uiso   1.00
H720   H     0.73661   0.85970   0.42350   0.00000  Uiso   1.00
H721   H     0.68224   0.85060   0.20441   0.00000  Uiso   1.00
H722   H     0.75594   0.82418   0.04313   0.00000  Uiso   1.00
H723   H     0.92799   0.79971   0.07363   0.00000  Uiso   1.00
H724   H     0.97339   0.78405   0.36233   0.00000  Uiso   1.00
H725   H     0.68641   0.77553   0.31821   0.00000  Uiso   1.00
H726   H     0.92502   0.74969   0.31600   0.00000  Uiso   1.00
H727   H     0.97077   0.74098   0.26946   0.00000  Uiso   1.00
O728   O     0.83333   0.83333   0.25000   0.00000  Uiso   1.00
O729   O     0.82118   0.79304   0.15459   0.00000  Uiso   1.00
O730   O     0.79607   0.87058   0.34968   0.00000  Uiso   1.00
O731   O     0.87491   0.84425   0.14606   0.00000  Uiso   1.00
O732   O     0.84118   0.82546   0.34968   0.00000  Uiso   1.00
O733   O     0.97998   0.81874   0.30911   0.00000  Uiso   1.00
O734   O     0.78986   0.99571   0.30543   0.00000  Uiso   1.00
O735   O     0.69940   0.84160   0.00573   0.00000  Uiso   1.00
O736   O     0.84597   0.74686   0.28214   0.00000  Uiso   1.00
O737   O     0.81298   0.92751   0.27013   0.00000  Uiso   1.00
O738   O     0.74078   0.79958   0.23413   0.00000  Uiso   1.00
O739   O     0.93360   0.85939   0.21361   0.00000  Uiso   1.00
O740   O     0.73738   0.85544   0.28213   0.00000  Uiso   1.00
O741   O     0.92158   0.81892   0.27014   0.00000  Uiso   1.00
O742   O     0.80426   0.73610   0.23413   0.00000  Uiso   1.00
O743   O     0.87012   0.92286   0.21360   0.00000  Uiso   1.00
Zn744  Zn    0.86005   0.80661   0.28734   0.00000  Uiso   1.00
Zn745  Zn    0.80046   0.79124   0.21876   0.00000  Uiso   1.00
Zn746  Zn    0.87723   0.86442   0.20657   0.00000  Uiso   1.00
Zn747  Zn    0.79560   0.87106   0.28733   0.00000  Uiso   1.00
C748   C     0.05297   0.16031   0.75986   0.00000  Uiso   1.00
C749   C     0.16523   0.15048   0.55908   0.00000  Uiso   1.00
C750   C     0.23776   0.13866   0.55667   0.00000  Uiso   1.00
C751   C     0.28076   0.17356   0.74010   0.00000  Uiso   1.00
C752   C     0.13595   0.18652   0.92031   0.00000  Uiso   1.00
C753   C     0.32648   0.17320   0.73499   0.00000  Uiso   1.00
C754   C     0.00718   0.15819   0.76655   0.00000  Uiso   1.00
C755   C     0.17798   0.32234   0.73683   0.00000  Uiso   1.00
C756   C     0.15083   0.01233   0.76677   0.00000  Uiso   1.00
C757   C     0.15656   0.05613   0.76021   0.00000  Uiso   1.00
C758   C     0.17630   0.27797   0.74045   0.00000  Uiso   1.00
C759   C     0.07651   0.17894   0.98682   0.00000  Uiso   1.00
C760   C     0.18563   0.14841   0.62939   0.00000  Uiso   1.00
C761   C     0.14861   0.18469   0.87097   0.00000  Uiso   1.00
C762   C     0.25077   0.14485   0.51124   0.00000  Uiso   1.00
C763   C     0.19538   0.14262   0.58079   0.00000  Uiso   1.00
C764   C     0.09241   0.18798   0.94210   0.00000  Uiso   1.00
C765   C     0.31891   0.11461   0.82519   0.00000  Uiso   1.00
C766   C     0.29271   0.07755   0.80667   0.00000  Uiso   1.00
C767   C     0.29684   0.03721   0.82530   0.00000  Uiso   1.00
C768   C     0.08938   0.01989   0.82747   0.00000  Uiso   1.00
C769   C     0.09983   0.04562   0.86834   0.00000  Uiso   1.00
C770   C     0.10406   0.16768   0.51003   0.00000  Uiso   1.00
C771   C     0.06684   0.07606   0.88913   0.00000  Uiso   1.00
C772   C     0.02016   0.21273   0.52943   0.00000  Uiso   1.00
C773   C     0.01270   0.20962   0.57995   0.00000  Uiso   1.00
C774   C     0.32479   0.24656   0.60708   0.00000  Uiso   1.00
C775   C     0.14866   0.16811   0.98998   0.00000  Uiso   1.00
C776   C     0.16472   0.17854   0.94467   0.00000  Uiso   1.00
C777   C     0.17772   0.15749   0.51302   0.00000  Uiso   1.00
C778   C     0.22166   0.15590   0.98970   0.00000  Uiso   1.00
C779   C     0.23681   0.16754   0.94587   0.00000  Uiso   1.00
C780   C     0.20914   0.18012   0.92427   0.00000  Uiso   1.00
H781   H     0.28414   0.14313   0.99347   0.00000  Uiso   1.00
H782   H     0.33083   0.03055   0.81539   0.00000  Uiso   1.00
H783   H     0.27723   0.01107   0.81161   0.00000  Uiso   1.00
H784   H     0.28523   0.03949   0.86249   0.00000  Uiso   1.00
H785   H     0.20153   0.00289   0.70868   0.00000  Uiso   1.00
H786   H     0.06022   0.33135   0.83979   0.00000  Uiso   1.00
H787   H     0.08035   0.03953   0.80495   0.00000  Uiso   1.00
H788   H     0.10029   0.02430   0.89388   0.00000  Uiso   1.00
H789   H     0.13204   0.06343   0.85870   0.00000  Uiso   1.00
H790   H     0.06824   0.09955   0.86516   0.00000  Uiso   1.00
H791   H     0.07405   0.09249   0.91996   0.00000  Uiso   1.00
H792   H     0.13352   0.15478   0.57985   0.00000  Uiso   1.00
H793   H     0.03399   0.05929   0.89819   0.00000  Uiso   1.00
H794   H     0.27058   0.16816   0.92860   0.00000  Uiso   1.00
H795   H     0.32271   0.21762   0.52273   0.00000  Uiso   1.00
H796   H     0.04312   0.24070   0.51836   0.00000  Uiso   1.00
H797   H     0.32513   0.18051   0.59017   0.00000  Uiso   1.00
H798   H     0.04388   0.20864   0.58778   0.00000  Uiso   1.00
H799   H     0.01173   0.27612   0.59747   0.00000  Uiso   1.00
H800   H     0.32067   0.24374   0.64340   0.00000  Uiso   1.00
H801   H     0.29269   0.24726   0.60124   0.00000  Uiso   1.00
H802   H     0.22318   0.19126   0.89131   0.00000  Uiso   1.00
H803   H     0.06994   0.19304   0.92350   0.00000  Uiso   1.00
H804   H     0.01558   0.18394   0.70441   0.00000  Uiso   1.00
H805   H     0.08927   0.15751   0.54313   0.00000  Uiso   1.00
H806   H     0.26132   0.13304   0.57363   0.00000  Uiso   1.00
H807   H     0.30672   0.11739   0.86233   0.00000  Uiso   1.00
H808   H     0.01974   0.10886   0.81821   0.00000  Uiso   1.00
H809   H     0.25835   0.08303   0.81600   0.00000  Uiso   1.00
H810   H     0.30410   0.07432   0.76946   0.00000  Uiso   1.00
O811   O     0.16667   0.16667   0.75000   0.00000  Uiso   1.00
O812   O     0.15451   0.12637   0.65459   0.00000  Uiso   1.00
O813   O     0.12940   0.20391   0.84968   0.00000  Uiso   1.00
O814   O     0.20824   0.17759   0.64606   0.00000  Uiso   1.00
O815   O     0.17451   0.15880   0.84968   0.00000  Uiso   1.00
O816   O     0.31331   0.15208   0.80911   0.00000  Uiso   1.00
O817   O     0.12319   0.32904   0.80543   0.00000  Uiso   1.00
O818   O     0.03274   0.17493   0.50573   0.00000  Uiso   1.00
O819   O     0.17930   0.08019   0.78214   0.00000  Uiso   1.00
O820   O     0.14632   0.26085   0.77013   0.00000  Uiso   1.00
O821   O     0.07412   0.13291   0.73413   0.00000  Uiso   1.00
O822   O     0.26693   0.19272   0.71361   0.00000  Uiso   1.00
O823   O     0.07071   0.18878   0.78213   0.00000  Uiso   1.00
O824   O     0.25491   0.15226   0.77014   0.00000  Uiso   1.00
O825   O     0.13760   0.06944   0.73413   0.00000  Uiso   1.00
O826   O     0.20345   0.25620   0.71360   0.00000  Uiso   1.00
Zn827  Zn    0.19338   0.13994   0.78734   0.00000  Uiso   1.00
Zn828  Zn    0.13379   0.12458   0.71876   0.00000  Uiso   1.00
Zn829  Zn    0.21056   0.19775   0.70657   0.00000  Uiso   1.00
Zn830  Zn    0.12893   0.20439   0.78733   0.00000  Uiso   1.00
C831   C     0.38630   0.16031   0.75986   0.00000  Uiso   1.00
C832   C     0.49857   0.15048   0.55908   0.00000  Uiso   1.00
C833   C     0.57110   0.13866   0.55667   0.00000  Uiso   1.00
C834   C     0.61409   0.17356   0.74010   0.00000  Uiso   1.00
C835   C     0.46928   0.18652   0.92031   0.00000  Uiso   1.00
C836   C     0.65981   0.17320   0.73499   0.00000  Uiso   1.00
C837   C     0.34051   0.15819   0.76655   0.00000  Uiso   1.00
C838   C     0.51132   0.32234   0.73683   0.00000  Uiso   1.00
C839   C     0.48416   0.01233   0.76677   0.00000  Uiso   1.00
C840   C     0.48990   0.05613   0.76021   0.00000  Uiso   1.00
C841   C     0.50963   0.27797   0.74045   0.00000  Uiso   1.00
C842   C     0.40984   0.17894   0.98682   0.00000  Uiso   1.00
C843   C     0.51897   0.14841   0.62939   0.00000  Uiso   1.00
C844   C     0.48195   0.18469   0.87097   0.00000  Uiso   1.00
C845   C     0.58410   0.14485   0.51124   0.00000  Uiso   1.00
C846   C     0.52872   0.14262   0.58079   0.00000  Uiso   1.00
C847   C     0.42574   0.18798   0.94210   0.00000  Uiso   1.00
C848   C     0.65224   0.11461   0.82519   0.00000  Uiso   1.00
C849   C     0.62605   0.07755   0.80667   0.00000  Uiso   1.00
C850   C     0.63018   0.03721   0.82530   0.00000  Uiso   1.00
C851   C     0.42271   0.01989   0.82747   0.00000  Uiso   1.00
C852   C     0.43316   0.04562   0.86834   0.00000  Uiso   1.00
C853   C     0.43739   0.16768   0.51003   0.00000  Uiso   1.00
C854   C     0.40017   0.07606   0.88913   0.00000  Uiso   1.00
C855   C     0.35349   0.21273   0.52943   0.00000  Uiso   1.00
C856   C     0.34603   0.20962   0.57995   0.00000  Uiso   1.00
C857   C     0.65812   0.24656   0.60708   0.00000  Uiso   1.00
C858   C     0.48199   0.16811   0.98998   0.00000  Uiso   1.00
C859   C     0.49805   0.17854   0.94467   0.00000  Uiso   1.00
C860   C     0.51105   0.15749   0.51302   0.00000  Uiso   1.00
C861   C     0.55499   0.15590   0.98970   0.00000  Uiso   1.00
C862   C     0.57014   0.16754   0.94587   0.00000  Uiso   1.00
C863   C     0.54247   0.18012   0.92427   0.00000  Uiso   1.00
H864   H     0.61747   0.14313   0.99347   0.00000  Uiso   1.00
H865   H     0.66416   0.03055   0.81539   0.00000  Uiso   1.00
H866   H     0.61057   0.01107   0.81161   0.00000  Uiso   1.00
H867   H     0.61856   0.03949   0.86249   0.00000  Uiso   1.00
H868   H     0.53487   0.00289   0.70868   0.00000  Uiso   1.00
H869   H     0.39355   0.33135   0.83979   0.00000  Uiso   1.00
H870   H     0.41368   0.03953   0.80495   0.00000  Uiso   1.00
H871   H     0.43362   0.02430   0.89388   0.00000  Uiso   1.00
H872   H     0.46537   0.06343   0.85870   0.00000  Uiso   1.00
H873   H     0.40157   0.09955   0.86516   0.00000  Uiso   1.00
H874   H     0.40738   0.09249   0.91996   0.00000  Uiso   1.00
H875   H     0.46686   0.15478   0.57985   0.00000  Uiso   1.00
H876   H     0.36732   0.05929   0.89819   0.00000  Uiso   1.00
H877   H     0.60391   0.16816   0.92860   0.00000  Uiso   1.00
H878   H     0.65605   0.21762   0.52273   0.00000  Uiso   1.00
H879   H     0.37645   0.24070   0.51836   0.00000  Uiso   1.00
H880   H     0.65846   0.18051   0.59017   0.00000  Uiso   1.00
H881   H     0.37722   0.20864   0.58778   0.00000  Uiso   1.00
H882   H     0.34507   0.27612   0.59747   0.00000  Uiso   1.00
H883   H     0.65400   0.24374   0.64340   0.00000  Uiso   1.00
H884   H     0.62602   0.24726   0.60124   0.00000  Uiso   1.00
H885   H     0.55652   0.19126   0.89131   0.00000  Uiso   1.00
H886   H     0.40327   0.19304   0.92350   0.00000  Uiso   1.00
H887   H     0.34891   0.18394   0.70441   0.00000  Uiso   1.00
H888   H     0.42261   0.15751   0.54313   0.00000  Uiso   1.00
H889   H     0.59465   0.13304   0.57363   0.00000  Uiso   1.00
H890   H     0.64005   0.11739   0.86233   0.00000  Uiso   1.00
H891   H     0.35308   0.10886   0.81821   0.00000  Uiso   1.00
H892   H     0.59168   0.08303   0.81600   0.00000  Uiso   1.00
H893   H     0.63743   0.07432   0.76946   0.00000  Uiso   1.00
O894   O     0.50000   0.16667   0.75000   0.00000  Uiso   1.00
O895   O     0.48784   0.12637   0.65459   0.00000  Uiso   1.00
O896   O     0.46274   0.20391   0.84968   0.00000  Uiso   1.00
O897   O     0.54157   0.17759   0.64606   0.00000  Uiso   1.00
O898   O     0.50785   0.15880   0.84968   0.00000  Uiso   1.00
O899   O     0.64665   0.15208   0.80911   0.00000  Uiso   1.00
O900   O     0.45653   0.32904   0.80543   0.00000  Uiso   1.00
O901   O     0.36607   0.17493   0.50573   0.00000  Uiso   1.00
O902   O     0.51264   0.08019   0.78214   0.00000  Uiso   1.00
O903   O     0.47965   0.26085   0.77013   0.00000  Uiso   1.00
O904   O     0.40745   0.13291   0.73413   0.00000  Uiso   1.00
O905   O     0.60026   0.19272   0.71361   0.00000  Uiso   1.00
O906   O     0.40405   0.18878   0.78213   0.00000  Uiso   1.00
O907   O     0.58824   0.15226   0.77014   0.00000  Uiso   1.00
O908   O     0.47093   0.06944   0.73413   0.00000  Uiso   1.00
O909   O     0.53678   0.25620   0.71360   0.00000  Uiso   1.00
Zn910  Zn    0.52672   0.13994   0.78734   0.00000  Uiso   1.00
Zn911  Zn    0.46713   0.12458   0.71876   0.00000  Uiso   1.00
Zn912  Zn    0.54389   0.19775   0.70657   0.00000  Uiso   1.00
Zn913  Zn    0.46226   0.20439   0.78733   0.00000  Uiso   1.00
C914   C     0.71963   0.16031   0.75986   0.00000  Uiso   1.00
C915   C     0.83190   0.15048   0.55908   0.00000  Uiso   1.00
C916   C     0.90443   0.13866   0.55667   0.00000  Uiso   1.00
C917   C     0.94742   0.17356   0.74010   0.00000  Uiso   1.00
C918   C     0.80262   0.18652   0.92031   0.00000  Uiso   1.00
C919   C     0.99315   0.17320   0.73499   0.00000  Uiso   1.00
C920   C     0.67385   0.15819   0.76655   0.00000  Uiso   1.00
C921   C     0.84465   0.32234   0.73683   0.00000  Uiso   1.00
C922   C     0.81749   0.01233   0.76677   0.00000  Uiso   1.00
C923   C     0.82323   0.05613   0.76021   0.00000  Uiso   1.00
C924   C     0.84297   0.27797   0.74045   0.00000  Uiso   1.00
C925   C     0.74318   0.17894   0.98682   0.00000  Uiso   1.00
C926   C     0.85230   0.14841   0.62939   0.00000  Uiso   1.00
C927   C     0.81528   0.18469   0.87097   0.00000  Uiso   1.00
C928   C     0.91744   0.14485   0.51124   0.00000  Uiso   1.00
C929   C     0.86205   0.14262   0.58079   0.00000  Uiso   1.00
C930   C     0.75908   0.18798   0.94210   0.00000  Uiso   1.00
C931   C     0.98557   0.11461   0.82519   0.00000  Uiso   1.00
C932   C     0.95938   0.07755   0.80667   0.00000  Uiso   1.00
C933   C     0.96351   0.03721   0.82530   0.00000  Uiso   1.00
C934   C     0.75604   0.01989   0.82747   0.00000  Uiso   1.00
C935   C     0.76649   0.04562   0.86834   0.00000  Uiso   1.00
C936   C     0.77073   0.16768   0.51003   0.00000  Uiso   1.00
C937   C     0.73351   0.07606   0.88913   0.00000  Uiso   1.00
C938   C     0.68683   0.21273   0.52943   0.00000  Uiso   1.00
C939   C     0.67937   0.20962   0.57995   0.00000  Uiso   1.00
C940   C     0.99145   0.24656   0.60708   0.00000  Uiso   1.00
C941   C     0.81532   0.16811   0.98998   0.00000  Uiso   1.00
C942   C     0.83139   0.17854   0.94467   0.00000  Uiso   1.00
C943   C     0.84438   0.15749   0.51302   0.00000  Uiso   1.00
C944   C     0.88832   0.15590   0.98970   0.00000  Uiso   1.00
C945   C     0.90347   0.16754   0.94587   0.00000  Uiso   1.00
C946   C     0.87580   0.18012   0.92427   0.00000  Uiso   1.00
H947   H     0.95080   0.14313   0.99347   0.00000  Uiso   1.00
H948   H     0.99749   0.03055   0.81539   0.00000  Uiso   1.00
H949   H     0.94390   0.01107   0.81161   0.00000  Uiso   1.00
H950   H     0.95190   0.03949   0.86249   0.00000  Uiso   1.00
H951   H     0.86820   0.00289   0.70868   0.00000  Uiso   1.00
H952   H     0.72689   0.33135   0.83979   0.00000  Uiso   1.00
H953   H     0.74701   0.03953   0.80495   0.00000  Uiso   1.00
H954   H     0.76695   0.02430   0.89388   0.00000  Uiso   1.00
H955   H     0.79870   0.06343   0.85870   0.00000  Uiso   1.00
H956   H     0.73490   0.09955   0.86516   0.00000  Uiso   1.00
H957   H     0.74071   0.09249   0.91996   0.00000  Uiso   1.00
H958   H     0.80019   0.15478   0.57985   0.00000  Uiso   1.00
H959   H     0.70065   0.05929   0.89819   0.00000  Uiso   1.00
H960   H     0.93724   0.16816   0.92860   0.00000  Uiso   1.00
H961   H     0.98938   0.21762   0.52273   0.00000  Uiso   1.00
H962   H     0.70978   0.24070   0.51836   0.00000  Uiso   1.00
H963   H     0.99180   0.18051   0.59017   0.00000  Uiso   1.00
H964   H     0.71055   0.20864   0.58778   0.00000  Uiso   1.00
H965   H     0.67840   0.27612   0.59747   0.00000  Uiso   1.00
H966   H     0.98733   0.24374   0.64340   0.00000  Uiso   1.00
H967   H     0.95935   0.24726   0.60124   0.00000  Uiso   1.00
H968   H     0.88985   0.19126   0.89131   0.00000  Uiso   1.00
H969   H     0.73661   0.19304   0.92350   0.00000  Uiso   1.00
H970   H     0.68224   0.18394   0.70441   0.00000  Uiso   1.00
H971   H     0.75594   0.15751   0.54313   0.00000  Uiso   1.00
H972   H     0.92799   0.13304   0.57363   0.00000  Uiso   1.00
H973   H     0.97339   0.11739   0.86233   0.00000  Uiso   1.00
H974   H     0.68641   0.10886   0.81821   0.00000  Uiso   1.00
H975   H     0.92502   0.08303   0.81600   0.00000  Uiso   1.00
H976   H     0.97077   0.07432   0.76946   0.00000  Uiso   1.00
O977   O     0.83333   0.16667   0.75000   0.00000  Uiso   1.00
O978   O     0.82118   0.12637   0.65459   0.00000  Uiso   1.00
O979   O     0.79607   0.20391   0.84968   0.00000  Uiso   1.00
O980   O     0.87491   0.17759   0.64606   0.00000  Uiso   1.00
O981   O     0.84118   0.15880   0.84968   0.00000  Uiso   1.00
O982   O     0.97998   0.15208   0.80911   0.00000  Uiso   1.00
O983   O     0.78986   0.32904   0.80543   0.00000  Uiso   1.00
O984   O     0.69940   0.17493   0.50573   0.00000  Uiso   1.00
O985   O     0.84597   0.08019   0.78214   0.00000  Uiso   1.00
O986   O     0.81298   0.26085   0.77013   0.00000  Uiso   1.00
O987   O     0.74078   0.13291   0.73413   0.00000  Uiso   1.00
O988   O     0.93360   0.19272   0.71361   0.00000  Uiso   1.00
O989   O     0.73738   0.18878   0.78213   0.00000  Uiso   1.00
O990   O     0.92158   0.15226   0.77014   0.00000  Uiso   1.00
O991   O     0.80426   0.06944   0.73413   0.00000  Uiso   1.00
O992   O     0.87012   0.25620   0.71360   0.00000  Uiso   1.00
Zn993  Zn    0.86005   0.13994   0.78734   0.00000  Uiso   1.00
Zn994  Zn    0.80046   0.12458   0.71876   0.00000  Uiso   1.00
Zn995  Zn    0.87723   0.19775   0.70657   0.00000  Uiso   1.00
Zn996  Zn    0.79560   0.20439   0.78733   0.00000  Uiso   1.00
C997   C     0.05297   0.49365   0.75986   0.00000  Uiso   1.00
C998   C     0.16523   0.48381   0.55908   0.00000  Uiso   1.00
C999   C     0.23776   0.47199   0.55667   0.00000  Uiso   1.00
C1000  C     0.28076   0.50690   0.74010   0.00000  Uiso   1.00
C1001  C     0.13595   0.51985   0.92031   0.00000  Uiso   1.00
C1002  C     0.32648   0.50653   0.73499   0.00000  Uiso   1.00
C1003  C     0.00718   0.49153   0.76655   0.00000  Uiso   1.00
C1004  C     0.17798   0.65567   0.73683   0.00000  Uiso   1.00
C1005  C     0.15083   0.34566   0.76677   0.00000  Uiso   1.00
C1006  C     0.15656   0.38947   0.76021   0.00000  Uiso   1.00
C1007  C     0.17630   0.61131   0.74045   0.00000  Uiso   1.00
C1008  C     0.07651   0.51228   0.98682   0.00000  Uiso   1.00
C1009  C     0.18563   0.48174   0.62939   0.00000  Uiso   1.00
C1010  C     0.14861   0.51802   0.87097   0.00000  Uiso   1.00
C1011  C     0.25077   0.47818   0.51124   0.00000  Uiso   1.00
C1012  C     0.19538   0.47596   0.58079   0.00000  Uiso   1.00
C1013  C     0.09241   0.52131   0.94210   0.00000  Uiso   1.00
C1014  C     0.31891   0.44795   0.82519   0.00000  Uiso   1.00
C1015  C     0.29271   0.41089   0.80667   0.00000  Uiso   1.00
C1016  C     0.29684   0.37054   0.82530   0.00000  Uiso   1.00
C1017  C     0.08938   0.35322   0.82747   0.00000  Uiso   1.00
C1018  C     0.09983   0.37895   0.86834   0.00000  Uiso   1.00
C1019  C     0.10406   0.50102   0.51003   0.00000  Uiso   1.00
C1020  C     0.06684   0.40939   0.88913   0.00000  Uiso   1.00
C1021  C     0.02016   0.54606   0.52943   0.00000  Uiso   1.00
C1022  C     0.01270   0.54295   0.57995   0.00000  Uiso   1.00
C1023  C     0.32479   0.57990   0.60708   0.00000  Uiso   1.00
C1024  C     0.14866   0.50145   0.98998   0.00000  Uiso   1.00
C1025  C     0.16472   0.51187   0.94467   0.00000  Uiso   1.00
C1026  C     0.17772   0.49082   0.51302   0.00000  Uiso   1.00
C1027  C     0.22166   0.48923   0.98970   0.00000  Uiso   1.00
C1028  C     0.23681   0.50087   0.94587   0.00000  Uiso   1.00
C1029  C     0.20914   0.51345   0.92427   0.00000  Uiso   1.00
H1030  H     0.28414   0.47646   0.99347   0.00000  Uiso   1.00
H1031  H     0.33083   0.36389   0.81539   0.00000  Uiso   1.00
H1032  H     0.27723   0.34441   0.81161   0.00000  Uiso   1.00
H1033  H     0.28523   0.37282   0.86249   0.00000  Uiso   1.00
H1034  H     0.20153   0.33623   0.70868   0.00000  Uiso   1.00
H1035  H     0.06022   0.66469   0.83979   0.00000  Uiso   1.00
H1036  H     0.08035   0.37287   0.80495   0.00000  Uiso   1.00
H1037  H     0.10029   0.35763   0.89388   0.00000  Uiso   1.00
H1038  H     0.13204   0.39677   0.85870   0.00000  Uiso   1.00
H1039  H     0.06824   0.43289   0.86516   0.00000  Uiso   1.00
H1040  H     0.07405   0.42583   0.91996   0.00000  Uiso   1.00
H1041  H     0.13352   0.48811   0.57985   0.00000  Uiso   1.00
H1042  H     0.03399   0.39262   0.89819   0.00000  Uiso   1.00
H1043  H     0.27058   0.50149   0.92860   0.00000  Uiso   1.00
H1044  H     0.32271   0.55096   0.52273   0.00000  Uiso   1.00
H1045  H     0.04312   0.57404   0.51836   0.00000  Uiso   1.00
H1046  H     0.32513   0.51384   0.59017   0.00000  Uiso   1.00
H1047  H     0.04388   0.54197   0.58778   0.00000  Uiso   1.00
H1048  H     0.01173   0.60945   0.59747   0.00000  Uiso   1.00
H1049  H     0.32067   0.57707   0.64340   0.00000  Uiso   1.00
H1050  H     0.29269   0.58059   0.60124   0.00000  Uiso   1.00
H1051  H     0.22318   0.52459   0.89131   0.00000  Uiso   1.00
H1052  H     0.06994   0.52637   0.92350   0.00000  Uiso   1.00
H1053  H     0.01558   0.51727   0.70441   0.00000  Uiso   1.00
H1054  H     0.08927   0.49084   0.54313   0.00000  Uiso   1.00
H1055  H     0.26132   0.46638   0.57363   0.00000  Uiso   1.00
H1056  H     0.30672   0.45072   0.86233   0.00000  Uiso   1.00
H1057  H     0.01974   0.44219   0.81821   0.00000  Uiso   1.00
H1058  H     0.25835   0.41636   0.81600   0.00000  Uiso   1.00
H1059  H     0.30410   0.40765   0.76946   0.00000  Uiso   1.00
O1060  O     0.16667   0.50000   0.75000   0.00000  Uiso   1.00
O1061  O     0.15451   0.45970   0.65459   0.00000  Uiso   1.00
O1062  O     0.12940   0.53724   0.84968   0.00000  Uiso   1.00
O1063  O     0.20824   0.51092   0.64606   0.00000  Uiso   1.00
O1064  O     0.17451   0.49213   0.84968   0.00000  Uiso   1.00
O1065  O     0.31331   0.48541   0.80911   0.00000  Uiso   1.00
O1066  O     0.12319   0.66237   0.80543   0.00000  Uiso   1.00
O1067  O     0.03274   0.50827   0.50573   0.00000  Uiso   1.00
O1068  O     0.17930   0.41352   0.78214   0.00000  Uiso   1.00
O1069  O     0.14632   0.59418   0.77013   0.00000  Uiso   1.00
O1070  O     0.07412   0.46625   0.73413   0.00000  Uiso   1.00
O1071  O     0.26693   0.52605   0.71361   0.00000  Uiso   1.00
O1072  O     0.07071   0.52211   0.78213   0.00000  Uiso   1.00
O1073  O     0.25491   0.48559   0.77014   0.00000  Uiso   1.00
O1074  O     0.13760   0.40277   0.73413   0.00000  Uiso   1.00
O1075  O     0.20345   0.58953   0.71360   0.00000  Uiso   1.00
Zn1076 Zn    0.19338   0.47327   0.78734   0.00000  Uiso   1.00
Zn1077 Zn    0.13379   0.45791   0.71876   0.00000  Uiso   1.00
Zn1078 Zn    0.21056   0.53109   0.70657   0.00000  Uiso   1.00
Zn1079 Zn    0.12893   0.53773   0.78733   0.00000  Uiso   1.00
C1080  C     0.38630   0.49365   0.75986   0.00000  Uiso   1.00
C1081  C     0.49857   0.48381   0.55908   0.00000  Uiso   1.00
C1082  C     0.57110   0.47199   0.55667   0.00000  Uiso   1.00
C1083  C     0.61409   0.50690   0.74010   0.00000  Uiso   1.00
C1084  C     0.46928   0.51985   0.92031   0.00000  Uiso   1.00
C1085  C     0.65981   0.50653   0.73499   0.00000  Uiso   1.00
C1086  C     0.34051   0.49153   0.76655   0.00000  Uiso   1.00
C1087  C     0.51132   0.65567   0.73683   0.00000  Uiso   1.00
C1088  C     0.48416   0.34566   0.76677   0.00000  Uiso   1.00
C1089  C     0.48990   0.38947   0.76021   0.00000  Uiso   1.00
C1090  C     0.50963   0.61131   0.74045   0.00000  Uiso   1.00
C1091  C     0.40984   0.51228   0.98682   0.00000  Uiso   1.00
C1092  C     0.51897   0.48174   0.62939   0.00000  Uiso   1.00
C1093  C     0.48195   0.51802   0.87097   0.00000  Uiso   1.00
C1094  C     0.58410   0.47818   0.51124   0.00000  Uiso   1.00
C1095  C     0.52872   0.47596   0.58079   0.00000  Uiso   1.00
C1096  C     0.42574   0.52131   0.94210   0.00000  Uiso   1.00
C1097  C     0.65224   0.44795   0.82519   0.00000  Uiso   1.00
C1098  C     0.62605   0.41089   0.80667   0.00000  Uiso   1.00
C1099  C     0.63018   0.37054   0.82530   0.00000  Uiso   1.00
C1100  C     0.42271   0.35322   0.82747   0.00000  Uiso   1.00
C1101  C     0.43316   0.37895   0.86834   0.00000  Uiso   1.00
C1102  C     0.43739   0.50102   0.51003   0.00000  Uiso   1.00
C1103  C     0.40017   0.40939   0.88913   0.00000  Uiso   1.00
C1104  C     0.35349   0.54606   0.52943   0.00000  Uiso   1.00
C1105  C     0.34603   0.54295   0.57995   0.00000  Uiso   1.00
C1106  C     0.65812   0.57990   0.60708   0.00000  Uiso   1.00
C1107  C     0.48199   0.50145   0.98998   0.00000  Uiso   1.00
C1108  C     0.49805   0.51187   0.94467   0.00000  Uiso   1.00
C1109  C     0.51105   0.49082   0.51302   0.00000  Uiso   1.00
C1110  C     0.55499   0.48923   0.98970   0.00000  Uiso   1.00
C1111  C     0.57014   0.50087   0.94587   0.00000  Uiso   1.00
C1112  C     0.54247   0.51345   0.92427   0.00000  Uiso   1.00
H1113  H     0.61747   0.47646   0.99347   0.00000  Uiso   1.00
H1114  H     0.66416   0.36389   0.81539   0.00000  Uiso   1.00
H1115  H     0.61057   0.34441   0.81161   0.00000  Uiso   1.00
H1116  H     0.61856   0.37282   0.86249   0.00000  Uiso   1.00
H1117  H     0.53487   0.33623   0.70868   0.00000  Uiso   1.00
H1118  H     0.39355   0.66469   0.83979   0.00000  Uiso   1.00
H1119  H     0.41368   0.37287   0.80495   0.00000  Uiso   1.00
H1120  H     0.43362   0.35763   0.89388   0.00000  Uiso   1.00
H1121  H     0.46537   0.39677   0.85870   0.00000  Uiso   1.00
H1122  H     0.40157   0.43289   0.86516   0.00000  Uiso   1.00
H1123  H     0.40738   0.42583   0.91996   0.00000  Uiso   1.00
H1124  H     0.46686   0.48811   0.57985   0.00000  Uiso   1.00
H1125  H     0.36732   0.39262   0.89819   0.00000  Uiso   1.00
H1126  H     0.60391   0.50149   0.92860   0.00000  Uiso   1.00
H1127  H     0.65605   0.55096   0.52273   0.00000  Uiso   1.00
H1128  H     0.37645   0.57404   0.51836   0.00000  Uiso   1.00
H1129  H     0.65846   0.51384   0.59017   0.00000  Uiso   1.00
H1130  H     0.37722   0.54197   0.58778   0.00000  Uiso   1.00
H1131  H     0.34507   0.60945   0.59747   0.00000  Uiso   1.00
H1132  H     0.65400   0.57707   0.64340   0.00000  Uiso   1.00
H1133  H     0.62602   0.58059   0.60124   0.00000  Uiso   1.00
H1134  H     0.55652   0.52459   0.89131   0.00000  Uiso   1.00
H1135  H     0.40327   0.52637   0.92350   0.00000  Uiso   1.00
H1136  H     0.34891   0.51727   0.70441   0.00000  Uiso   1.00
H1137  H     0.42261   0.49084   0.54313   0.00000  Uiso   1.00
H1138  H     0.59465   0.46638   0.57363   0.00000  Uiso   1.00
H1139  H     0.64005   0.45072   0.86233   0.00000  Uiso   1.00
H1140  H     0.35308   0.44219   0.81821   0.00000  Uiso   1.00
H1141  H     0.59168   0.41636   0.81600   0.00000  Uiso   1.00
H1142  H     0.63743   0.40765   0.76946   0.00000  Uiso   1.00
O1143  O     0.50000   0.50000   0.75000   0.00000  Uiso   1.00
O1144  O     0.48784   0.45970   0.65459   0.00000  Uiso   1.00
O1145  O     0.46274   0.53724   0.84968   0.00000  Uiso   1.00
O1146  O     0.54157   0.51092   0.64606   0.00000  Uiso   1.00
O1147  O     0.50785   0.49213   0.84968   0.00000  Uiso   1.00
O1148  O     0.64665   0.48541   0.80911   0.00000  Uiso   1.00
O1149  O     0.45653   0.66237   0.80543   0.00000  Uiso   1.00
O1150  O     0.36607   0.50827   0.50573   0.00000  Uiso   1.00
O1151  O     0.51264   0.41352   0.78214   0.00000  Uiso   1.00
O1152  O     0.47965   0.59418   0.77013   0.00000  Uiso   1.00
O1153  O     0.40745   0.46625   0.73413   0.00000  Uiso   1.00
O1154  O     0.60026   0.52605   0.71361   0.00000  Uiso   1.00
O1155  O     0.40405   0.52211   0.78213   0.00000  Uiso   1.00
O1156  O     0.58824   0.48559   0.77014   0.00000  Uiso   1.00
O1157  O     0.47093   0.40277   0.73413   0.00000  Uiso   1.00
O1158  O     0.53678   0.58953   0.71360   0.00000  Uiso   1.00
Zn1159 Zn    0.52672   0.47327   0.78734   0.00000  Uiso   1.00
Zn1160 Zn    0.46713   0.45791   0.71876   0.00000  Uiso   1.00
Zn1161 Zn    0.54389   0.53109   0.70657   0.00000  Uiso   1.00
Zn1162 Zn    0.46226   0.53773   0.78733   0.00000  Uiso   1.00
C1163  C     0.71963   0.49365   0.75986   0.00000  Uiso   1.00
C1164  C     0.83190   0.48381   0.55908   0.00000  Uiso   1.00
C1165  C     0.90443   0.47199   0.55667   0.00000  Uiso   1.00
C1166  C     0.94742   0.50690   0.74010   0.00000  Uiso   1.00
C1167  C     0.80262   0.51985   0.92031   0.00000  Uiso   1.00
C1168  C     0.99315   0.50653   0.73499   0.00000  Uiso   1.00
C1169  C     0.67385   0.49153   0.76655   0.00000  Uiso   1.00
C1170  C     0.84465   0.65567   0.73683   0.00000  Uiso   1.00
C1171  C     0.81749   0.34566   0.76677   0.00000  Uiso   1.00
C1172  C     0.82323   0.38947   0.76021   0.00000  Uiso   1.00
C1173  C     0.84297   0.61131   0.74045   0.00000  Uiso   1.00
C1174  C     0.74318   0.51228   0.98682   0.00000  Uiso   1.00
C1175  C     0.85230   0.48174   0.62939   0.00000  Uiso   1.00
C1176  C     0.81528   0.51802   0.87097   0.00000  Uiso   1.00
C1177  C     0.91744   0.47818   0.51124   0.00000  Uiso   1.00
C1178  C     0.86205   0.47596   0.58079   0.00000  Uiso   1.00
C1179  C     0.75908   0.52131   0.94210   0.00000  Uiso   1.00
C1180  C     0.98557   0.44795   0.82519   0.00000  Uiso   1.00
C1181  C     0.95938   0.41089   0.80667   0.00000  Uiso   1.00
C1182  C     0.96351   0.37054   0.82530   0.00000  Uiso   1.00
C1183  C     0.75604   0.35322   0.82747   0.00000  Uiso   1.00
C1184  C     0.76649   0.37895   0.86834   0.00000  Uiso   1.00
C1185  C     0.77073   0.50102   0.51003   0.00000  Uiso   1.00
C1186  C     0.73351   0.40939   0.88913   0.00000  Uiso   1.00
C1187  C     0.68683   0.54606   0.52943   0.00000  Uiso   1.00
C1188  C     0.67937   0.54295   0.57995   0.00000  Uiso   1.00
C1189  C     0.99145   0.57990   0.60708   0.00000  Uiso   1.00
C1190  C     0.81532   0.50145   0.98998   0.00000  Uiso   1.00
C1191  C     0.83139   0.51187   0.94467   0.00000  Uiso   1.00
C1192  C     0.84438   0.49082   0.51302   0.00000  Uiso   1.00
C1193  C     0.88832   0.48923   0.98970   0.00000  Uiso   1.00
C1194  C     0.90347   0.50087   0.94587   0.00000  Uiso   1.00
C1195  C     0.87580   0.51345   0.92427   0.00000  Uiso   1.00
H1196  H     0.95080   0.47646   0.99347   0.00000  Uiso   1.00
H1197  H     0.99749   0.36389   0.81539   0.00000  Uiso   1.00
H1198  H     0.94390   0.34441   0.81161   0.00000  Uiso   1.00
H1199  H     0.95190   0.37282   0.86249   0.00000  Uiso   1.00
H1200  H     0.86820   0.33623   0.70868   0.00000  Uiso   1.00
H1201  H     0.72689   0.66469   0.83979   0.00000  Uiso   1.00
H1202  H     0.74701   0.37287   0.80495   0.00000  Uiso   1.00
H1203  H     0.76695   0.35763   0.89388   0.00000  Uiso   1.00
H1204  H     0.79870   0.39677   0.85870   0.00000  Uiso   1.00
H1205  H     0.73490   0.43289   0.86516   0.00000  Uiso   1.00
H1206  H     0.74071   0.42583   0.91996   0.00000  Uiso   1.00
H1207  H     0.80019   0.48811   0.57985   0.00000  Uiso   1.00
H1208  H     0.70065   0.39262   0.89819   0.00000  Uiso   1.00
H1209  H     0.93724   0.50149   0.92860   0.00000  Uiso   1.00
H1210  H     0.98938   0.55096   0.52273   0.00000  Uiso   1.00
H1211  H     0.70978   0.57404   0.51836   0.00000  Uiso   1.00
H1212  H     0.99180   0.51384   0.59017   0.00000  Uiso   1.00
H1213  H     0.71055   0.54197   0.58778   0.00000  Uiso   1.00
H1214  H     0.67840   0.60945   0.59747   0.00000  Uiso   1.00
H1215  H     0.98733   0.57707   0.64340   0.00000  Uiso   1.00
H1216  H     0.95935   0.58059   0.60124   0.00000  Uiso   1.00
H1217  H     0.88985   0.52459   0.89131   0.00000  Uiso   1.00
H1218  H     0.73661   0.52637   0.92350   0.00000  Uiso   1.00
H1219  H     0.68224   0.51727   0.70441   0.00000  Uiso   1.00
H1220  H     0.75594   0.49084   0.54313   0.00000  Uiso   1.00
H1221  H     0.92799   0.46638   0.57363   0.00000  Uiso   1.00
H1222  H     0.97339   0.45072   0.86233   0.00000  Uiso   1.00
H1223  H     0.68641   0.44219   0.81821   0.00000  Uiso   1.00
H1224  H     0.92502   0.41636   0.81600   0.00000  Uiso   1.00
H1225  H     0.97077   0.40765   0.76946   0.00000  Uiso   1.00
O1226  O     0.83333   0.50000   0.75000   0.00000  Uiso   1.00
O1227  O     0.82118   0.45970   0.65459   0.00000  Uiso   1.00
O1228  O     0.79607   0.53724   0.84968   0.00000  Uiso   1.00
O1229  O     0.87491   0.51092   0.64606   0.00000  Uiso   1.00
O1230  O     0.84118   0.49213   0.84968   0.00000  Uiso   1.00
O1231  O     0.97998   0.48541   0.80911   0.00000  Uiso   1.00
O1232  O     0.78986   0.66237   0.80543   0.00000  Uiso   1.00
O1233  O     0.69940   0.50827   0.50573   0.00000  Uiso   1.00
O1234  O     0.84597   0.41352   0.78214   0.00000  Uiso   1.00
O1235  O     0.81298   0.59418   0.77013   0.00000  Uiso   1.00
O1236  O     0.74078   0.46625   0.73413   0.00000  Uiso   1.00
O1237  O     0.93360   0.52605   0.71361   0.00000  Uiso   1.00
O1238  O     0.73738   0.52211   0.78213   0.00000  Uiso   1.00
O1239  O     0.92158   0.48559   0.77014   0.00000  Uiso   1.00
O1240  O     0.80426   0.40277   0.73413   0.00000  Uiso   1.00
O1241  O     0.87012   0.58953   0.71360   0.00000  Uiso   1.00
Zn1242 Zn    0.86005   0.47327   0.78734   0.00000  Uiso   1.00
Zn1243 Zn    0.80046   0.45791   0.71876   0.00000  Uiso   1.00
Zn1244 Zn    0.87723   0.53109   0.70657   0.00000  Uiso   1.00
Zn1245 Zn    0.79560   0.53773   0.78733   0.00000  Uiso   1.00
C1246  C     0.05297   0.82698   0.75986   0.00000  Uiso   1.00
C1247  C     0.16523   0.81714   0.55908   0.00000  Uiso   1.00
C1248  C     0.23776   0.80533   0.55667   0.00000  Uiso   1.00
C1249  C     0.28076   0.84023   0.74010   0.00000  Uiso   1.00
C1250  C     0.13595   0.85318   0.92031   0.00000  Uiso   1.00
C1251  C     0.32648   0.83987   0.73499   0.00000  Uiso   1.00
C1252  C     0.00718   0.82486   0.76655   0.00000  Uiso   1.00
C1253  C     0.17798   0.98901   0.73683   0.00000  Uiso   1.00
C1254  C     0.15083   0.67900   0.76677   0.00000  Uiso   1.00
C1255  C     0.15656   0.72280   0.76021   0.00000  Uiso   1.00
C1256  C     0.17630   0.94464   0.74045   0.00000  Uiso   1.00
C1257  C     0.07651   0.84561   0.98682   0.00000  Uiso   1.00
C1258  C     0.18563   0.81507   0.62939   0.00000  Uiso   1.00
C1259  C     0.14861   0.85136   0.87097   0.00000  Uiso   1.00
C1260  C     0.25077   0.81151   0.51124   0.00000  Uiso   1.00
C1261  C     0.19538   0.80929   0.58079   0.00000  Uiso   1.00
C1262  C     0.09241   0.85465   0.94210   0.00000  Uiso   1.00
C1263  C     0.31891   0.78128   0.82519   0.00000  Uiso   1.00
C1264  C     0.29271   0.74422   0.80667   0.00000  Uiso   1.00
C1265  C     0.29684   0.70387   0.82530   0.00000  Uiso   1.00
C1266  C     0.08938   0.68656   0.82747   0.00000  Uiso   1.00
C1267  C     0.09983   0.71229   0.86834   0.00000  Uiso   1.00
C1268  C     0.10406   0.83435   0.51003   0.00000  Uiso   1.00
C1269  C     0.06684   0.74273   0.88913   0.00000  Uiso   1.00
C1270  C     0.02016   0.87940   0.52943   0.00000  Uiso   1.00
C1271  C     0.01270   0.87628   0.57995   0.00000  Uiso   1.00
C1272  C     0.32479   0.91323   0.60708   0.00000  Uiso   1.00
C1273  C     0.14866   0.83478   0.98998   0.00000  Uiso   1.00
C1274  C     0.16472   0.84521   0.94467   0.00000  Uiso   1.00
C1275  C     0.17772   0.82416   0.51302   0.00000  Uiso   1.00
C1276  C     0.22166   0.82256   0.98970   0.00000  Uiso   1.00
C1277  C     0.23681   0.83421   0.94587   0.00000  Uiso   1.00
C1278  C     0.20914   0.84678   0.92427   0.00000  Uiso   1.00
H1279  H     0.28414   0.80979   0.99347   0.00000  Uiso   1.00
H1280  H     0.33083   0.69722   0.81539   0.00000  Uiso   1.00
H1281  H     0.27723   0.67774   0.81161   0.00000  Uiso   1.00
H1282  H     0.28523   0.70615   0.86249   0.00000  Uiso   1.00
H1283  H     0.20153   0.66956   0.70868   0.00000  Uiso   1.00
H1284  H     0.06022   0.99802   0.83979   0.00000  Uiso   1.00
H1285  H     0.08035   0.70620   0.80495   0.00000  Uiso   1.00
H1286  H     0.10029   0.69097   0.89388   0.00000  Uiso   1.00
H1287  H     0.13204   0.73010   0.85870   0.00000  Uiso   1.00
H1288  H     0.06824   0.76622   0.86516   0.00000  Uiso   1.00
H1289  H     0.07405   0.75916   0.91996   0.00000  Uiso   1.00
H1290  H     0.13352   0.82144   0.57985   0.00000  Uiso   1.00
H1291  H     0.03399   0.72596   0.89819   0.00000  Uiso   1.00
H1292  H     0.27058   0.83482   0.92860   0.00000  Uiso   1.00
H1293  H     0.32271   0.88429   0.52273   0.00000  Uiso   1.00
H1294  H     0.04312   0.90737   0.51836   0.00000  Uiso   1.00
H1295  H     0.32513   0.84717   0.59017   0.00000  Uiso   1.00
H1296  H     0.04388   0.87531   0.58778   0.00000  Uiso   1.00
H1297  H     0.01173   0.94279   0.59747   0.00000  Uiso   1.00
H1298  H     0.32067   0.91040   0.64340   0.00000  Uiso   1.00
H1299  H     0.29269   0.91393   0.60124   0.00000  Uiso   1.00
H1300  H     0.22318   0.85792   0.89131   0.00000  Uiso   1.00
H1301  H     0.06994   0.85970   0.92350   0.00000  Uiso   1.00
H1302  H     0.01558   0.85060   0.70441   0.00000  Uiso   1.00
H1303  H     0.08927   0.82418   0.54313   0.00000  Uiso   1.00
H1304  H     0.26132   0.79971   0.57363   0.00000  Uiso   1.00
H1305  H     0.30672   0.78405   0.86233   0.00000  Uiso   1.00
H1306  H     0.01974   0.77553   0.81821   0.00000  Uiso   1.00
H1307  H     0.25835   0.74969   0.81600   0.00000  Uiso   1.00
H1308  H     0.30410   0.74098   0.76946   0.00000  Uiso   1.00
O1309  O     0.16667   0.83333   0.75000   0.00000  Uiso   1.00
O1310  O     0.15451   0.79304   0.65459   0.00000  Uiso   1.00
O1311  O     0.12940   0.87058   0.84968   0.00000  Uiso   1.00
O1312  O     0.20824   0.84425   0.64606   0.00000  Uiso   1.00
O1313  O     0.17451   0.82546   0.84968   0.00000  Uiso   1.00
O1314  O     0.31331   0.81874   0.80911   0.00000  Uiso   1.00
O1315  O     0.12319   0.99571   0.80543   0.00000  Uiso   1.00
O1316  O     0.03274   0.84160   0.50573   0.00000  Uiso   1.00
O1317  O     0.17930   0.74686   0.78214   0.00000  Uiso   1.00
O1318  O     0.14632   0.92751   0.77013   0.00000  Uiso   1.00
O1319  O     0.07412   0.79958   0.73413   0.00000  Uiso   1.00
O1320  O     0.26693   0.85939   0.71361   0.00000  Uiso   1.00
O1321  O     0.07071   0.85544   0.78213   0.00000  Uiso   1.00
O1322  O     0.25491   0.81892   0.77014   0.00000  Uiso   1.00
O1323  O     0.13760   0.73610   0.73413   0.00000  Uiso   1.00
O1324  O     0.20345   0.92286   0.71360   0.00000  Uiso   1.00
Zn1325 Zn    0.19338   0.80661   0.78734   0.00000  Uiso   1.00
Zn1326 Zn    0.13379   0.79124   0.71876   0.00000  Uiso   1.00
Zn1327 Zn    0.21056   0.86442   0.70657   0.00000  Uiso   1.00
Zn1328 Zn    0.12893   0.87106   0.78733   0.00000  Uiso   1.00
C1329  C     0.38630   0.82698   0.75986   0.00000  Uiso   1.00
C1330  C     0.49857   0.81714   0.55908   0.00000  Uiso   1.00
C1331  C     0.57110   0.80533   0.55667   0.00000  Uiso   1.00
C1332  C     0.61409   0.84023   0.74010   0.00000  Uiso   1.00
C1333  C     0.46928   0.85318   0.92031   0.00000  Uiso   1.00
C1334  C     0.65981   0.83987   0.73499   0.00000  Uiso   1.00
C1335  C     0.34051   0.82486   0.76655   0.00000  Uiso   1.00
C1336  C     0.51132   0.98901   0.73683   0.00000  Uiso   1.00
C1337  C     0.48416   0.67900   0.76677   0.00000  Uiso   1.00
C1338  C     0.48990   0.72280   0.76021   0.00000  Uiso   1.00
C1339  C     0.50963   0.94464   0.74045   0.00000  Uiso   1.00
C1340  C     0.40984   0.84561   0.98682   0.00000  Uiso   1.00
C1341  C     0.51897   0.81507   0.62939   0.00000  Uiso   1.00
C1342  C     0.48195   0.85136   0.87097   0.00000  Uiso   1.00
C1343  C     0.58410   0.81151   0.51124   0.00000  Uiso   1.00
C1344  C     0.52872   0.80929   0.58079   0.00000  Uiso   1.00
C1345  C     0.42574   0.85465   0.94210   0.00000  Uiso   1.00
C1346  C     0.65224   0.78128   0.82519   0.00000  Uiso   1.00
C1347  C     0.62605   0.74422   0.80667   0.00000  Uiso   1.00
C1348  C     0.63018   0.70387   0.82530   0.00000  Uiso   1.00
C1349  C     0.42271   0.68656   0.82747   0.00000  Uiso   1.00
C1350  C     0.43316   0.71229   0.86834   0.00000  Uiso   1.00
C1351  C     0.43739   0.83435   0.51003   0.00000  Uiso   1.00
C1352  C     0.40017   0.74273   0.88913   0.00000  Uiso   1.00
C1353  C     0.35349   0.87940   0.52943   0.00000  Uiso   1.00
C1354  C     0.34603   0.87628   0.57995   0.00000  Uiso   1.00
C1355  C     0.65812   0.91323   0.60708   0.00000  Uiso   1.00
C1356  C     0.48199   0.83478   0.98998   0.00000  Uiso   1.00
C1357  C     0.49805   0.84521   0.94467   0.00000  Uiso   1.00
C1358  C     0.51105   0.82416   0.51302   0.00000  Uiso   1.00
C1359  C     0.55499   0.82256   0.98970   0.00000  Uiso   1.00
C1360  C     0.57014   0.83421   0.94587   0.00000  Uiso   1.00
C1361  C     0.54247   0.84678   0.92427   0.00000  Uiso   1.00
H1362  H     0.61747   0.80979   0.99347   0.00000  Uiso   1.00
H1363  H     0.66416   0.69722   0.81539   0.00000  Uiso   1.00
H1364  H     0.61057   0.67774   0.81161   0.00000  Uiso   1.00
H1365  H     0.61856   0.70615   0.86249   0.00000  Uiso   1.00
H1366  H     0.53487   0.66956   0.70868   0.00000  Uiso   1.00
H1367  H     0.39355   0.99802   0.83979   0.00000  Uiso   1.00
H1368  H     0.41368   0.70620   0.80495   0.00000  Uiso   1.00
H1369  H     0.43362   0.69097   0.89388   0.00000  Uiso   1.00
H1370  H     0.46537   0.73010   0.85870   0.00000  Uiso   1.00
H1371  H     0.40157   0.76622   0.86516   0.00000  Uiso   1.00
H1372  H     0.40738   0.75916   0.91996   0.00000  Uiso   1.00
H1373  H     0.46686   0.82144   0.57985   0.00000  Uiso   1.00
H1374  H     0.36732   0.72596   0.89819   0.00000  Uiso   1.00
H1375  H     0.60391   0.83482   0.92860   0.00000  Uiso   1.00
H1376  H     0.65605   0.88429   0.52273   0.00000  Uiso   1.00
H1377  H     0.37645   0.90737   0.51836   0.00000  Uiso   1.00
H1378  H     0.65846   0.84717   0.59017   0.00000  Uiso   1.00
H1379  H     0.37722   0.87531   0.58778   0.00000  Uiso   1.00
H1380  H     0.34507   0.94279   0.59747   0.00000  Uiso   1.00
H1381  H     0.65400   0.91040   0.64340   0.00000  Uiso   1.00
H1382  H     0.62602   0.91393   0.60124   0.00000  Uiso   1.00
H1383  H     0.55652   0.85792   0.89131   0.00000  Uiso   1.00
H1384  H     0.40327   0.85970   0.92350   0.00000  Uiso   1.00
H1385  H     0.34891   0.85060   0.70441   0.00000  Uiso   1.00
H1386  H     0.42261   0.82418   0.54313   0.00000  Uiso   1.00
H1387  H     0.59465   0.79971   0.57363   0.00000  Uiso   1.00
H1388  H     0.64005   0.78405   0.86233   0.00000  Uiso   1.00
H1389  H     0.35308   0.77553   0.81821   0.00000  Uiso   1.00
H1390  H     0.59168   0.74969   0.81600   0.00000  Uiso   1.00
H1391  H     0.63743   0.74098   0.76946   0.00000  Uiso   1.00
O1392  O     0.50000   0.83333   0.75000   0.00000  Uiso   1.00
O1393  O     0.48784   0.79304   0.65459   0.00000  Uiso   1.00
O1394  O     0.46274   0.87058   0.84968   0.00000  Uiso   1.00
O1395  O     0.54157   0.84425   0.64606   0.00000  Uiso   1.00
O1396  O     0.50785   0.82546   0.84968   0.00000  Uiso   1.00
O1397  O     0.64665   0.81874   0.80911   0.00000  Uiso   1.00
O1398  O     0.45653   0.99571   0.80543   0.00000  Uiso   1.00
O1399  O     0.36607   0.84160   0.50573   0.00000  Uiso   1.00
O1400  O     0.51264   0.74686   0.78214   0.00000  Uiso   1.00
O1401  O     0.47965   0.92751   0.77013   0.00000  Uiso   1.00
O1402  O     0.40745   0.79958   0.73413   0.00000  Uiso   1.00
O1403  O     0.60026   0.85939   0.71361   0.00000  Uiso   1.00
O1404  O     0.40405   0.85544   0.78213   0.00000  Uiso   1.00
O1405  O     0.58824   0.81892   0.77014   0.00000  Uiso   1.00
O1406  O     0.47093   0.73610   0.73413   0.00000  Uiso   1.00
O1407  O     0.53678   0.92286   0.71360   0.00000  Uiso   1.00
Zn1408 Zn    0.52672   0.80661   0.78734   0.00000  Uiso   1.00
Zn1409 Zn    0.46713   0.79124   0.71876   0.00000  Uiso   1.00
Zn1410 Zn    0.54389   0.86442   0.70657   0.00000  Uiso   1.00
Zn1411 Zn    0.46226   0.87106   0.78733   0.00000  Uiso   1.00
C1412  C     0.71963   0.82698   0.75986   0.00000  Uiso   1.00
C1413  C     0.83190   0.81714   0.55908   0.00000  Uiso   1.00
C1414  C     0.90443   0.80533   0.55667   0.00000  Uiso   1.00
C1415  C     0.94742   0.84023   0.74010   0.00000  Uiso   1.00
C1416  C     0.80262   0.85318   0.92031   0.00000  Uiso   1.00
C1417  C     0.99315   0.83987   0.73499   0.00000  Uiso   1.00
C1418  C     0.67385   0.82486   0.76655   0.00000  Uiso   1.00
C1419  C     0.84465   0.98901   0.73683   0.00000  Uiso   1.00
C1420  C     0.81749   0.67900   0.76677   0.00000  Uiso   1.00
C1421  C     0.82323   0.72280   0.76021   0.00000  Uiso   1.00
C1422  C     0.84297   0.94464   0.74045   0.00000  Uiso   1.00
C1423  C     0.74318   0.84561   0.98682   0.00000  Uiso   1.00
C1424  C     0.85230   0.81507   0.62939   0.00000  Uiso   1.00
C1425  C     0.81528   0.85136   0.87097   0.00000  Uiso   1.00
C1426  C     0.91744   0.81151   0.51124   0.00000  Uiso   1.00
C1427  C     0.86205   0.80929   0.58079   0.00000  Uiso   1.00
C1428  C     0.75908   0.85465   0.94210   0.00000  Uiso   1.00
C1429  C     0.98557   0.78128   0.82519   0.00000  Uiso   1.00
C1430  C     0.95938   0.74422   0.80667   0.00000  Uiso   1.00
C1431  C     0.96351   0.70387   0.82530   0.00000  Uiso   1.00
C1432  C     0.75604   0.68656   0.82747   0.00000  Uiso   1.00
C1433  C     0.76649   0.71229   0.86834   0.00000  Uiso   1.00
C1434  C     0.77073   0.83435   0.51003   0.00000  Uiso   1.00
C1435  C     0.73351   0.74273   0.88913   0.00000  Uiso   1.00
C1436  C     0.68683   0.87940   0.52943   0.00000  Uiso   1.00
C1437  C     0.67937   0.87628   0.57995   0.00000  Uiso   1.00
C1438  C     0.99145   0.91323   0.60708   0.00000  Uiso   1.00
C1439  C     0.81532   0.83478   0.98998   0.00000  Uiso   1.00
C1440  C     0.83139   0.84521   0.94467   0.00000  Uiso   1.00
C1441  C     0.84438   0.82416   0.51302   0.00000  Uiso   1.00
C1442  C     0.88832   0.82256   0.98970   0.00000  Uiso   1.00
C1443  C     0.90347   0.83421   0.94587   0.00000  Uiso   1.00
C1444  C     0.87580   0.84678   0.92427   0.00000  Uiso   1.00
H1445  H     0.95080   0.80979   0.99347   0.00000  Uiso   1.00
H1446  H     0.99749   0.69722   0.81539   0.00000  Uiso   1.00
H1447  H     0.94390   0.67774   0.81161   0.00000  Uiso   1.00
H1448  H     0.95190   0.70615   0.86249   0.00000  Uiso   1.00
H1449  H     0.86820   0.66956   0.70868   0.00000  Uiso   1.00
H1450  H     0.72689   0.99802   0.83979   0.00000  Uiso   1.00
H1451  H     0.74701   0.70620   0.80495   0.00000  Uiso   1.00
H1452  H     0.76695   0.69097   0.89388   0.00000  Uiso   1.00
H1453  H     0.79870   0.73010   0.85870   0.00000  Uiso   1.00
H1454  H     0.73490   0.76622   0.86516   0.00000  Uiso   1.00
H1455  H     0.74071   0.75916   0.91996   0.00000  Uiso   1.00
H1456  H     0.80019   0.82144   0.57985   0.00000  Uiso   1.00
H1457  H     0.70065   0.72596   0.89819   0.00000  Uiso   1.00
H1458  H     0.93724   0.83482   0.92860   0.00000  Uiso   1.00
H1459  H     0.98938   0.88429   0.52273   0.00000  Uiso   1.00
H1460  H     0.70978   0.90737   0.51836   0.00000  Uiso   1.00
H1461  H     0.99180   0.84717   0.59017   0.00000  Uiso   1.00
H1462  H     0.71055   0.87531   0.58778   0.00000  Uiso   1.00
H1463  H     0.67840   0.94279   0.59747   0.00000  Uiso   1.00
H1464  H     0.98733   0.91040   0.64340   0.00000  Uiso   1.00
H1465  H     0.95935   0.91393   0.60124   0.00000  Uiso   1.00
H1466  H     0.88985   0.85792   0.89131   0.00000  Uiso   1.00
H1467  H     0.73661   0.85970   0.92350   0.00000  Uiso   1.00
H1468  H     0.68224   0.85060   0.70441   0.00000  Uiso   1.00
H1469  H     0.75594   0.82418   0.54313   0.00000  Uiso   1.00
H1470  H     0.92799   0.79971   0.57363   0.00000  Uiso   1.00
H1471  H     0.97339   0.78405   0.86233   0.00000  Uiso   1.00
H1472  H     0.68641   0.77553   0.81821   0.00000  Uiso   1.00
H1473  H     0.92502   0.74969   0.81600   0.00000  Uiso   1.00
H1474  H     0.97077   0.74098   0.76946   0.00000  Uiso   1.00
O1475  O     0.83333   0.83333   0.75000   0.00000  Uiso   1.00
O1476  O     0.82118   0.79304   0.65459   0.00000  Uiso   1.00
O1477  O     0.79607   0.87058   0.84968   0.00000  Uiso   1.00
O1478  O     0.87491   0.84425   0.64606   0.00000  Uiso   1.00
O1479  O     0.84118   0.82546   0.84968   0.00000  Uiso   1.00
O1480  O     0.97998   0.81874   0.80911   0.00000  Uiso   1.00
O1481  O     0.78986   0.99571   0.80543   0.00000  Uiso   1.00
O1482  O     0.69940   0.84160   0.50573   0.00000  Uiso   1.00
O1483  O     0.84597   0.74686   0.78214   0.00000  Uiso   1.00
O1484  O     0.81298   0.92751   0.77013   0.00000  Uiso   1.00
O1485  O     0.74078   0.79958   0.73413   0.00000  Uiso   1.00
O1486  O     0.93360   0.85939   0.71361   0.00000  Uiso   1.00
O1487  O     0.73738   0.85544   0.78213   0.00000  Uiso   1.00
O1488  O     0.92158   0.81892   0.77014   0.00000  Uiso   1.00
O1489  O     0.80426   0.73610   0.73413   0.00000  Uiso   1.00
O1490  O     0.87012   0.92286   0.71360   0.00000  Uiso   1.00
Zn1491 Zn    0.86005   0.80661   0.78734   0.00000  Uiso   1.00
Zn1492 Zn    0.80046   0.79124   0.71876   0.00000  Uiso   1.00
Zn1493 Zn    0.87723   0.86442   0.70657   0.00000  Uiso   1.00
Zn1494 Zn    0.79560   0.87106   0.78733   0.00000  Uiso   1.00
loop_
_geom_bond_atom_site_label_1
_geom_bond_atom_site_label_2
_geom_bond_distance
_geom_bond_site_symmetry_2
_ccdc_geom_bond_type
C1     O74     1.275   .     A
C1     C7      1.442   .     S
C1     O76     1.266   .     A
C2     C16     1.394   .     A
C2     H45     1.078   .     S
C2     C30     1.411   .     A
C3     C15     1.386   .     A
C3     C16     1.397   .     A
C3     H59     1.083   .     S
C4     O75     1.285   .     A
C4     C6      1.455   .     S
C4     O77     1.271   .     A
C5     C17     1.402   .     A
C5     C29     1.416   .     A
C5     C14     1.471   .     S
C6     C90     1.345   .     S
C6     H140    1.088   .     S
C7     C172    1.345   1_455 S
C7     O235    1.395   1_455 S
C8     C11     1.453   .     S
C8     C258    1.345   .     S
C8     H287    1.089   .     S
C9     C10     1.442   .     S
C9     C506    1.345   1_545 S
C9     O568    1.403   1_545 S
C10    O78     1.280   .     A
C10    O72     1.275   .     A
C11    O73     1.261   .     A
C11    O79     1.275   .     A
C12    C17     1.392   .     A
C12    C770    1.396   .     S
C12    O818    1.381   .     S
C13    O65     1.284   .     A
C13    O67     1.274   .     A
C13    C16     1.451   .     S
C14    O66     1.279   .     A
C14    O68     1.277   .     A
C15    C778    1.399   1_554 S
C15    H781    1.084   1_554 S
C17    H56     1.084   .     S
C18    C19     1.533   .     S
C18    O69     1.417   .     S
C18    H60     1.111   .     S
C18    H144    1.112   .     S
C19    C20     1.526   .     S
C19    H62     1.112   .     S
C19    H63     1.111   .     S
C20    H35     1.110   .     S
C20    H37     1.111   .     S
C20    H36     1.110   .     S
C21    C22     1.534   .     S
C21    H40     1.113   .     S
C21    H537    1.111   1_545 S
C21    O568    1.419   1_545 S
C22    H41     1.112   .     S
C22    C24     1.526   .     S
C22    H42     1.109   .     S
C23    H58     1.077   .     S
C23    C759    1.396   1_554 S
C23    C775    1.416   1_554 S
C24    H44     1.111   .     S
C24    H46     1.111   .     S
C24    H43     1.110   .     S
C25    O71     1.415   .     S
C25    C26     1.532   .     S
C25    H49     1.118   .     S
C25    H214    1.111   1_455 S
C26    H51     1.111   .     S
C26    C193    1.526   1_455 S
C26    H216    1.111   1_455 S
C27    H54     1.111   .     S
C27    H53     1.110   .     S
C27    C109    1.526   .     S
C27    H135    1.111   .     S
C28    C29     1.422   .     A
C28    C770    1.416   .     S
C28    C777    1.425   .     S
C29    C33     1.410   .     A
C30    C775    1.425   1_554 S
C30    C778    1.424   1_554 S
C31    C32     1.391   .     A
C31    C762    1.399   .     S
C31    C777    1.424   .     S
C32    H47     1.084   .     S
C32    C33     1.382   .     A
C33    H55     1.081   .     S
H34    C762    1.084   .     S
H38    C506    1.089   1_545 S
H39    C270    1.111   .     S
H48    C108    1.111   .     S
H50    C109    1.111   .     S
H52    C193    1.111   1_455 S
H57    C172    1.088   1_455 S
H61    C184    1.112   1_455 S
O64    Zn80    1.953   .     S
O64    Zn83    1.923   .     S
O64    Zn82    1.935   .     S
O64    Zn81    1.959   .     S
O65    Zn81    1.927   .     S
O66    Zn83    1.940   .     S
O67    Zn82    1.939   .     S
O68    Zn80    1.924   .     S
O69    C90     1.395   .     S
O70    C258    1.403   .     S
O70    C270    1.419   .     S
O71    C759    1.381   1_554 S
O72    Zn80    1.937   .     S
O73    Zn83    1.936   .     S
O74    Zn81    1.921   .     S
O75    Zn82    1.936   .     S
O76    Zn83    1.940   .     S
O77    Zn80    1.927   .     S
O78    Zn81    1.933   .     S
O79    Zn82    1.929   .     S
C84    O157    1.275   .     A
C84    C90     1.442   .     S
C84    O159    1.266   .     A
C85    C99     1.394   .     A
C85    H128    1.078   .     S
C85    C113    1.411   .     A
C86    C98     1.386   .     A
C86    C99     1.397   .     A
C86    H142    1.083   .     S
C87    O158    1.285   .     A
C87    C89     1.455   .     S
C87    O160    1.271   .     A
C88    C100    1.402   .     A
C88    C112    1.416   .     A
C88    C97     1.471   .     S
C89    C173    1.345   .     S
C89    H223    1.088   .     S
C91    C94     1.453   .     S
C91    C341    1.345   .     S
C91    H370    1.089   .     S
C92    C93     1.442   .     S
C92    C589    1.345   1_545 S
C92    O651    1.403   1_545 S
C93    O161    1.280   .     A
C93    O155    1.275   .     A
C94    O156    1.261   .     A
C94    O162    1.275   .     A
C95    C100    1.392   .     A
C95    C853    1.396   .     S
C95    O901    1.381   .     S
C96    O148    1.284   .     A
C96    O150    1.274   .     A
C96    C99     1.451   .     S
C97    O149    1.279   .     A
C97    O151    1.277   .     A
C98    C861    1.399   1_554 S
C98    H864    1.084   1_554 S
C100   H139    1.084   .     S
C101   C102    1.533   .     S
C101   O152    1.417   .     S
C101   H143    1.111   .     S
C101   H227    1.112   .     S
C102   C103    1.526   .     S
C102   H145    1.112   .     S
C102   H146    1.111   .     S
C103   H118    1.110   .     S
C103   H120    1.111   .     S
C103   H119    1.110   .     S
C104   C105    1.534   .     S
C104   H123    1.113   .     S
C104   H620    1.111   1_545 S
C104   O651    1.419   1_545 S
C105   H124    1.112   .     S
C105   C107    1.526   .     S
C105   H125    1.109   .     S
C106   H141    1.077   .     S
C106   C842    1.396   1_554 S
C106   C858    1.416   1_554 S
C107   H127    1.111   .     S
C107   H129    1.111   .     S
C107   H126    1.110   .     S
C108   O154    1.415   .     S
C108   C109    1.532   .     S
C108   H132    1.118   .     S
C109   H134    1.111   .     S
C110   H137    1.111   .     S
C110   H136    1.110   .     S
C110   C192    1.526   .     S
C110   H218    1.111   .     S
C111   C112    1.422   .     A
C111   C853    1.416   .     S
C111   C860    1.425   .     S
C112   C116    1.410   .     A
C113   C858    1.425   1_554 S
C113   C861    1.424   1_554 S
C114   C115    1.391   .     A
C114   C845    1.399   .     S
C114   C860    1.424   .     S
C115   H130    1.084   .     S
C115   C116    1.382   .     A
C116   H138    1.081   .     S
H117   C845    1.084   .     S
H121   C589    1.089   1_545 S
H122   C353    1.111   .     S
H131   C191    1.111   .     S
H133   C192    1.111   .     S
O147   Zn163   1.953   .     S
O147   Zn166   1.923   .     S
O147   Zn165   1.935   .     S
O147   Zn164   1.959   .     S
O148   Zn164   1.927   .     S
O149   Zn166   1.940   .     S
O150   Zn165   1.939   .     S
O151   Zn163   1.924   .     S
O152   C173    1.395   .     S
O153   C341    1.403   .     S
O153   C353    1.419   .     S
O154   C842    1.381   1_554 S
O155   Zn163   1.937   .     S
O156   Zn166   1.936   .     S
O157   Zn164   1.921   .     S
O158   Zn165   1.936   .     S
O159   Zn166   1.940   .     S
O160   Zn163   1.927   .     S
O161   Zn164   1.933   .     S
O162   Zn165   1.929   .     S
C167   O240    1.275   .     A
C167   C173    1.442   .     S
C167   O242    1.266   .     A
C168   C182    1.394   .     A
C168   H211    1.078   .     S
C168   C196    1.411   .     A
C169   C181    1.386   .     A
C169   C182    1.397   .     A
C169   H225    1.083   .     S
C170   O241    1.285   .     A
C170   C172    1.455   .     S
C170   O243    1.271   .     A
C171   C183    1.402   .     A
C171   C195    1.416   .     A
C171   C180    1.471   .     S
C172   C7      1.345   1_655 S
C172   H57     1.088   1_655 S
C174   C177    1.453   .     S
C174   C424    1.345   .     S
C174   H453    1.089   .     S
C175   C176    1.442   .     S
C175   C672    1.345   1_545 S
C175   O734    1.403   1_545 S
C176   O244    1.280   .     A
C176   O238    1.275   .     A
C177   O239    1.261   .     A
C177   O245    1.275   .     A
C178   C183    1.392   .     A
C178   C936    1.396   .     S
C178   O984    1.381   .     S
C179   O231    1.284   .     A
C179   O233    1.274   .     A
C179   C182    1.451   .     S
C180   O232    1.279   .     A
C180   O234    1.277   .     A
C181   C944    1.399   1_554 S
C181   H947    1.084   1_554 S
C183   H222    1.084   .     S
C184   C185    1.533   .     S
C184   O235    1.417   .     S
C184   H226    1.111   .     S
C184   H61     1.112   1_655 S
C185   C186    1.526   .     S
C185   H228    1.112   .     S
C185   H229    1.111   .     S
C186   H201    1.110   .     S
C186   H203    1.111   .     S
C186   H202    1.110   .     S
C187   C188    1.534   .     S
C187   H206    1.113   .     S
C187   H703    1.111   1_545 S
C187   O734    1.419   1_545 S
C188   H207    1.112   .     S
C188   C190    1.526   .     S
C188   H208    1.109   .     S
C189   H224    1.077   .     S
C189   C925    1.396   1_554 S
C189   C941    1.416   1_554 S
C190   H210    1.111   .     S
C190   H212    1.111   .     S
C190   H209    1.110   .     S
C191   O237    1.415   .     S
C191   C192    1.532   .     S
C191   H215    1.118   .     S
C192   H217    1.111   .     S
C193   H220    1.111   .     S
C193   H219    1.110   .     S
C193   C26     1.526   1_655 S
C193   H52     1.111   1_655 S
C194   C195    1.422   .     A
C194   C936    1.416   .     S
C194   C943    1.425   .     S
C195   C199    1.410   .     A
C196   C941    1.425   1_554 S
C196   C944    1.424   1_554 S
C197   C198    1.391   .     A
C197   C928    1.399   .     S
C197   C943    1.424   .     S
C198   H213    1.084   .     S
C198   C199    1.382   .     A
C199   H221    1.081   .     S
H200   C928    1.084   .     S
H204   C672    1.089   1_545 S
H205   C436    1.111   .     S
H214   C25     1.111   1_655 S
H216   C26     1.111   1_655 S
O230   Zn246   1.953   .     S
O230   Zn249   1.923   .     S
O230   Zn248   1.935   .     S
O230   Zn247   1.959   .     S
O231   Zn247   1.927   .     S
O232   Zn249   1.940   .     S
O233   Zn248   1.939   .     S
O234   Zn246   1.924   .     S
O235   C7      1.395   1_655 S
O236   C424    1.403   .     S
O236   C436    1.419   .     S
O237   C925    1.381   1_554 S
O238   Zn246   1.937   .     S
O239   Zn249   1.936   .     S
O240   Zn247   1.921   .     S
O241   Zn248   1.936   .     S
O242   Zn249   1.940   .     S
O243   Zn246   1.927   .     S
O244   Zn247   1.933   .     S
O245   Zn248   1.929   .     S
C250   O323    1.275   .     A
C250   C256    1.442   .     S
C250   O325    1.266   .     A
C251   C265    1.394   .     A
C251   H294    1.078   .     S
C251   C279    1.411   .     A
C252   C264    1.386   .     A
C252   C265    1.397   .     A
C252   H308    1.083   .     S
C253   O324    1.285   .     A
C253   C255    1.455   .     S
C253   O326    1.271   .     A
C254   C266    1.402   .     A
C254   C278    1.416   .     A
C254   C263    1.471   .     S
C255   C339    1.345   .     S
C255   H389    1.088   .     S
C256   C421    1.345   1_455 S
C256   O484    1.395   1_455 S
C257   C260    1.453   .     S
C257   C507    1.345   .     S
C257   H536    1.089   .     S
C258   C259    1.442   .     S
C259   O327    1.280   .     A
C259   O321    1.275   .     A
C260   O322    1.261   .     A
C260   O328    1.275   .     A
C261   C266    1.392   .     A
C261   C1019   1.396   .     S
C261   O1067   1.381   .     S
C262   O314    1.284   .     A
C262   O316    1.274   .     A
C262   C265    1.451   .     S
C263   O315    1.279   .     A
C263   O317    1.277   .     A
C264   C1027   1.399   1_554 S
C264   H1030   1.084   1_554 S
C266   H305    1.084   .     S
C267   C268    1.533   .     S
C267   O318    1.417   .     S
C267   H309    1.111   .     S
C267   H393    1.112   .     S
C268   C269    1.526   .     S
C268   H311    1.112   .     S
C268   H312    1.111   .     S
C269   H284    1.110   .     S
C269   H286    1.111   .     S
C269   H285    1.110   .     S
C270   C271    1.534   .     S
C270   H289    1.113   .     S
C271   H290    1.112   .     S
C271   C273    1.526   .     S
C271   H291    1.109   .     S
C272   H307    1.077   .     S
C272   C1008   1.396   1_554 S
C272   C1024   1.416   1_554 S
C273   H293    1.111   .     S
C273   H295    1.111   .     S
C273   H292    1.110   .     S
C274   O320    1.415   .     S
C274   C275    1.532   .     S
C274   H298    1.118   .     S
C274   H463    1.111   1_455 S
C275   H300    1.111   .     S
C275   C442    1.526   1_455 S
C275   H465    1.111   1_455 S
C276   H303    1.111   .     S
C276   H302    1.110   .     S
C276   C358    1.526   .     S
C276   H384    1.111   .     S
C277   C278    1.422   .     A
C277   C1019   1.416   .     S
C277   C1026   1.425   .     S
C278   C282    1.410   .     A
C279   C1024   1.425   1_554 S
C279   C1027   1.424   1_554 S
C280   C281    1.391   .     A
C280   C1011   1.399   .     S
C280   C1026   1.424   .     S
C281   H296    1.084   .     S
C281   C282    1.382   .     A
C282   H304    1.081   .     S
H283   C1011   1.084   .     S
H288   C519    1.111   .     S
H297   C357    1.111   .     S
H299   C358    1.111   .     S
H301   C442    1.111   1_455 S
H306   C421    1.088   1_455 S
H310   C433    1.112   1_455 S
O313   Zn329   1.953   .     S
O313   Zn332   1.923   .     S
O313   Zn331   1.935   .     S
O313   Zn330   1.959   .     S
O314   Zn330   1.927   .     S
O315   Zn332   1.940   .     S
O316   Zn331   1.939   .     S
O317   Zn329   1.924   .     S
O318   C339    1.395   .     S
O319   C507    1.403   .     S
O319   C519    1.419   .     S
O320   C1008   1.381   1_554 S
O321   Zn329   1.937   .     S
O322   Zn332   1.936   .     S
O323   Zn330   1.921   .     S
O324   Zn331   1.936   .     S
O325   Zn332   1.940   .     S
O326   Zn329   1.927   .     S
O327   Zn330   1.933   .     S
O328   Zn331   1.929   .     S
C333   O406    1.275   .     A
C333   C339    1.442   .     S
C333   O408    1.266   .     A
C334   C348    1.394   .     A
C334   H377    1.078   .     S
C334   C362    1.411   .     A
C335   C347    1.386   .     A
C335   C348    1.397   .     A
C335   H391    1.083   .     S
C336   O407    1.285   .     A
C336   C338    1.455   .     S
C336   O409    1.271   .     A
C337   C349    1.402   .     A
C337   C361    1.416   .     A
C337   C346    1.471   .     S
C338   C422    1.345   .     S
C338   H472    1.088   .     S
C340   C343    1.453   .     S
C340   C590    1.345   .     S
C340   H619    1.089   .     S
C341   C342    1.442   .     S
C342   O410    1.280   .     A
C342   O404    1.275   .     A
C343   O405    1.261   .     A
C343   O411    1.275   .     A
C344   C349    1.392   .     A
C344   C1102   1.396   .     S
C344   O1150   1.381   .     S
C345   O397    1.284   .     A
C345   O399    1.274   .     A
C345   C348    1.451   .     S
C346   O398    1.279   .     A
C346   O400    1.277   .     A
C347   C1110   1.399   1_554 S
C347   H1113   1.084   1_554 S
C349   H388    1.084   .     S
C350   C351    1.533   .     S
C350   O401    1.417   .     S
C350   H392    1.111   .     S
C350   H476    1.112   .     S
C351   C352    1.526   .     S
C351   H394    1.112   .     S
C351   H395    1.111   .     S
C352   H367    1.110   .     S
C352   H369    1.111   .     S
C352   H368    1.110   .     S
C353   C354    1.534   .     S
C353   H372    1.113   .     S
C354   H373    1.112   .     S
C354   C356    1.526   .     S
C354   H374    1.109   .     S
C355   H390    1.077   .     S
C355   C1091   1.396   1_554 S
C355   C1107   1.416   1_554 S
C356   H376    1.111   .     S
C356   H378    1.111   .     S
C356   H375    1.110   .     S
C357   O403    1.415   .     S
C357   C358    1.532   .     S
C357   H381    1.118   .     S
C358   H383    1.111   .     S
C359   H386    1.111   .     S
C359   H385    1.110   .     S
C359   C441    1.526   .     S
C359   H467    1.111   .     S
C360   C361    1.422   .     A
C360   C1102   1.416   .     S
C360   C1109   1.425   .     S
C361   C365    1.410   .     A
C362   C1107   1.425   1_554 S
C362   C1110   1.424   1_554 S
C363   C364    1.391   .     A
C363   C1094   1.399   .     S
C363   C1109   1.424   .     S
C364   H379    1.084   .     S
C364   C365    1.382   .     A
C365   H387    1.081   .     S
H366   C1094   1.084   .     S
H371   C602    1.111   .     S
H380   C440    1.111   .     S
H382   C441    1.111   .     S
O396   Zn412   1.953   .     S
O396   Zn415   1.923   .     S
O396   Zn414   1.935   .     S
O396   Zn413   1.959   .     S
O397   Zn413   1.927   .     S
O398   Zn415   1.940   .     S
O399   Zn414   1.939   .     S
O400   Zn412   1.924   .     S
O401   C422    1.395   .     S
O402   C590    1.403   .     S
O402   C602    1.419   .     S
O403   C1091   1.381   1_554 S
O404   Zn412   1.937   .     S
O405   Zn415   1.936   .     S
O406   Zn413   1.921   .     S
O407   Zn414   1.936   .     S
O408   Zn415   1.940   .     S
O409   Zn412   1.927   .     S
O410   Zn413   1.933   .     S
O411   Zn414   1.929   .     S
C416   O489    1.275   .     A
C416   C422    1.442   .     S
C416   O491    1.266   .     A
C417   C431    1.394   .     A
C417   H460    1.078   .     S
C417   C445    1.411   .     A
C418   C430    1.386   .     A
C418   C431    1.397   .     A
C418   H474    1.083   .     S
C419   O490    1.285   .     A
C419   C421    1.455   .     S
C419   O492    1.271   .     A
C420   C432    1.402   .     A
C420   C444    1.416   .     A
C420   C429    1.471   .     S
C421   C256    1.345   1_655 S
C421   H306    1.088   1_655 S
C423   C426    1.453   .     S
C423   C673    1.345   .     S
C423   H702    1.089   .     S
C424   C425    1.442   .     S
C425   O493    1.280   .     A
C425   O487    1.275   .     A
C426   O488    1.261   .     A
C426   O494    1.275   .     A
C427   C432    1.392   .     A
C427   C1185   1.396   .     S
C427   O1233   1.381   .     S
C428   O480    1.284   .     A
C428   O482    1.274   .     A
C428   C431    1.451   .     S
C429   O481    1.279   .     A
C429   O483    1.277   .     A
C430   C1193   1.399   1_554 S
C430   H1196   1.084   1_554 S
C432   H471    1.084   .     S
C433   C434    1.533   .     S
C433   O484    1.417   .     S
C433   H475    1.111   .     S
C433   H310    1.112   1_655 S
C434   C435    1.526   .     S
C434   H477    1.112   .     S
C434   H478    1.111   .     S
C435   H450    1.110   .     S
C435   H452    1.111   .     S
C435   H451    1.110   .     S
C436   C437    1.534   .     S
C436   H455    1.113   .     S
C437   H456    1.112   .     S
C437   C439    1.526   .     S
C437   H457    1.109   .     S
C438   H473    1.077   .     S
C438   C1174   1.396   1_554 S
C438   C1190   1.416   1_554 S
C439   H459    1.111   .     S
C439   H461    1.111   .     S
C439   H458    1.110   .     S
C440   O486    1.415   .     S
C440   C441    1.532   .     S
C440   H464    1.118   .     S
C441   H466    1.111   .     S
C442   H469    1.111   .     S
C442   H468    1.110   .     S
C442   C275    1.526   1_655 S
C442   H301    1.111   1_655 S
C443   C444    1.422   .     A
C443   C1185   1.416   .     S
C443   C1192   1.425   .     S
C444   C448    1.410   .     A
C445   C1190   1.425   1_554 S
C445   C1193   1.424   1_554 S
C446   C447    1.391   .     A
C446   C1177   1.399   .     S
C446   C1192   1.424   .     S
C447   H462    1.084   .     S
C447   C448    1.382   .     A
C448   H470    1.081   .     S
H449   C1177   1.084   .     S
H454   C685    1.111   .     S
H463   C274    1.111   1_655 S
H465   C275    1.111   1_655 S
O479   Zn495   1.953   .     S
O479   Zn498   1.923   .     S
O479   Zn497   1.935   .     S
O479   Zn496   1.959   .     S
O480   Zn496   1.927   .     S
O481   Zn498   1.940   .     S
O482   Zn497   1.939   .     S
O483   Zn495   1.924   .     S
O484   C256    1.395   1_655 S
O485   C673    1.403   .     S
O485   C685    1.419   .     S
O486   C1174   1.381   1_554 S
O487   Zn495   1.937   .     S
O488   Zn498   1.936   .     S
O489   Zn496   1.921   .     S
O490   Zn497   1.936   .     S
O491   Zn498   1.940   .     S
O492   Zn495   1.927   .     S
O493   Zn496   1.933   .     S
O494   Zn497   1.929   .     S
C499   O572    1.275   .     A
C499   C505    1.442   .     S
C499   O574    1.266   .     A
C500   C514    1.394   .     A
C500   H543    1.078   .     S
C500   C528    1.411   .     A
C501   C513    1.386   .     A
C501   C514    1.397   .     A
C501   H557    1.083   .     S
C502   O573    1.285   .     A
C502   C504    1.455   .     S
C502   O575    1.271   .     A
C503   C515    1.402   .     A
C503   C527    1.416   .     A
C503   C512    1.471   .     S
C504   C588    1.345   .     S
C504   H638    1.088   .     S
C505   C670    1.345   1_455 S
C505   O733    1.395   1_455 S
C506   C509    1.453   .     S
C506   C9      1.345   1_565 S
C506   H38     1.089   1_565 S
C507   C508    1.442   .     S
C508   O576    1.280   .     A
C508   O570    1.275   .     A
C509   O571    1.261   .     A
C509   O577    1.275   .     A
C510   C515    1.392   .     A
C510   C1268   1.396   .     S
C510   O1316   1.381   .     S
C511   O563    1.284   .     A
C511   O565    1.274   .     A
C511   C514    1.451   .     S
C512   O564    1.279   .     A
C512   O566    1.277   .     A
C513   C1276   1.399   1_554 S
C513   H1279   1.084   1_554 S
C515   H554    1.084   .     S
C516   C517    1.533   .     S
C516   O567    1.417   .     S
C516   H558    1.111   .     S
C516   H642    1.112   .     S
C517   C518    1.526   .     S
C517   H560    1.112   .     S
C517   H561    1.111   .     S
C518   H533    1.110   .     S
C518   H535    1.111   .     S
C518   H534    1.110   .     S
C519   C520    1.534   .     S
C519   H538    1.113   .     S
C520   H539    1.112   .     S
C520   C522    1.526   .     S
C520   H540    1.109   .     S
C521   H556    1.077   .     S
C521   C1257   1.396   1_554 S
C521   C1273   1.416   1_554 S
C522   H542    1.111   .     S
C522   H544    1.111   .     S
C522   H541    1.110   .     S
C523   O569    1.415   .     S
C523   C524    1.532   .     S
C523   H547    1.118   .     S
C523   H712    1.111   1_455 S
C524   H549    1.111   .     S
C524   C691    1.526   1_455 S
C524   H714    1.111   1_455 S
C525   H552    1.111   .     S
C525   H551    1.110   .     S
C525   C607    1.526   .     S
C525   H633    1.111   .     S
C526   C527    1.422   .     A
C526   C1268   1.416   .     S
C526   C1275   1.425   .     S
C527   C531    1.410   .     A
C528   C1273   1.425   1_554 S
C528   C1276   1.424   1_554 S
C529   C530    1.391   .     A
C529   C1260   1.399   .     S
C529   C1275   1.424   .     S
C530   H545    1.084   .     S
C530   C531    1.382   .     A
C531   H553    1.081   .     S
H532   C1260   1.084   .     S
H537   C21     1.111   1_565 S
H546   C606    1.111   .     S
H548   C607    1.111   .     S
H550   C691    1.111   1_455 S
H555   C670    1.088   1_455 S
H559   C682    1.112   1_455 S
O562   Zn578   1.953   .     S
O562   Zn581   1.923   .     S
O562   Zn580   1.935   .     S
O562   Zn579   1.959   .     S
O563   Zn579   1.927   .     S
O564   Zn581   1.940   .     S
O565   Zn580   1.939   .     S
O566   Zn578   1.924   .     S
O567   C588    1.395   .     S
O568   C9      1.403   1_565 S
O568   C21     1.419   1_565 S
O569   C1257   1.381   1_554 S
O570   Zn578   1.937   .     S
O571   Zn581   1.936   .     S
O572   Zn579   1.921   .     S
O573   Zn580   1.936   .     S
O574   Zn581   1.940   .     S
O575   Zn578   1.927   .     S
O576   Zn579   1.933   .     S
O577   Zn580   1.929   .     S
C582   O655    1.275   .     A
C582   C588    1.442   .     S
C582   O657    1.266   .     A
C583   C597    1.394   .     A
C583   H626    1.078   .     S
C583   C611    1.411   .     A
C584   C596    1.386   .     A
C584   C597    1.397   .     A
C584   H640    1.083   .     S
C585   O656    1.285   .     A
C585   C587    1.455   .     S
C585   O658    1.271   .     A
C586   C598    1.402   .     A
C586   C610    1.416   .     A
C586   C595    1.471   .     S
C587   C671    1.345   .     S
C587   H721    1.088   .     S
C589   C592    1.453   .     S
C589   C92     1.345   1_565 S
C589   H121    1.089   1_565 S
C590   C591    1.442   .     S
C591   O659    1.280   .     A
C591   O653    1.275   .     A
C592   O654    1.261   .     A
C592   O660    1.275   .     A
C593   C598    1.392   .     A
C593   C1351   1.396   .     S
C593   O1399   1.381   .     S
C594   O646    1.284   .     A
C594   O648    1.274   .     A
C594   C597    1.451   .     S
C595   O647    1.279   .     A
C595   O649    1.277   .     A
C596   C1359   1.399   1_554 S
C596   H1362   1.084   1_554 S
C598   H637    1.084   .     S
C599   C600    1.533   .     S
C599   O650    1.417   .     S
C599   H641    1.111   .     S
C599   H725    1.112   .     S
C600   C601    1.526   .     S
C600   H643    1.112   .     S
C600   H644    1.111   .     S
C601   H616    1.110   .     S
C601   H618    1.111   .     S
C601   H617    1.110   .     S
C602   C603    1.534   .     S
C602   H621    1.113   .     S
C603   H622    1.112   .     S
C603   C605    1.526   .     S
C603   H623    1.109   .     S
C604   H639    1.077   .     S
C604   C1340   1.396   1_554 S
C604   C1356   1.416   1_554 S
C605   H625    1.111   .     S
C605   H627    1.111   .     S
C605   H624    1.110   .     S
C606   O652    1.415   .     S
C606   C607    1.532   .     S
C606   H630    1.118   .     S
C607   H632    1.111   .     S
C608   H635    1.111   .     S
C608   H634    1.110   .     S
C608   C690    1.526   .     S
C608   H716    1.111   .     S
C609   C610    1.422   .     A
C609   C1351   1.416   .     S
C609   C1358   1.425   .     S
C610   C614    1.410   .     A
C611   C1356   1.425   1_554 S
C611   C1359   1.424   1_554 S
C612   C613    1.391   .     A
C612   C1343   1.399   .     S
C612   C1358   1.424   .     S
C613   H628    1.084   .     S
C613   C614    1.382   .     A
C614   H636    1.081   .     S
H615   C1343   1.084   .     S
H620   C104    1.111   1_565 S
H629   C689    1.111   .     S
H631   C690    1.111   .     S
O645   Zn661   1.953   .     S
O645   Zn664   1.923   .     S
O645   Zn663   1.935   .     S
O645   Zn662   1.959   .     S
O646   Zn662   1.927   .     S
O647   Zn664   1.940   .     S
O648   Zn663   1.939   .     S
O649   Zn661   1.924   .     S
O650   C671    1.395   .     S
O651   C92     1.403   1_565 S
O651   C104    1.419   1_565 S
O652   C1340   1.381   1_554 S
O653   Zn661   1.937   .     S
O654   Zn664   1.936   .     S
O655   Zn662   1.921   .     S
O656   Zn663   1.936   .     S
O657   Zn664   1.940   .     S
O658   Zn661   1.927   .     S
O659   Zn662   1.933   .     S
O660   Zn663   1.929   .     S
C665   O738    1.275   .     A
C665   C671    1.442   .     S
C665   O740    1.266   .     A
C666   C680    1.394   .     A
C666   H709    1.078   .     S
C666   C694    1.411   .     A
C667   C679    1.386   .     A
C667   C680    1.397   .     A
C667   H723    1.083   .     S
C668   O739    1.285   .     A
C668   C670    1.455   .     S
C668   O741    1.271   .     A
C669   C681    1.402   .     A
C669   C693    1.416   .     A
C669   C678    1.471   .     S
C670   C505    1.345   1_655 S
C670   H555    1.088   1_655 S
C672   C675    1.453   .     S
C672   C175    1.345   1_565 S
C672   H204    1.089   1_565 S
C673   C674    1.442   .     S
C674   O742    1.280   .     A
C674   O736    1.275   .     A
C675   O737    1.261   .     A
C675   O743    1.275   .     A
C676   C681    1.392   .     A
C676   C1434   1.396   .     S
C676   O1482   1.381   .     S
C677   O729    1.284   .     A
C677   O731    1.274   .     A
C677   C680    1.451   .     S
C678   O730    1.279   .     A
C678   O732    1.277   .     A
C679   C1442   1.399   1_554 S
C679   H1445   1.084   1_554 S
C681   H720    1.084   .     S
C682   C683    1.533   .     S
C682   O733    1.417   .     S
C682   H724    1.111   .     S
C682   H559    1.112   1_655 S
C683   C684    1.526   .     S
C683   H726    1.112   .     S
C683   H727    1.111   .     S
C684   H699    1.110   .     S
C684   H701    1.111   .     S
C684   H700    1.110   .     S
C685   C686    1.534   .     S
C685   H704    1.113   .     S
C686   H705    1.112   .     S
C686   C688    1.526   .     S
C686   H706    1.109   .     S
C687   H722    1.077   .     S
C687   C1423   1.396   1_554 S
C687   C1439   1.416   1_554 S
C688   H708    1.111   .     S
C688   H710    1.111   .     S
C688   H707    1.110   .     S
C689   O735    1.415   .     S
C689   C690    1.532   .     S
C689   H713    1.118   .     S
C690   H715    1.111   .     S
C691   H718    1.111   .     S
C691   H717    1.110   .     S
C691   C524    1.526   1_655 S
C691   H550    1.111   1_655 S
C692   C693    1.422   .     A
C692   C1434   1.416   .     S
C692   C1441   1.425   .     S
C693   C697    1.410   .     A
C694   C1439   1.425   1_554 S
C694   C1442   1.424   1_554 S
C695   C696    1.391   .     A
C695   C1426   1.399   .     S
C695   C1441   1.424   .     S
C696   H711    1.084   .     S
C696   C697    1.382   .     A
C697   H719    1.081   .     S
H698   C1426   1.084   .     S
H703   C187    1.111   1_565 S
H712   C523    1.111   1_655 S
H714   C524    1.111   1_655 S
O728   Zn744   1.953   .     S
O728   Zn747   1.923   .     S
O728   Zn746   1.935   .     S
O728   Zn745   1.959   .     S
O729   Zn745   1.927   .     S
O730   Zn747   1.940   .     S
O731   Zn746   1.939   .     S
O732   Zn744   1.924   .     S
O733   C505    1.395   1_655 S
O734   C175    1.403   1_565 S
O734   C187    1.419   1_565 S
O735   C1423   1.381   1_554 S
O736   Zn744   1.937   .     S
O737   Zn747   1.936   .     S
O738   Zn745   1.921   .     S
O739   Zn746   1.936   .     S
O740   Zn747   1.940   .     S
O741   Zn744   1.927   .     S
O742   Zn745   1.933   .     S
O743   Zn746   1.929   .     S
C748   O821    1.275   .     A
C748   C754    1.442   .     S
C748   O823    1.266   .     A
C749   C763    1.394   .     A
C749   H792    1.078   .     S
C749   C777    1.411   .     A
C750   C762    1.386   .     A
C750   C763    1.397   .     A
C750   H806    1.083   .     S
C751   O822    1.285   .     A
C751   C753    1.455   .     S
C751   O824    1.271   .     A
C752   C764    1.402   .     A
C752   C776    1.416   .     A
C752   C761    1.471   .     S
C753   C837    1.345   .     S
C753   H887    1.088   .     S
C754   C919    1.345   1_455 S
C754   O982    1.395   1_455 S
C755   C758    1.453   .     S
C755   C1005   1.345   .     S
C755   H1034   1.089   .     S
C756   C757    1.442   .     S
C756   C1253   1.345   1_545 S
C756   O1315   1.403   1_545 S
C757   O825    1.280   .     A
C757   O819    1.275   .     A
C758   O820    1.261   .     A
C758   O826    1.275   .     A
C759   C764    1.392   .     A
C759   C23     1.396   1_556 S
C759   O71     1.381   1_556 S
C760   O812    1.284   .     A
C760   O814    1.274   .     A
C760   C763    1.451   .     S
C761   O813    1.279   .     A
C761   O815    1.277   .     A
C764   H803    1.084   .     S
C765   C766    1.533   .     S
C765   O816    1.417   .     S
C765   H807    1.111   .     S
C765   H891    1.112   .     S
C766   C767    1.526   .     S
C766   H809    1.112   .     S
C766   H810    1.111   .     S
C767   H782    1.110   .     S
C767   H784    1.111   .     S
C767   H783    1.110   .     S
C768   C769    1.534   .     S
C768   H787    1.113   .     S
C768   H1284   1.111   1_545 S
C768   O1315   1.419   1_545 S
C769   H788    1.112   .     S
C769   C771    1.526   .     S
C769   H789    1.109   .     S
C770   H805    1.077   .     S
C771   H791    1.111   .     S
C771   H793    1.111   .     S
C771   H790    1.110   .     S
C772   O818    1.415   .     S
C772   C773    1.532   .     S
C772   H796    1.118   .     S
C772   H961    1.111   1_455 S
C773   H798    1.111   .     S
C773   C940    1.526   1_455 S
C773   H963    1.111   1_455 S
C774   H801    1.111   .     S
C774   H800    1.110   .     S
C774   C856    1.526   .     S
C774   H882    1.111   .     S
C775   C776    1.422   .     A
C775   C23     1.416   1_556 S
C775   C30     1.425   1_556 S
C776   C780    1.410   .     A
C778   C779    1.391   .     A
C778   C15     1.399   1_556 S
C778   C30     1.424   1_556 S
C779   H794    1.084   .     S
C779   C780    1.382   .     A
C780   H802    1.081   .     S
H781   C15     1.084   1_556 S
H785   C1253   1.089   1_545 S
H786   C1017   1.111   .     S
H795   C855    1.111   .     S
H797   C856    1.111   .     S
H799   C940    1.111   1_455 S
H804   C919    1.088   1_455 S
H808   C931    1.112   1_455 S
O811   Zn827   1.953   .     S
O811   Zn830   1.923   .     S
O811   Zn829   1.935   .     S
O811   Zn828   1.959   .     S
O812   Zn828   1.927   .     S
O813   Zn830   1.940   .     S
O814   Zn829   1.939   .     S
O815   Zn827   1.924   .     S
O816   C837    1.395   .     S
O817   C1005   1.403   .     S
O817   C1017   1.419   .     S
O819   Zn827   1.937   .     S
O820   Zn830   1.936   .     S
O821   Zn828   1.921   .     S
O822   Zn829   1.936   .     S
O823   Zn830   1.940   .     S
O824   Zn827   1.927   .     S
O825   Zn828   1.933   .     S
O826   Zn829   1.929   .     S
C831   O904    1.275   .     A
C831   C837    1.442   .     S
C831   O906    1.266   .     A
C832   C846    1.394   .     A
C832   H875    1.078   .     S
C832   C860    1.411   .     A
C833   C845    1.386   .     A
C833   C846    1.397   .     A
C833   H889    1.083   .     S
C834   O905    1.285   .     A
C834   C836    1.455   .     S
C834   O907    1.271   .     A
C835   C847    1.402   .     A
C835   C859    1.416   .     A
C835   C844    1.471   .     S
C836   C920    1.345   .     S
C836   H970    1.088   .     S
C838   C841    1.453   .     S
C838   C1088   1.345   .     S
C838   H1117   1.089   .     S
C839   C840    1.442   .     S
C839   C1336   1.345   1_545 S
C839   O1398   1.403   1_545 S
C840   O908    1.280   .     A
C840   O902    1.275   .     A
C841   O903    1.261   .     A
C841   O909    1.275   .     A
C842   C847    1.392   .     A
C842   C106    1.396   1_556 S
C842   O154    1.381   1_556 S
C843   O895    1.284   .     A
C843   O897    1.274   .     A
C843   C846    1.451   .     S
C844   O896    1.279   .     A
C844   O898    1.277   .     A
C847   H886    1.084   .     S
C848   C849    1.533   .     S
C848   O899    1.417   .     S
C848   H890    1.111   .     S
C848   H974    1.112   .     S
C849   C850    1.526   .     S
C849   H892    1.112   .     S
C849   H893    1.111   .     S
C850   H865    1.110   .     S
C850   H867    1.111   .     S
C850   H866    1.110   .     S
C851   C852    1.534   .     S
C851   H870    1.113   .     S
C851   H1367   1.111   1_545 S
C851   O1398   1.419   1_545 S
C852   H871    1.112   .     S
C852   C854    1.526   .     S
C852   H872    1.109   .     S
C853   H888    1.077   .     S
C854   H874    1.111   .     S
C854   H876    1.111   .     S
C854   H873    1.110   .     S
C855   O901    1.415   .     S
C855   C856    1.532   .     S
C855   H879    1.118   .     S
C856   H881    1.111   .     S
C857   H884    1.111   .     S
C857   H883    1.110   .     S
C857   C939    1.526   .     S
C857   H965    1.111   .     S
C858   C859    1.422   .     A
C858   C106    1.416   1_556 S
C858   C113    1.425   1_556 S
C859   C863    1.410   .     A
C861   C862    1.391   .     A
C861   C98     1.399   1_556 S
C861   C113    1.424   1_556 S
C862   H877    1.084   .     S
C862   C863    1.382   .     A
C863   H885    1.081   .     S
H864   C98     1.084   1_556 S
H868   C1336   1.089   1_545 S
H869   C1100   1.111   .     S
H878   C938    1.111   .     S
H880   C939    1.111   .     S
O894   Zn910   1.953   .     S
O894   Zn913   1.923   .     S
O894   Zn912   1.935   .     S
O894   Zn911   1.959   .     S
O895   Zn911   1.927   .     S
O896   Zn913   1.940   .     S
O897   Zn912   1.939   .     S
O898   Zn910   1.924   .     S
O899   C920    1.395   .     S
O900   C1088   1.403   .     S
O900   C1100   1.419   .     S
O902   Zn910   1.937   .     S
O903   Zn913   1.936   .     S
O904   Zn911   1.921   .     S
O905   Zn912   1.936   .     S
O906   Zn913   1.940   .     S
O907   Zn910   1.927   .     S
O908   Zn911   1.933   .     S
O909   Zn912   1.929   .     S
C914   O987    1.275   .     A
C914   C920    1.442   .     S
C914   O989    1.266   .     A
C915   C929    1.394   .     A
C915   H958    1.078   .     S
C915   C943    1.411   .     A
C916   C928    1.386   .     A
C916   C929    1.397   .     A
C916   H972    1.083   .     S
C917   O988    1.285   .     A
C917   C919    1.455   .     S
C917   O990    1.271   .     A
C918   C930    1.402   .     A
C918   C942    1.416   .     A
C918   C927    1.471   .     S
C919   C754    1.345   1_655 S
C919   H804    1.088   1_655 S
C921   C924    1.453   .     S
C921   C1171   1.345   .     S
C921   H1200   1.089   .     S
C922   C923    1.442   .     S
C922   C1419   1.345   1_545 S
C922   O1481   1.403   1_545 S
C923   O991    1.280   .     A
C923   O985    1.275   .     A
C924   O986    1.261   .     A
C924   O992    1.275   .     A
C925   C930    1.392   .     A
C925   C189    1.396   1_556 S
C925   O237    1.381   1_556 S
C926   O978    1.284   .     A
C926   O980    1.274   .     A
C926   C929    1.451   .     S
C927   O979    1.279   .     A
C927   O981    1.277   .     A
C930   H969    1.084   .     S
C931   C932    1.533   .     S
C931   O982    1.417   .     S
C931   H973    1.111   .     S
C931   H808    1.112   1_655 S
C932   C933    1.526   .     S
C932   H975    1.112   .     S
C932   H976    1.111   .     S
C933   H948    1.110   .     S
C933   H950    1.111   .     S
C933   H949    1.110   .     S
C934   C935    1.534   .     S
C934   H953    1.113   .     S
C934   H1450   1.111   1_545 S
C934   O1481   1.419   1_545 S
C935   H954    1.112   .     S
C935   C937    1.526   .     S
C935   H955    1.109   .     S
C936   H971    1.077   .     S
C937   H957    1.111   .     S
C937   H959    1.111   .     S
C937   H956    1.110   .     S
C938   O984    1.415   .     S
C938   C939    1.532   .     S
C938   H962    1.118   .     S
C939   H964    1.111   .     S
C940   H967    1.111   .     S
C940   H966    1.110   .     S
C940   C773    1.526   1_655 S
C940   H799    1.111   1_655 S
C941   C942    1.422   .     A
C941   C189    1.416   1_556 S
C941   C196    1.425   1_556 S
C942   C946    1.410   .     A
C944   C945    1.391   .     A
C944   C181    1.399   1_556 S
C944   C196    1.424   1_556 S
C945   H960    1.084   .     S
C945   C946    1.382   .     A
C946   H968    1.081   .     S
H947   C181    1.084   1_556 S
H951   C1419   1.089   1_545 S
H952   C1183   1.111   .     S
H961   C772    1.111   1_655 S
H963   C773    1.111   1_655 S
O977   Zn993   1.953   .     S
O977   Zn996   1.923   .     S
O977   Zn995   1.935   .     S
O977   Zn994   1.959   .     S
O978   Zn994   1.927   .     S
O979   Zn996   1.940   .     S
O980   Zn995   1.939   .     S
O981   Zn993   1.924   .     S
O982   C754    1.395   1_655 S
O983   C1171   1.403   .     S
O983   C1183   1.419   .     S
O985   Zn993   1.937   .     S
O986   Zn996   1.936   .     S
O987   Zn994   1.921   .     S
O988   Zn995   1.936   .     S
O989   Zn996   1.940   .     S
O990   Zn993   1.927   .     S
O991   Zn994   1.933   .     S
O992   Zn995   1.929   .     S
C997   O1070   1.275   .     A
C997   C1003   1.442   .     S
C997   O1072   1.266   .     A
C998   C1012   1.394   .     A
C998   H1041   1.078   .     S
C998   C1026   1.411   .     A
C999   C1011   1.386   .     A
C999   C1012   1.397   .     A
C999   H1055   1.083   .     S
C1000  O1071   1.285   .     A
C1000  C1002   1.455   .     S
C1000  O1073   1.271   .     A
C1001  C1013   1.402   .     A
C1001  C1025   1.416   .     A
C1001  C1010   1.471   .     S
C1002  C1086   1.345   .     S
C1002  H1136   1.088   .     S
C1003  C1168   1.345   1_455 S
C1003  O1231   1.395   1_455 S
C1004  C1007   1.453   .     S
C1004  C1254   1.345   .     S
C1004  H1283   1.089   .     S
C1005  C1006   1.442   .     S
C1006  O1074   1.280   .     A
C1006  O1068   1.275   .     A
C1007  O1069   1.261   .     A
C1007  O1075   1.275   .     A
C1008  C1013   1.392   .     A
C1008  C272    1.396   1_556 S
C1008  O320    1.381   1_556 S
C1009  O1061   1.284   .     A
C1009  O1063   1.274   .     A
C1009  C1012   1.451   .     S
C1010  O1062   1.279   .     A
C1010  O1064   1.277   .     A
C1013  H1052   1.084   .     S
C1014  C1015   1.533   .     S
C1014  O1065   1.417   .     S
C1014  H1056   1.111   .     S
C1014  H1140   1.112   .     S
C1015  C1016   1.526   .     S
C1015  H1058   1.112   .     S
C1015  H1059   1.111   .     S
C1016  H1031   1.110   .     S
C1016  H1033   1.111   .     S
C1016  H1032   1.110   .     S
C1017  C1018   1.534   .     S
C1017  H1036   1.113   .     S
C1018  H1037   1.112   .     S
C1018  C1020   1.526   .     S
C1018  H1038   1.109   .     S
C1019  H1054   1.077   .     S
C1020  H1040   1.111   .     S
C1020  H1042   1.111   .     S
C1020  H1039   1.110   .     S
C1021  O1067   1.415   .     S
C1021  C1022   1.532   .     S
C1021  H1045   1.118   .     S
C1021  H1210   1.111   1_455 S
C1022  H1047   1.111   .     S
C1022  C1189   1.526   1_455 S
C1022  H1212   1.111   1_455 S
C1023  H1050   1.111   .     S
C1023  H1049   1.110   .     S
C1023  C1105   1.526   .     S
C1023  H1131   1.111   .     S
C1024  C1025   1.422   .     A
C1024  C272    1.416   1_556 S
C1024  C279    1.425   1_556 S
C1025  C1029   1.410   .     A
C1027  C1028   1.391   .     A
C1027  C264    1.399   1_556 S
C1027  C279    1.424   1_556 S
C1028  H1043   1.084   .     S
C1028  C1029   1.382   .     A
C1029  H1051   1.081   .     S
H1030  C264    1.084   1_556 S
H1035  C1266   1.111   .     S
H1044  C1104   1.111   .     S
H1046  C1105   1.111   .     S
H1048  C1189   1.111   1_455 S
H1053  C1168   1.088   1_455 S
H1057  C1180   1.112   1_455 S
O1060  Zn1076  1.953   .     S
O1060  Zn1079  1.923   .     S
O1060  Zn1078  1.935   .     S
O1060  Zn1077  1.959   .     S
O1061  Zn1077  1.927   .     S
O1062  Zn1079  1.940   .     S
O1063  Zn1078  1.939   .     S
O1064  Zn1076  1.924   .     S
O1065  C1086   1.395   .     S
O1066  C1254   1.403   .     S
O1066  C1266   1.419   .     S
O1068  Zn1076  1.937   .     S
O1069  Zn1079  1.936   .     S
O1070  Zn1077  1.921   .     S
O1071  Zn1078  1.936   .     S
O1072  Zn1079  1.940   .     S
O1073  Zn1076  1.927   .     S
O1074  Zn1077  1.933   .     S
O1075  Zn1078  1.929   .     S
C1080  O1153   1.275   .     A
C1080  C1086   1.442   .     S
C1080  O1155   1.266   .     A
C1081  C1095   1.394   .     A
C1081  H1124   1.078   .     S
C1081  C1109   1.411   .     A
C1082  C1094   1.386   .     A
C1082  C1095   1.397   .     A
C1082  H1138   1.083   .     S
C1083  O1154   1.285   .     A
C1083  C1085   1.455   .     S
C1083  O1156   1.271   .     A
C1084  C1096   1.402   .     A
C1084  C1108   1.416   .     A
C1084  C1093   1.471   .     S
C1085  C1169   1.345   .     S
C1085  H1219   1.088   .     S
C1087  C1090   1.453   .     S
C1087  C1337   1.345   .     S
C1087  H1366   1.089   .     S
C1088  C1089   1.442   .     S
C1089  O1157   1.280   .     A
C1089  O1151   1.275   .     A
C1090  O1152   1.261   .     A
C1090  O1158   1.275   .     A
C1091  C1096   1.392   .     A
C1091  C355    1.396   1_556 S
C1091  O403    1.381   1_556 S
C1092  O1144   1.284   .     A
C1092  O1146   1.274   .     A
C1092  C1095   1.451   .     S
C1093  O1145   1.279   .     A
C1093  O1147   1.277   .     A
C1096  H1135   1.084   .     S
C1097  C1098   1.533   .     S
C1097  O1148   1.417   .     S
C1097  H1139   1.111   .     S
C1097  H1223   1.112   .     S
C1098  C1099   1.526   .     S
C1098  H1141   1.112   .     S
C1098  H1142   1.111   .     S
C1099  H1114   1.110   .     S
C1099  H1116   1.111   .     S
C1099  H1115   1.110   .     S
C1100  C1101   1.534   .     S
C1100  H1119   1.113   .     S
C1101  H1120   1.112   .     S
C1101  C1103   1.526   .     S
C1101  H1121   1.109   .     S
C1102  H1137   1.077   .     S
C1103  H1123   1.111   .     S
C1103  H1125   1.111   .     S
C1103  H1122   1.110   .     S
C1104  O1150   1.415   .     S
C1104  C1105   1.532   .     S
C1104  H1128   1.118   .     S
C1105  H1130   1.111   .     S
C1106  H1133   1.111   .     S
C1106  H1132   1.110   .     S
C1106  C1188   1.526   .     S
C1106  H1214   1.111   .     S
C1107  C1108   1.422   .     A
C1107  C355    1.416   1_556 S
C1107  C362    1.425   1_556 S
C1108  C1112   1.410   .     A
C1110  C1111   1.391   .     A
C1110  C347    1.399   1_556 S
C1110  C362    1.424   1_556 S
C1111  H1126   1.084   .     S
C1111  C1112   1.382   .     A
C1112  H1134   1.081   .     S
H1113  C347    1.084   1_556 S
H1118  C1349   1.111   .     S
H1127  C1187   1.111   .     S
H1129  C1188   1.111   .     S
O1143  Zn1159  1.953   .     S
O1143  Zn1162  1.923   .     S
O1143  Zn1161  1.935   .     S
O1143  Zn1160  1.959   .     S
O1144  Zn1160  1.927   .     S
O1145  Zn1162  1.940   .     S
O1146  Zn1161  1.939   .     S
O1147  Zn1159  1.924   .     S
O1148  C1169   1.395   .     S
O1149  C1337   1.403   .     S
O1149  C1349   1.419   .     S
O1151  Zn1159  1.937   .     S
O1152  Zn1162  1.936   .     S
O1153  Zn1160  1.921   .     S
O1154  Zn1161  1.936   .     S
O1155  Zn1162  1.940   .     S
O1156  Zn1159  1.927   .     S
O1157  Zn1160  1.933   .     S
O1158  Zn1161  1.929   .     S
C1163  O1236   1.275   .     A
C1163  C1169   1.442   .     S
C1163  O1238   1.266   .     A
C1164  C1178   1.394   .     A
C1164  H1207   1.078   .     S
C1164  C1192   1.411   .     A
C1165  C1177   1.386   .     A
C1165  C1178   1.397   .     A
C1165  H1221   1.083   .     S
C1166  O1237   1.285   .     A
C1166  C1168   1.455   .     S
C1166  O1239   1.271   .     A
C1167  C1179   1.402   .     A
C1167  C1191   1.416   .     A
C1167  C1176   1.471   .     S
C1168  C1003   1.345   1_655 S
C1168  H1053   1.088   1_655 S
C1170  C1173   1.453   .     S
C1170  C1420   1.345   .     S
C1170  H1449   1.089   .     S
C1171  C1172   1.442   .     S
C1172  O1240   1.280   .     A
C1172  O1234   1.275   .     A
C1173  O1235   1.261   .     A
C1173  O1241   1.275   .     A
C1174  C1179   1.392   .     A
C1174  C438    1.396   1_556 S
C1174  O486    1.381   1_556 S
C1175  O1227   1.284   .     A
C1175  O1229   1.274   .     A
C1175  C1178   1.451   .     S
C1176  O1228   1.279   .     A
C1176  O1230   1.277   .     A
C1179  H1218   1.084   .     S
C1180  C1181   1.533   .     S
C1180  O1231   1.417   .     S
C1180  H1222   1.111   .     S
C1180  H1057   1.112   1_655 S
C1181  C1182   1.526   .     S
C1181  H1224   1.112   .     S
C1181  H1225   1.111   .     S
C1182  H1197   1.110   .     S
C1182  H1199   1.111   .     S
C1182  H1198   1.110   .     S
C1183  C1184   1.534   .     S
C1183  H1202   1.113   .     S
C1184  H1203   1.112   .     S
C1184  C1186   1.526   .     S
C1184  H1204   1.109   .     S
C1185  H1220   1.077   .     S
C1186  H1206   1.111   .     S
C1186  H1208   1.111   .     S
C1186  H1205   1.110   .     S
C1187  O1233   1.415   .     S
C1187  C1188   1.532   .     S
C1187  H1211   1.118   .     S
C1188  H1213   1.111   .     S
C1189  H1216   1.111   .     S
C1189  H1215   1.110   .     S
C1189  C1022   1.526   1_655 S
C1189  H1048   1.111   1_655 S
C1190  C1191   1.422   .     A
C1190  C438    1.416   1_556 S
C1190  C445    1.425   1_556 S
C1191  C1195   1.410   .     A
C1193  C1194   1.391   .     A
C1193  C430    1.399   1_556 S
C1193  C445    1.424   1_556 S
C1194  H1209   1.084   .     S
C1194  C1195   1.382   .     A
C1195  H1217   1.081   .     S
H1196  C430    1.084   1_556 S
H1201  C1432   1.111   .     S
H1210  C1021   1.111   1_655 S
H1212  C1022   1.111   1_655 S
O1226  Zn1242  1.953   .     S
O1226  Zn1245  1.923   .     S
O1226  Zn1244  1.935   .     S
O1226  Zn1243  1.959   .     S
O1227  Zn1243  1.927   .     S
O1228  Zn1245  1.940   .     S
O1229  Zn1244  1.939   .     S
O1230  Zn1242  1.924   .     S
O1231  C1003   1.395   1_655 S
O1232  C1420   1.403   .     S
O1232  C1432   1.419   .     S
O1234  Zn1242  1.937   .     S
O1235  Zn1245  1.936   .     S
O1236  Zn1243  1.921   .     S
O1237  Zn1244  1.936   .     S
O1238  Zn1245  1.940   .     S
O1239  Zn1242  1.927   .     S
O1240  Zn1243  1.933   .     S
O1241  Zn1244  1.929   .     S
C1246  O1319   1.275   .     A
C1246  C1252   1.442   .     S
C1246  O1321   1.266   .     A
C1247  C1261   1.394   .     A
C1247  H1290   1.078   .     S
C1247  C1275   1.411   .     A
C1248  C1260   1.386   .     A
C1248  C1261   1.397   .     A
C1248  H1304   1.083   .     S
C1249  O1320   1.285   .     A
C1249  C1251   1.455   .     S
C1249  O1322   1.271   .     A
C1250  C1262   1.402   .     A
C1250  C1274   1.416   .     A
C1250  C1259   1.471   .     S
C1251  C1335   1.345   .     S
C1251  H1385   1.088   .     S
C1252  C1417   1.345   1_455 S
C1252  O1480   1.395   1_455 S
C1253  C1256   1.453   .     S
C1253  C756    1.345   1_565 S
C1253  H785    1.089   1_565 S
C1254  C1255   1.442   .     S
C1255  O1323   1.280   .     A
C1255  O1317   1.275   .     A
C1256  O1318   1.261   .     A
C1256  O1324   1.275   .     A
C1257  C1262   1.392   .     A
C1257  C521    1.396   1_556 S
C1257  O569    1.381   1_556 S
C1258  O1310   1.284   .     A
C1258  O1312   1.274   .     A
C1258  C1261   1.451   .     S
C1259  O1311   1.279   .     A
C1259  O1313   1.277   .     A
C1262  H1301   1.084   .     S
C1263  C1264   1.533   .     S
C1263  O1314   1.417   .     S
C1263  H1305   1.111   .     S
C1263  H1389   1.112   .     S
C1264  C1265   1.526   .     S
C1264  H1307   1.112   .     S
C1264  H1308   1.111   .     S
C1265  H1280   1.110   .     S
C1265  H1282   1.111   .     S
C1265  H1281   1.110   .     S
C1266  C1267   1.534   .     S
C1266  H1285   1.113   .     S
C1267  H1286   1.112   .     S
C1267  C1269   1.526   .     S
C1267  H1287   1.109   .     S
C1268  H1303   1.077   .     S
C1269  H1289   1.111   .     S
C1269  H1291   1.111   .     S
C1269  H1288   1.110   .     S
C1270  O1316   1.415   .     S
C1270  C1271   1.532   .     S
C1270  H1294   1.118   .     S
C1270  H1459   1.111   1_455 S
C1271  H1296   1.111   .     S
C1271  C1438   1.526   1_455 S
C1271  H1461   1.111   1_455 S
C1272  H1299   1.111   .     S
C1272  H1298   1.110   .     S
C1272  C1354   1.526   .     S
C1272  H1380   1.111   .     S
C1273  C1274   1.422   .     A
C1273  C521    1.416   1_556 S
C1273  C528    1.425   1_556 S
C1274  C1278   1.410   .     A
C1276  C1277   1.391   .     A
C1276  C513    1.399   1_556 S
C1276  C528    1.424   1_556 S
C1277  H1292   1.084   .     S
C1277  C1278   1.382   .     A
C1278  H1300   1.081   .     S
H1279  C513    1.084   1_556 S
H1284  C768    1.111   1_565 S
H1293  C1353   1.111   .     S
H1295  C1354   1.111   .     S
H1297  C1438   1.111   1_455 S
H1302  C1417   1.088   1_455 S
H1306  C1429   1.112   1_455 S
O1309  Zn1325  1.953   .     S
O1309  Zn1328  1.923   .     S
O1309  Zn1327  1.935   .     S
O1309  Zn1326  1.959   .     S
O1310  Zn1326  1.927   .     S
O1311  Zn1328  1.940   .     S
O1312  Zn1327  1.939   .     S
O1313  Zn1325  1.924   .     S
O1314  C1335   1.395   .     S
O1315  C756    1.403   1_565 S
O1315  C768    1.419   1_565 S
O1317  Zn1325  1.937   .     S
O1318  Zn1328  1.936   .     S
O1319  Zn1326  1.921   .     S
O1320  Zn1327  1.936   .     S
O1321  Zn1328  1.940   .     S
O1322  Zn1325  1.927   .     S
O1323  Zn1326  1.933   .     S
O1324  Zn1327  1.929   .     S
C1329  O1402   1.275   .     A
C1329  C1335   1.442   .     S
C1329  O1404   1.266   .     A
C1330  C1344   1.394   .     A
C1330  H1373   1.078   .     S
C1330  C1358   1.411   .     A
C1331  C1343   1.386   .     A
C1331  C1344   1.397   .     A
C1331  H1387   1.083   .     S
C1332  O1403   1.285   .     A
C1332  C1334   1.455   .     S
C1332  O1405   1.271   .     A
C1333  C1345   1.402   .     A
C1333  C1357   1.416   .     A
C1333  C1342   1.471   .     S
C1334  C1418   1.345   .     S
C1334  H1468   1.088   .     S
C1336  C1339   1.453   .     S
C1336  C839    1.345   1_565 S
C1336  H868    1.089   1_565 S
C1337  C1338   1.442   .     S
C1338  O1406   1.280   .     A
C1338  O1400   1.275   .     A
C1339  O1401   1.261   .     A
C1339  O1407   1.275   .     A
C1340  C1345   1.392   .     A
C1340  C604    1.396   1_556 S
C1340  O652    1.381   1_556 S
C1341  O1393   1.284   .     A
C1341  O1395   1.274   .     A
C1341  C1344   1.451   .     S
C1342  O1394   1.279   .     A
C1342  O1396   1.277   .     A
C1345  H1384   1.084   .     S
C1346  C1347   1.533   .     S
C1346  O1397   1.417   .     S
C1346  H1388   1.111   .     S
C1346  H1472   1.112   .     S
C1347  C1348   1.526   .     S
C1347  H1390   1.112   .     S
C1347  H1391   1.111   .     S
C1348  H1363   1.110   .     S
C1348  H1365   1.111   .     S
C1348  H1364   1.110   .     S
C1349  C1350   1.534   .     S
C1349  H1368   1.113   .     S
C1350  H1369   1.112   .     S
C1350  C1352   1.526   .     S
C1350  H1370   1.109   .     S
C1351  H1386   1.077   .     S
C1352  H1372   1.111   .     S
C1352  H1374   1.111   .     S
C1352  H1371   1.110   .     S
C1353  O1399   1.415   .     S
C1353  C1354   1.532   .     S
C1353  H1377   1.118   .     S
C1354  H1379   1.111   .     S
C1355  H1382   1.111   .     S
C1355  H1381   1.110   .     S
C1355  C1437   1.526   .     S
C1355  H1463   1.111   .     S
C1356  C1357   1.422   .     A
C1356  C604    1.416   1_556 S
C1356  C611    1.425   1_556 S
C1357  C1361   1.410   .     A
C1359  C1360   1.391   .     A
C1359  C596    1.399   1_556 S
C1359  C611    1.424   1_556 S
C1360  H1375   1.084   .     S
C1360  C1361   1.382   .     A
C1361  H1383   1.081   .     S
H1362  C596    1.084   1_556 S
H1367  C851    1.111   1_565 S
H1376  C1436   1.111   .     S
H1378  C1437   1.111   .     S
O1392  Zn1408  1.953   .     S
O1392  Zn1411  1.923   .     S
O1392  Zn1410  1.935   .     S
O1392  Zn1409  1.959   .     S
O1393  Zn1409  1.927   .     S
O1394  Zn1411  1.940   .     S
O1395  Zn1410  1.939   .     S
O1396  Zn1408  1.924   .     S
O1397  C1418   1.395   .     S
O1398  C839    1.403   1_565 S
O1398  C851    1.419   1_565 S
O1400  Zn1408  1.937   .     S
O1401  Zn1411  1.936   .     S
O1402  Zn1409  1.921   .     S
O1403  Zn1410  1.936   .     S
O1404  Zn1411  1.940   .     S
O1405  Zn1408  1.927   .     S
O1406  Zn1409  1.933   .     S
O1407  Zn1410  1.929   .     S
C1412  O1485   1.275   .     A
C1412  C1418   1.442   .     S
C1412  O1487   1.266   .     A
C1413  C1427   1.394   .     A
C1413  H1456   1.078   .     S
C1413  C1441   1.411   .     A
C1414  C1426   1.386   .     A
C1414  C1427   1.397   .     A
C1414  H1470   1.083   .     S
C1415  O1486   1.285   .     A
C1415  C1417   1.455   .     S
C1415  O1488   1.271   .     A
C1416  C1428   1.402   .     A
C1416  C1440   1.416   .     A
C1416  C1425   1.471   .     S
C1417  C1252   1.345   1_655 S
C1417  H1302   1.088   1_655 S
C1419  C1422   1.453   .     S
C1419  C922    1.345   1_565 S
C1419  H951    1.089   1_565 S
C1420  C1421   1.442   .     S
C1421  O1489   1.280   .     A
C1421  O1483   1.275   .     A
C1422  O1484   1.261   .     A
C1422  O1490   1.275   .     A
C1423  C1428   1.392   .     A
C1423  C687    1.396   1_556 S
C1423  O735    1.381   1_556 S
C1424  O1476   1.284   .     A
C1424  O1478   1.274   .     A
C1424  C1427   1.451   .     S
C1425  O1477   1.279   .     A
C1425  O1479   1.277   .     A
C1428  H1467   1.084   .     S
C1429  C1430   1.533   .     S
C1429  O1480   1.417   .     S
C1429  H1471   1.111   .     S
C1429  H1306   1.112   1_655 S
C1430  C1431   1.526   .     S
C1430  H1473   1.112   .     S
C1430  H1474   1.111   .     S
C1431  H1446   1.110   .     S
C1431  H1448   1.111   .     S
C1431  H1447   1.110   .     S
C1432  C1433   1.534   .     S
C1432  H1451   1.113   .     S
C1433  H1452   1.112   .     S
C1433  C1435   1.526   .     S
C1433  H1453   1.109   .     S
C1434  H1469   1.077   .     S
C1435  H1455   1.111   .     S
C1435  H1457   1.111   .     S
C1435  H1454   1.110   .     S
C1436  O1482   1.415   .     S
C1436  C1437   1.532   .     S
C1436  H1460   1.118   .     S
C1437  H1462   1.111   .     S
C1438  H1465   1.111   .     S
C1438  H1464   1.110   .     S
C1438  C1271   1.526   1_655 S
C1438  H1297   1.111   1_655 S
C1439  C1440   1.422   .     A
C1439  C687    1.416   1_556 S
C1439  C694    1.425   1_556 S
C1440  C1444   1.410   .     A
C1442  C1443   1.391   .     A
C1442  C679    1.399   1_556 S
C1442  C694    1.424   1_556 S
C1443  H1458   1.084   .     S
C1443  C1444   1.382   .     A
C1444  H1466   1.081   .     S
H1445  C679    1.084   1_556 S
H1450  C934    1.111   1_565 S
H1459  C1270   1.111   1_655 S
H1461  C1271   1.111   1_655 S
O1475  Zn1491  1.953   .     S
O1475  Zn1494  1.923   .     S
O1475  Zn1493  1.935   .     S
O1475  Zn1492  1.959   .     S
O1476  Zn1492  1.927   .     S
O1477  Zn1494  1.940   .     S
O1478  Zn1493  1.939   .     S
O1479  Zn1491  1.924   .     S
O1480  C1252   1.395   1_655 S
O1481  C922    1.403   1_565 S
O1481  C934    1.419   1_565 S
O1483  Zn1491  1.937   .     S
O1484  Zn1494  1.936   .     S
O1485  Zn1492  1.921   .     S
O1486  Zn1493  1.936   .     S
O1487  Zn1494  1.940   .     S
O1488  Zn1491  1.927   .     S
O1489  Zn1492  1.933   .     S
O1490  Zn1493  1.929   .     S
