data_str_m3_o1_o5_pcu_sym.29
_audit_creation_date              2020-01-03
_audit_creation_method            'Materials Studio'
_symmetry_space_group_name_H-M    'P1'
_symmetry_Int_Tables_number       1
_symmetry_cell_setting            triclinic
loop_
_symmetry_equiv_pos_as_xyz
  x,y,z
_cell_length_a                    32.0337
_cell_length_b                    29.5978
_cell_length_c                    26.7513
_cell_angle_alpha                 89.9838
_cell_angle_beta                  90.1229
_cell_angle_gamma                 89.9895
loop_
_atom_site_label
_atom_site_type_symbol
_atom_site_fract_x
_atom_site_fract_y
_atom_site_fract_z
_atom_site_U_iso_or_equiv
_atom_site_adp_type
_atom_site_occupancy
C1     C     0.08671   0.16667   0.16664   0.00000  Uiso   1.00
C2     C     0.02147   0.19887   0.19528   0.00000  Uiso   1.00
C3     C     0.29074   0.16666   0.16669   0.00000  Uiso   1.00
C4     C     0.04259   0.16668   0.16664   0.00000  Uiso   1.00
C5     C     0.19378   0.02394   0.19626   0.00000  Uiso   1.00
C6     C     0.13955   0.30939   0.13707   0.00000  Uiso   1.00
C7     C     0.13955   0.02397   0.13707   0.00000  Uiso   1.00
C8     C     0.19378   0.30937   0.19627   0.00000  Uiso   1.00
C9     C     0.24662   0.16666   0.16669   0.00000  Uiso   1.00
C10    C     0.16665   0.16667   0.07289   0.00000  Uiso   1.00
C11    C     0.16668   0.16666   0.26044   0.00000  Uiso   1.00
C12    C     0.16666   0.16667   0.02179   0.00000  Uiso   1.00
C13    C     0.16667   0.16666   0.31154   0.00000  Uiso   1.00
C14    C     0.02137   0.13448   0.13803   0.00000  Uiso   1.00
C15    C     0.31196   0.19886   0.19531   0.00000  Uiso   1.00
C16    C     0.31186   0.13446   0.13806   0.00000  Uiso   1.00
F17    F     0.04209   0.10407   0.10919   0.00000  Uiso   1.00
F18    F     0.29125   0.22926   0.22414   0.00000  Uiso   1.00
F19    F     0.29104   0.10404   0.10925   0.00000  Uiso   1.00
F20    F     0.04229   0.22929   0.22408   0.00000  Uiso   1.00
H21    H     0.21549   0.04202   0.21996   0.00000  Uiso   1.00
H22    H     0.11785   0.29131   0.11337   0.00000  Uiso   1.00
H23    H     0.11785   0.04207   0.11336   0.00000  Uiso   1.00
H24    H     0.21548   0.29126   0.21997   0.00000  Uiso   1.00
N25    N     0.16667   0.28573   0.16667   0.00000  Uiso   1.00
N26    N     0.16667   0.04760   0.16667   0.00000  Uiso   1.00
O27    O     0.10559   0.20487   0.16666   0.00000  Uiso   1.00
O28    O     0.22774   0.12846   0.16667   0.00000  Uiso   1.00
O29    O     0.22774   0.20487   0.16667   0.00000  Uiso   1.00
O30    O     0.10559   0.12846   0.16666   0.00000  Uiso   1.00
O31    O     0.16667   0.20488   0.09511   0.00000  Uiso   1.00
O32    O     0.16666   0.12845   0.23822   0.00000  Uiso   1.00
O33    O     0.16666   0.20488   0.23822   0.00000  Uiso   1.00
O34    O     0.16667   0.12845   0.09511   0.00000  Uiso   1.00
Zn35   Zn    0.16667   0.21771   0.16667   0.00000  Uiso   1.00
Zn36   Zn    0.16667   0.11563   0.16667   0.00000  Uiso   1.00
C37    C     0.42004   0.16667   0.16664   0.00000  Uiso   1.00
C38    C     0.35481   0.19887   0.19528   0.00000  Uiso   1.00
C39    C     0.62408   0.16666   0.16669   0.00000  Uiso   1.00
C40    C     0.37592   0.16668   0.16664   0.00000  Uiso   1.00
C41    C     0.52712   0.02394   0.19626   0.00000  Uiso   1.00
C42    C     0.47288   0.30939   0.13707   0.00000  Uiso   1.00
C43    C     0.47288   0.02397   0.13707   0.00000  Uiso   1.00
C44    C     0.52712   0.30937   0.19627   0.00000  Uiso   1.00
C45    C     0.57996   0.16666   0.16669   0.00000  Uiso   1.00
C46    C     0.49999   0.16667   0.07289   0.00000  Uiso   1.00
C47    C     0.50001   0.16666   0.26044   0.00000  Uiso   1.00
C48    C     0.49999   0.16667   0.02179   0.00000  Uiso   1.00
C49    C     0.50001   0.16666   0.31154   0.00000  Uiso   1.00
C50    C     0.35471   0.13448   0.13803   0.00000  Uiso   1.00
C51    C     0.64529   0.19886   0.19531   0.00000  Uiso   1.00
C52    C     0.64519   0.13446   0.13806   0.00000  Uiso   1.00
F53    F     0.37542   0.10407   0.10919   0.00000  Uiso   1.00
F54    F     0.62458   0.22926   0.22414   0.00000  Uiso   1.00
F55    F     0.62438   0.10404   0.10925   0.00000  Uiso   1.00
F56    F     0.37562   0.22929   0.22408   0.00000  Uiso   1.00
H57    H     0.54882   0.04202   0.21996   0.00000  Uiso   1.00
H58    H     0.45118   0.29131   0.11337   0.00000  Uiso   1.00
H59    H     0.45119   0.04207   0.11336   0.00000  Uiso   1.00
H60    H     0.54881   0.29126   0.21997   0.00000  Uiso   1.00
N61    N     0.50000   0.28573   0.16667   0.00000  Uiso   1.00
N62    N     0.50000   0.04760   0.16667   0.00000  Uiso   1.00
O63    O     0.43892   0.20487   0.16666   0.00000  Uiso   1.00
O64    O     0.56108   0.12846   0.16667   0.00000  Uiso   1.00
O65    O     0.56108   0.20487   0.16667   0.00000  Uiso   1.00
O66    O     0.43892   0.12846   0.16666   0.00000  Uiso   1.00
O67    O     0.50000   0.20488   0.09511   0.00000  Uiso   1.00
O68    O     0.50000   0.12845   0.23822   0.00000  Uiso   1.00
O69    O     0.50000   0.20488   0.23822   0.00000  Uiso   1.00
O70    O     0.50000   0.12845   0.09511   0.00000  Uiso   1.00
Zn71   Zn    0.50000   0.21771   0.16667   0.00000  Uiso   1.00
Zn72   Zn    0.50000   0.11563   0.16667   0.00000  Uiso   1.00
C73    C     0.75338   0.16667   0.16664   0.00000  Uiso   1.00
C74    C     0.68814   0.19887   0.19528   0.00000  Uiso   1.00
C75    C     0.95741   0.16666   0.16669   0.00000  Uiso   1.00
C76    C     0.70926   0.16668   0.16664   0.00000  Uiso   1.00
C77    C     0.86045   0.02394   0.19626   0.00000  Uiso   1.00
C78    C     0.80622   0.30939   0.13707   0.00000  Uiso   1.00
C79    C     0.80622   0.02397   0.13707   0.00000  Uiso   1.00
C80    C     0.86045   0.30937   0.19627   0.00000  Uiso   1.00
C81    C     0.91329   0.16666   0.16669   0.00000  Uiso   1.00
C82    C     0.83332   0.16667   0.07289   0.00000  Uiso   1.00
C83    C     0.83335   0.16666   0.26044   0.00000  Uiso   1.00
C84    C     0.83333   0.16667   0.02179   0.00000  Uiso   1.00
C85    C     0.83334   0.16666   0.31154   0.00000  Uiso   1.00
C86    C     0.68804   0.13448   0.13803   0.00000  Uiso   1.00
C87    C     0.97863   0.19886   0.19531   0.00000  Uiso   1.00
C88    C     0.97853   0.13446   0.13806   0.00000  Uiso   1.00
F89    F     0.70875   0.10407   0.10919   0.00000  Uiso   1.00
F90    F     0.95792   0.22926   0.22414   0.00000  Uiso   1.00
F91    F     0.95771   0.10404   0.10925   0.00000  Uiso   1.00
F92    F     0.70896   0.22929   0.22408   0.00000  Uiso   1.00
H93    H     0.88215   0.04202   0.21996   0.00000  Uiso   1.00
H94    H     0.78451   0.29131   0.11337   0.00000  Uiso   1.00
H95    H     0.78452   0.04207   0.11336   0.00000  Uiso   1.00
H96    H     0.88215   0.29126   0.21997   0.00000  Uiso   1.00
N97    N     0.83333   0.28573   0.16667   0.00000  Uiso   1.00
N98    N     0.83333   0.04760   0.16667   0.00000  Uiso   1.00
O99    O     0.77226   0.20487   0.16666   0.00000  Uiso   1.00
O100   O     0.89441   0.12846   0.16667   0.00000  Uiso   1.00
O101   O     0.89441   0.20487   0.16667   0.00000  Uiso   1.00
O102   O     0.77226   0.12846   0.16666   0.00000  Uiso   1.00
O103   O     0.83334   0.20488   0.09511   0.00000  Uiso   1.00
O104   O     0.83333   0.12845   0.23822   0.00000  Uiso   1.00
O105   O     0.83333   0.20488   0.23822   0.00000  Uiso   1.00
O106   O     0.83334   0.12845   0.09511   0.00000  Uiso   1.00
Zn107  Zn    0.83333   0.21771   0.16667   0.00000  Uiso   1.00
Zn108  Zn    0.83333   0.11563   0.16667   0.00000  Uiso   1.00
C109   C     0.08671   0.50000   0.16664   0.00000  Uiso   1.00
C110   C     0.02147   0.53220   0.19528   0.00000  Uiso   1.00
C111   C     0.29074   0.49999   0.16669   0.00000  Uiso   1.00
C112   C     0.04259   0.50001   0.16664   0.00000  Uiso   1.00
C113   C     0.19378   0.35727   0.19626   0.00000  Uiso   1.00
C114   C     0.13955   0.64273   0.13707   0.00000  Uiso   1.00
C115   C     0.13955   0.35730   0.13707   0.00000  Uiso   1.00
C116   C     0.19378   0.64270   0.19627   0.00000  Uiso   1.00
C117   C     0.24662   0.50000   0.16669   0.00000  Uiso   1.00
C118   C     0.16665   0.50000   0.07289   0.00000  Uiso   1.00
C119   C     0.16668   0.50000   0.26044   0.00000  Uiso   1.00
C120   C     0.16666   0.50000   0.02179   0.00000  Uiso   1.00
C121   C     0.16667   0.49999   0.31154   0.00000  Uiso   1.00
C122   C     0.02137   0.46781   0.13803   0.00000  Uiso   1.00
C123   C     0.31196   0.53219   0.19531   0.00000  Uiso   1.00
C124   C     0.31186   0.46780   0.13806   0.00000  Uiso   1.00
F125   F     0.04209   0.43740   0.10919   0.00000  Uiso   1.00
F126   F     0.29125   0.56260   0.22414   0.00000  Uiso   1.00
F127   F     0.29104   0.43738   0.10925   0.00000  Uiso   1.00
F128   F     0.04229   0.56262   0.22408   0.00000  Uiso   1.00
H129   H     0.21549   0.37536   0.21996   0.00000  Uiso   1.00
H130   H     0.11785   0.62464   0.11337   0.00000  Uiso   1.00
H131   H     0.11785   0.37540   0.11336   0.00000  Uiso   1.00
H132   H     0.21548   0.62460   0.21997   0.00000  Uiso   1.00
N133   N     0.16667   0.61907   0.16667   0.00000  Uiso   1.00
N134   N     0.16667   0.38093   0.16667   0.00000  Uiso   1.00
O135   O     0.10559   0.53821   0.16666   0.00000  Uiso   1.00
O136   O     0.22774   0.46179   0.16667   0.00000  Uiso   1.00
O137   O     0.22774   0.53821   0.16667   0.00000  Uiso   1.00
O138   O     0.10559   0.46179   0.16666   0.00000  Uiso   1.00
O139   O     0.16667   0.53821   0.09511   0.00000  Uiso   1.00
O140   O     0.16666   0.46179   0.23822   0.00000  Uiso   1.00
O141   O     0.16666   0.53821   0.23822   0.00000  Uiso   1.00
O142   O     0.16667   0.46179   0.09511   0.00000  Uiso   1.00
Zn143  Zn    0.16667   0.55104   0.16667   0.00000  Uiso   1.00
Zn144  Zn    0.16667   0.44896   0.16667   0.00000  Uiso   1.00
C145   C     0.42004   0.50000   0.16664   0.00000  Uiso   1.00
C146   C     0.35481   0.53220   0.19528   0.00000  Uiso   1.00
C147   C     0.62408   0.49999   0.16669   0.00000  Uiso   1.00
C148   C     0.37592   0.50001   0.16664   0.00000  Uiso   1.00
C149   C     0.52712   0.35727   0.19626   0.00000  Uiso   1.00
C150   C     0.47288   0.64273   0.13707   0.00000  Uiso   1.00
C151   C     0.47288   0.35730   0.13707   0.00000  Uiso   1.00
C152   C     0.52712   0.64270   0.19627   0.00000  Uiso   1.00
C153   C     0.57996   0.50000   0.16669   0.00000  Uiso   1.00
C154   C     0.49999   0.50000   0.07289   0.00000  Uiso   1.00
C155   C     0.50001   0.50000   0.26044   0.00000  Uiso   1.00
C156   C     0.49999   0.50000   0.02179   0.00000  Uiso   1.00
C157   C     0.50001   0.49999   0.31154   0.00000  Uiso   1.00
C158   C     0.35471   0.46781   0.13803   0.00000  Uiso   1.00
C159   C     0.64529   0.53219   0.19531   0.00000  Uiso   1.00
C160   C     0.64519   0.46780   0.13806   0.00000  Uiso   1.00
F161   F     0.37542   0.43740   0.10919   0.00000  Uiso   1.00
F162   F     0.62458   0.56260   0.22414   0.00000  Uiso   1.00
F163   F     0.62438   0.43738   0.10925   0.00000  Uiso   1.00
F164   F     0.37562   0.56262   0.22408   0.00000  Uiso   1.00
H165   H     0.54882   0.37536   0.21996   0.00000  Uiso   1.00
H166   H     0.45118   0.62464   0.11337   0.00000  Uiso   1.00
H167   H     0.45119   0.37540   0.11336   0.00000  Uiso   1.00
H168   H     0.54881   0.62460   0.21997   0.00000  Uiso   1.00
N169   N     0.50000   0.61907   0.16667   0.00000  Uiso   1.00
N170   N     0.50000   0.38093   0.16667   0.00000  Uiso   1.00
O171   O     0.43892   0.53821   0.16666   0.00000  Uiso   1.00
O172   O     0.56108   0.46179   0.16667   0.00000  Uiso   1.00
O173   O     0.56108   0.53821   0.16667   0.00000  Uiso   1.00
O174   O     0.43892   0.46179   0.16666   0.00000  Uiso   1.00
O175   O     0.50000   0.53821   0.09511   0.00000  Uiso   1.00
O176   O     0.50000   0.46179   0.23822   0.00000  Uiso   1.00
O177   O     0.50000   0.53821   0.23822   0.00000  Uiso   1.00
O178   O     0.50000   0.46179   0.09511   0.00000  Uiso   1.00
Zn179  Zn    0.50000   0.55104   0.16667   0.00000  Uiso   1.00
Zn180  Zn    0.50000   0.44896   0.16667   0.00000  Uiso   1.00
C181   C     0.75338   0.50000   0.16664   0.00000  Uiso   1.00
C182   C     0.68814   0.53220   0.19528   0.00000  Uiso   1.00
C183   C     0.95741   0.49999   0.16669   0.00000  Uiso   1.00
C184   C     0.70926   0.50001   0.16664   0.00000  Uiso   1.00
C185   C     0.86045   0.35727   0.19626   0.00000  Uiso   1.00
C186   C     0.80622   0.64273   0.13707   0.00000  Uiso   1.00
C187   C     0.80622   0.35730   0.13707   0.00000  Uiso   1.00
C188   C     0.86045   0.64270   0.19627   0.00000  Uiso   1.00
C189   C     0.91329   0.50000   0.16669   0.00000  Uiso   1.00
C190   C     0.83332   0.50000   0.07289   0.00000  Uiso   1.00
C191   C     0.83335   0.50000   0.26044   0.00000  Uiso   1.00
C192   C     0.83333   0.50000   0.02179   0.00000  Uiso   1.00
C193   C     0.83334   0.49999   0.31154   0.00000  Uiso   1.00
C194   C     0.68804   0.46781   0.13803   0.00000  Uiso   1.00
C195   C     0.97863   0.53219   0.19531   0.00000  Uiso   1.00
C196   C     0.97853   0.46780   0.13806   0.00000  Uiso   1.00
F197   F     0.70875   0.43740   0.10919   0.00000  Uiso   1.00
F198   F     0.95792   0.56260   0.22414   0.00000  Uiso   1.00
F199   F     0.95771   0.43738   0.10925   0.00000  Uiso   1.00
F200   F     0.70896   0.56262   0.22408   0.00000  Uiso   1.00
H201   H     0.88215   0.37536   0.21996   0.00000  Uiso   1.00
H202   H     0.78451   0.62464   0.11337   0.00000  Uiso   1.00
H203   H     0.78452   0.37540   0.11336   0.00000  Uiso   1.00
H204   H     0.88215   0.62460   0.21997   0.00000  Uiso   1.00
N205   N     0.83333   0.61907   0.16667   0.00000  Uiso   1.00
N206   N     0.83333   0.38093   0.16667   0.00000  Uiso   1.00
O207   O     0.77226   0.53821   0.16666   0.00000  Uiso   1.00
O208   O     0.89441   0.46179   0.16667   0.00000  Uiso   1.00
O209   O     0.89441   0.53821   0.16667   0.00000  Uiso   1.00
O210   O     0.77226   0.46179   0.16666   0.00000  Uiso   1.00
O211   O     0.83334   0.53821   0.09511   0.00000  Uiso   1.00
O212   O     0.83333   0.46179   0.23822   0.00000  Uiso   1.00
O213   O     0.83333   0.53821   0.23822   0.00000  Uiso   1.00
O214   O     0.83334   0.46179   0.09511   0.00000  Uiso   1.00
Zn215  Zn    0.83333   0.55104   0.16667   0.00000  Uiso   1.00
Zn216  Zn    0.83333   0.44896   0.16667   0.00000  Uiso   1.00
C217   C     0.08671   0.83334   0.16664   0.00000  Uiso   1.00
C218   C     0.02147   0.86554   0.19528   0.00000  Uiso   1.00
C219   C     0.29074   0.83332   0.16669   0.00000  Uiso   1.00
C220   C     0.04259   0.83334   0.16664   0.00000  Uiso   1.00
C221   C     0.19378   0.69061   0.19626   0.00000  Uiso   1.00
C222   C     0.13955   0.97606   0.13707   0.00000  Uiso   1.00
C223   C     0.13955   0.69063   0.13707   0.00000  Uiso   1.00
C224   C     0.19378   0.97603   0.19627   0.00000  Uiso   1.00
C225   C     0.24662   0.83333   0.16669   0.00000  Uiso   1.00
C226   C     0.16665   0.83334   0.07289   0.00000  Uiso   1.00
C227   C     0.16668   0.83333   0.26044   0.00000  Uiso   1.00
C228   C     0.16666   0.83334   0.02179   0.00000  Uiso   1.00
C229   C     0.16667   0.83333   0.31154   0.00000  Uiso   1.00
C230   C     0.02137   0.80114   0.13803   0.00000  Uiso   1.00
C231   C     0.31196   0.86552   0.19531   0.00000  Uiso   1.00
C232   C     0.31186   0.80113   0.13806   0.00000  Uiso   1.00
F233   F     0.04209   0.77074   0.10919   0.00000  Uiso   1.00
F234   F     0.29125   0.89593   0.22414   0.00000  Uiso   1.00
F235   F     0.29104   0.77071   0.10925   0.00000  Uiso   1.00
F236   F     0.04229   0.89596   0.22408   0.00000  Uiso   1.00
H237   H     0.21549   0.70869   0.21996   0.00000  Uiso   1.00
H238   H     0.11785   0.95798   0.11337   0.00000  Uiso   1.00
H239   H     0.11785   0.70874   0.11336   0.00000  Uiso   1.00
H240   H     0.21548   0.95793   0.21997   0.00000  Uiso   1.00
N241   N     0.16667   0.95240   0.16667   0.00000  Uiso   1.00
N242   N     0.16667   0.71427   0.16667   0.00000  Uiso   1.00
O243   O     0.10559   0.87154   0.16666   0.00000  Uiso   1.00
O244   O     0.22774   0.79513   0.16667   0.00000  Uiso   1.00
O245   O     0.22774   0.87154   0.16667   0.00000  Uiso   1.00
O246   O     0.10559   0.79513   0.16666   0.00000  Uiso   1.00
O247   O     0.16667   0.87155   0.09511   0.00000  Uiso   1.00
O248   O     0.16666   0.79512   0.23822   0.00000  Uiso   1.00
O249   O     0.16666   0.87155   0.23822   0.00000  Uiso   1.00
O250   O     0.16667   0.79512   0.09511   0.00000  Uiso   1.00
Zn251  Zn    0.16667   0.88437   0.16667   0.00000  Uiso   1.00
Zn252  Zn    0.16667   0.78229   0.16667   0.00000  Uiso   1.00
C253   C     0.42004   0.83334   0.16664   0.00000  Uiso   1.00
C254   C     0.35481   0.86554   0.19528   0.00000  Uiso   1.00
C255   C     0.62408   0.83332   0.16669   0.00000  Uiso   1.00
C256   C     0.37592   0.83334   0.16664   0.00000  Uiso   1.00
C257   C     0.52712   0.69061   0.19626   0.00000  Uiso   1.00
C258   C     0.47288   0.97606   0.13707   0.00000  Uiso   1.00
C259   C     0.47288   0.69063   0.13707   0.00000  Uiso   1.00
C260   C     0.52712   0.97603   0.19627   0.00000  Uiso   1.00
C261   C     0.57996   0.83333   0.16669   0.00000  Uiso   1.00
C262   C     0.49999   0.83334   0.07289   0.00000  Uiso   1.00
C263   C     0.50001   0.83333   0.26044   0.00000  Uiso   1.00
C264   C     0.49999   0.83334   0.02179   0.00000  Uiso   1.00
C265   C     0.50001   0.83333   0.31154   0.00000  Uiso   1.00
C266   C     0.35471   0.80114   0.13803   0.00000  Uiso   1.00
C267   C     0.64529   0.86552   0.19531   0.00000  Uiso   1.00
C268   C     0.64519   0.80113   0.13806   0.00000  Uiso   1.00
F269   F     0.37542   0.77074   0.10919   0.00000  Uiso   1.00
F270   F     0.62458   0.89593   0.22414   0.00000  Uiso   1.00
F271   F     0.62438   0.77071   0.10925   0.00000  Uiso   1.00
F272   F     0.37562   0.89596   0.22408   0.00000  Uiso   1.00
H273   H     0.54882   0.70869   0.21996   0.00000  Uiso   1.00
H274   H     0.45118   0.95798   0.11337   0.00000  Uiso   1.00
H275   H     0.45119   0.70874   0.11336   0.00000  Uiso   1.00
H276   H     0.54881   0.95793   0.21997   0.00000  Uiso   1.00
N277   N     0.50000   0.95240   0.16667   0.00000  Uiso   1.00
N278   N     0.50000   0.71427   0.16667   0.00000  Uiso   1.00
O279   O     0.43892   0.87154   0.16666   0.00000  Uiso   1.00
O280   O     0.56108   0.79513   0.16667   0.00000  Uiso   1.00
O281   O     0.56108   0.87154   0.16667   0.00000  Uiso   1.00
O282   O     0.43892   0.79513   0.16666   0.00000  Uiso   1.00
O283   O     0.50000   0.87155   0.09511   0.00000  Uiso   1.00
O284   O     0.50000   0.79512   0.23822   0.00000  Uiso   1.00
O285   O     0.50000   0.87155   0.23822   0.00000  Uiso   1.00
O286   O     0.50000   0.79512   0.09511   0.00000  Uiso   1.00
Zn287  Zn    0.50000   0.88437   0.16667   0.00000  Uiso   1.00
Zn288  Zn    0.50000   0.78229   0.16667   0.00000  Uiso   1.00
C289   C     0.75338   0.83334   0.16664   0.00000  Uiso   1.00
C290   C     0.68814   0.86554   0.19528   0.00000  Uiso   1.00
C291   C     0.95741   0.83332   0.16669   0.00000  Uiso   1.00
C292   C     0.70926   0.83334   0.16664   0.00000  Uiso   1.00
C293   C     0.86045   0.69061   0.19626   0.00000  Uiso   1.00
C294   C     0.80622   0.97606   0.13707   0.00000  Uiso   1.00
C295   C     0.80622   0.69063   0.13707   0.00000  Uiso   1.00
C296   C     0.86045   0.97603   0.19627   0.00000  Uiso   1.00
C297   C     0.91329   0.83333   0.16669   0.00000  Uiso   1.00
C298   C     0.83332   0.83334   0.07289   0.00000  Uiso   1.00
C299   C     0.83335   0.83333   0.26044   0.00000  Uiso   1.00
C300   C     0.83333   0.83334   0.02179   0.00000  Uiso   1.00
C301   C     0.83334   0.83333   0.31154   0.00000  Uiso   1.00
C302   C     0.68804   0.80114   0.13803   0.00000  Uiso   1.00
C303   C     0.97863   0.86552   0.19531   0.00000  Uiso   1.00
C304   C     0.97853   0.80113   0.13806   0.00000  Uiso   1.00
F305   F     0.70875   0.77074   0.10919   0.00000  Uiso   1.00
F306   F     0.95792   0.89593   0.22414   0.00000  Uiso   1.00
F307   F     0.95771   0.77071   0.10925   0.00000  Uiso   1.00
F308   F     0.70896   0.89596   0.22408   0.00000  Uiso   1.00
H309   H     0.88215   0.70869   0.21996   0.00000  Uiso   1.00
H310   H     0.78451   0.95798   0.11337   0.00000  Uiso   1.00
H311   H     0.78452   0.70874   0.11336   0.00000  Uiso   1.00
H312   H     0.88215   0.95793   0.21997   0.00000  Uiso   1.00
N313   N     0.83333   0.95240   0.16667   0.00000  Uiso   1.00
N314   N     0.83333   0.71427   0.16667   0.00000  Uiso   1.00
O315   O     0.77226   0.87154   0.16666   0.00000  Uiso   1.00
O316   O     0.89441   0.79513   0.16667   0.00000  Uiso   1.00
O317   O     0.89441   0.87154   0.16667   0.00000  Uiso   1.00
O318   O     0.77226   0.79513   0.16666   0.00000  Uiso   1.00
O319   O     0.83334   0.87155   0.09511   0.00000  Uiso   1.00
O320   O     0.83333   0.79512   0.23822   0.00000  Uiso   1.00
O321   O     0.83333   0.87155   0.23822   0.00000  Uiso   1.00
O322   O     0.83334   0.79512   0.09511   0.00000  Uiso   1.00
Zn323  Zn    0.83333   0.88437   0.16667   0.00000  Uiso   1.00
Zn324  Zn    0.83333   0.78229   0.16667   0.00000  Uiso   1.00
C325   C     0.08671   0.16667   0.49997   0.00000  Uiso   1.00
C326   C     0.02147   0.19887   0.52861   0.00000  Uiso   1.00
C327   C     0.29074   0.16666   0.50003   0.00000  Uiso   1.00
C328   C     0.04259   0.16668   0.49997   0.00000  Uiso   1.00
C329   C     0.19378   0.02394   0.52960   0.00000  Uiso   1.00
C330   C     0.13955   0.30939   0.47040   0.00000  Uiso   1.00
C331   C     0.13955   0.02397   0.47040   0.00000  Uiso   1.00
C332   C     0.19378   0.30937   0.52960   0.00000  Uiso   1.00
C333   C     0.24662   0.16666   0.50003   0.00000  Uiso   1.00
C334   C     0.16665   0.16667   0.40622   0.00000  Uiso   1.00
C335   C     0.16668   0.16666   0.59378   0.00000  Uiso   1.00
C336   C     0.16666   0.16667   0.35512   0.00000  Uiso   1.00
C337   C     0.16667   0.16666   0.64488   0.00000  Uiso   1.00
C338   C     0.02137   0.13448   0.47136   0.00000  Uiso   1.00
C339   C     0.31196   0.19886   0.52864   0.00000  Uiso   1.00
C340   C     0.31186   0.13446   0.47139   0.00000  Uiso   1.00
F341   F     0.04209   0.10407   0.44253   0.00000  Uiso   1.00
F342   F     0.29125   0.22926   0.55747   0.00000  Uiso   1.00
F343   F     0.29104   0.10404   0.44259   0.00000  Uiso   1.00
F344   F     0.04229   0.22929   0.55741   0.00000  Uiso   1.00
H345   H     0.21549   0.04202   0.55329   0.00000  Uiso   1.00
H346   H     0.11785   0.29131   0.44671   0.00000  Uiso   1.00
H347   H     0.11785   0.04207   0.44669   0.00000  Uiso   1.00
H348   H     0.21548   0.29126   0.55331   0.00000  Uiso   1.00
N349   N     0.16667   0.28573   0.50000   0.00000  Uiso   1.00
N350   N     0.16667   0.04760   0.50000   0.00000  Uiso   1.00
O351   O     0.10559   0.20487   0.50000   0.00000  Uiso   1.00
O352   O     0.22774   0.12846   0.50000   0.00000  Uiso   1.00
O353   O     0.22774   0.20487   0.50000   0.00000  Uiso   1.00
O354   O     0.10559   0.12846   0.50000   0.00000  Uiso   1.00
O355   O     0.16667   0.20488   0.42845   0.00000  Uiso   1.00
O356   O     0.16666   0.12845   0.57155   0.00000  Uiso   1.00
O357   O     0.16666   0.20488   0.57155   0.00000  Uiso   1.00
O358   O     0.16667   0.12845   0.42845   0.00000  Uiso   1.00
Zn359  Zn    0.16667   0.21771   0.50000   0.00000  Uiso   1.00
Zn360  Zn    0.16667   0.11563   0.50000   0.00000  Uiso   1.00
C361   C     0.42004   0.16667   0.49997   0.00000  Uiso   1.00
C362   C     0.35481   0.19887   0.52861   0.00000  Uiso   1.00
C363   C     0.62408   0.16666   0.50003   0.00000  Uiso   1.00
C364   C     0.37592   0.16668   0.49997   0.00000  Uiso   1.00
C365   C     0.52712   0.02394   0.52960   0.00000  Uiso   1.00
C366   C     0.47288   0.30939   0.47040   0.00000  Uiso   1.00
C367   C     0.47288   0.02397   0.47040   0.00000  Uiso   1.00
C368   C     0.52712   0.30937   0.52960   0.00000  Uiso   1.00
C369   C     0.57996   0.16666   0.50003   0.00000  Uiso   1.00
C370   C     0.49999   0.16667   0.40622   0.00000  Uiso   1.00
C371   C     0.50001   0.16666   0.59378   0.00000  Uiso   1.00
C372   C     0.49999   0.16667   0.35512   0.00000  Uiso   1.00
C373   C     0.50001   0.16666   0.64488   0.00000  Uiso   1.00
C374   C     0.35471   0.13448   0.47136   0.00000  Uiso   1.00
C375   C     0.64529   0.19886   0.52864   0.00000  Uiso   1.00
C376   C     0.64519   0.13446   0.47139   0.00000  Uiso   1.00
F377   F     0.37542   0.10407   0.44253   0.00000  Uiso   1.00
F378   F     0.62458   0.22926   0.55747   0.00000  Uiso   1.00
F379   F     0.62438   0.10404   0.44259   0.00000  Uiso   1.00
F380   F     0.37562   0.22929   0.55741   0.00000  Uiso   1.00
H381   H     0.54882   0.04202   0.55329   0.00000  Uiso   1.00
H382   H     0.45118   0.29131   0.44671   0.00000  Uiso   1.00
H383   H     0.45119   0.04207   0.44669   0.00000  Uiso   1.00
H384   H     0.54881   0.29126   0.55331   0.00000  Uiso   1.00
N385   N     0.50000   0.28573   0.50000   0.00000  Uiso   1.00
N386   N     0.50000   0.04760   0.50000   0.00000  Uiso   1.00
O387   O     0.43892   0.20487   0.50000   0.00000  Uiso   1.00
O388   O     0.56108   0.12846   0.50000   0.00000  Uiso   1.00
O389   O     0.56108   0.20487   0.50000   0.00000  Uiso   1.00
O390   O     0.43892   0.12846   0.50000   0.00000  Uiso   1.00
O391   O     0.50000   0.20488   0.42845   0.00000  Uiso   1.00
O392   O     0.50000   0.12845   0.57155   0.00000  Uiso   1.00
O393   O     0.50000   0.20488   0.57155   0.00000  Uiso   1.00
O394   O     0.50000   0.12845   0.42845   0.00000  Uiso   1.00
Zn395  Zn    0.50000   0.21771   0.50000   0.00000  Uiso   1.00
Zn396  Zn    0.50000   0.11563   0.50000   0.00000  Uiso   1.00
C397   C     0.75338   0.16667   0.49997   0.00000  Uiso   1.00
C398   C     0.68814   0.19887   0.52861   0.00000  Uiso   1.00
C399   C     0.95741   0.16666   0.50003   0.00000  Uiso   1.00
C400   C     0.70926   0.16668   0.49997   0.00000  Uiso   1.00
C401   C     0.86045   0.02394   0.52960   0.00000  Uiso   1.00
C402   C     0.80622   0.30939   0.47040   0.00000  Uiso   1.00
C403   C     0.80622   0.02397   0.47040   0.00000  Uiso   1.00
C404   C     0.86045   0.30937   0.52960   0.00000  Uiso   1.00
C405   C     0.91329   0.16666   0.50003   0.00000  Uiso   1.00
C406   C     0.83332   0.16667   0.40622   0.00000  Uiso   1.00
C407   C     0.83335   0.16666   0.59378   0.00000  Uiso   1.00
C408   C     0.83333   0.16667   0.35512   0.00000  Uiso   1.00
C409   C     0.83334   0.16666   0.64488   0.00000  Uiso   1.00
C410   C     0.68804   0.13448   0.47136   0.00000  Uiso   1.00
C411   C     0.97863   0.19886   0.52864   0.00000  Uiso   1.00
C412   C     0.97853   0.13446   0.47139   0.00000  Uiso   1.00
F413   F     0.70875   0.10407   0.44253   0.00000  Uiso   1.00
F414   F     0.95792   0.22926   0.55747   0.00000  Uiso   1.00
F415   F     0.95771   0.10404   0.44259   0.00000  Uiso   1.00
F416   F     0.70896   0.22929   0.55741   0.00000  Uiso   1.00
H417   H     0.88215   0.04202   0.55329   0.00000  Uiso   1.00
H418   H     0.78451   0.29131   0.44671   0.00000  Uiso   1.00
H419   H     0.78452   0.04207   0.44669   0.00000  Uiso   1.00
H420   H     0.88215   0.29126   0.55331   0.00000  Uiso   1.00
N421   N     0.83333   0.28573   0.50000   0.00000  Uiso   1.00
N422   N     0.83333   0.04760   0.50000   0.00000  Uiso   1.00
O423   O     0.77226   0.20487   0.50000   0.00000  Uiso   1.00
O424   O     0.89441   0.12846   0.50000   0.00000  Uiso   1.00
O425   O     0.89441   0.20487   0.50000   0.00000  Uiso   1.00
O426   O     0.77226   0.12846   0.50000   0.00000  Uiso   1.00
O427   O     0.83334   0.20488   0.42845   0.00000  Uiso   1.00
O428   O     0.83333   0.12845   0.57155   0.00000  Uiso   1.00
O429   O     0.83333   0.20488   0.57155   0.00000  Uiso   1.00
O430   O     0.83334   0.12845   0.42845   0.00000  Uiso   1.00
Zn431  Zn    0.83333   0.21771   0.50000   0.00000  Uiso   1.00
Zn432  Zn    0.83333   0.11563   0.50000   0.00000  Uiso   1.00
C433   C     0.08671   0.50000   0.49997   0.00000  Uiso   1.00
C434   C     0.02147   0.53220   0.52861   0.00000  Uiso   1.00
C435   C     0.29074   0.49999   0.50003   0.00000  Uiso   1.00
C436   C     0.04259   0.50001   0.49997   0.00000  Uiso   1.00
C437   C     0.19378   0.35727   0.52960   0.00000  Uiso   1.00
C438   C     0.13955   0.64273   0.47040   0.00000  Uiso   1.00
C439   C     0.13955   0.35730   0.47040   0.00000  Uiso   1.00
C440   C     0.19378   0.64270   0.52960   0.00000  Uiso   1.00
C441   C     0.24662   0.50000   0.50003   0.00000  Uiso   1.00
C442   C     0.16665   0.50000   0.40622   0.00000  Uiso   1.00
C443   C     0.16668   0.50000   0.59378   0.00000  Uiso   1.00
C444   C     0.16666   0.50000   0.35512   0.00000  Uiso   1.00
C445   C     0.16667   0.49999   0.64488   0.00000  Uiso   1.00
C446   C     0.02137   0.46781   0.47136   0.00000  Uiso   1.00
C447   C     0.31196   0.53219   0.52864   0.00000  Uiso   1.00
C448   C     0.31186   0.46780   0.47139   0.00000  Uiso   1.00
F449   F     0.04209   0.43740   0.44253   0.00000  Uiso   1.00
F450   F     0.29125   0.56260   0.55747   0.00000  Uiso   1.00
F451   F     0.29104   0.43738   0.44259   0.00000  Uiso   1.00
F452   F     0.04229   0.56262   0.55741   0.00000  Uiso   1.00
H453   H     0.21549   0.37536   0.55329   0.00000  Uiso   1.00
H454   H     0.11785   0.62464   0.44671   0.00000  Uiso   1.00
H455   H     0.11785   0.37540   0.44669   0.00000  Uiso   1.00
H456   H     0.21548   0.62460   0.55331   0.00000  Uiso   1.00
N457   N     0.16667   0.61907   0.50000   0.00000  Uiso   1.00
N458   N     0.16667   0.38093   0.50000   0.00000  Uiso   1.00
O459   O     0.10559   0.53821   0.50000   0.00000  Uiso   1.00
O460   O     0.22774   0.46179   0.50000   0.00000  Uiso   1.00
O461   O     0.22774   0.53821   0.50000   0.00000  Uiso   1.00
O462   O     0.10559   0.46179   0.50000   0.00000  Uiso   1.00
O463   O     0.16667   0.53821   0.42845   0.00000  Uiso   1.00
O464   O     0.16666   0.46179   0.57155   0.00000  Uiso   1.00
O465   O     0.16666   0.53821   0.57155   0.00000  Uiso   1.00
O466   O     0.16667   0.46179   0.42845   0.00000  Uiso   1.00
Zn467  Zn    0.16667   0.55104   0.50000   0.00000  Uiso   1.00
Zn468  Zn    0.16667   0.44896   0.50000   0.00000  Uiso   1.00
C469   C     0.42004   0.50000   0.49997   0.00000  Uiso   1.00
C470   C     0.35481   0.53220   0.52861   0.00000  Uiso   1.00
C471   C     0.62408   0.49999   0.50003   0.00000  Uiso   1.00
C472   C     0.37592   0.50001   0.49997   0.00000  Uiso   1.00
C473   C     0.52712   0.35727   0.52960   0.00000  Uiso   1.00
C474   C     0.47288   0.64273   0.47040   0.00000  Uiso   1.00
C475   C     0.47288   0.35730   0.47040   0.00000  Uiso   1.00
C476   C     0.52712   0.64270   0.52960   0.00000  Uiso   1.00
C477   C     0.57996   0.50000   0.50003   0.00000  Uiso   1.00
C478   C     0.49999   0.50000   0.40622   0.00000  Uiso   1.00
C479   C     0.50001   0.50000   0.59378   0.00000  Uiso   1.00
C480   C     0.49999   0.50000   0.35512   0.00000  Uiso   1.00
C481   C     0.50001   0.49999   0.64488   0.00000  Uiso   1.00
C482   C     0.35471   0.46781   0.47136   0.00000  Uiso   1.00
C483   C     0.64529   0.53219   0.52864   0.00000  Uiso   1.00
C484   C     0.64519   0.46780   0.47139   0.00000  Uiso   1.00
F485   F     0.37542   0.43740   0.44253   0.00000  Uiso   1.00
F486   F     0.62458   0.56260   0.55747   0.00000  Uiso   1.00
F487   F     0.62438   0.43738   0.44259   0.00000  Uiso   1.00
F488   F     0.37562   0.56262   0.55741   0.00000  Uiso   1.00
H489   H     0.54882   0.37536   0.55329   0.00000  Uiso   1.00
H490   H     0.45118   0.62464   0.44671   0.00000  Uiso   1.00
H491   H     0.45119   0.37540   0.44669   0.00000  Uiso   1.00
H492   H     0.54881   0.62460   0.55331   0.00000  Uiso   1.00
N493   N     0.50000   0.61907   0.50000   0.00000  Uiso   1.00
N494   N     0.50000   0.38093   0.50000   0.00000  Uiso   1.00
O495   O     0.43892   0.53821   0.50000   0.00000  Uiso   1.00
O496   O     0.56108   0.46179   0.50000   0.00000  Uiso   1.00
O497   O     0.56108   0.53821   0.50000   0.00000  Uiso   1.00
O498   O     0.43892   0.46179   0.50000   0.00000  Uiso   1.00
O499   O     0.50000   0.53821   0.42845   0.00000  Uiso   1.00
O500   O     0.50000   0.46179   0.57155   0.00000  Uiso   1.00
O501   O     0.50000   0.53821   0.57155   0.00000  Uiso   1.00
O502   O     0.50000   0.46179   0.42845   0.00000  Uiso   1.00
Zn503  Zn    0.50000   0.55104   0.50000   0.00000  Uiso   1.00
Zn504  Zn    0.50000   0.44896   0.50000   0.00000  Uiso   1.00
C505   C     0.75338   0.50000   0.49997   0.00000  Uiso   1.00
C506   C     0.68814   0.53220   0.52861   0.00000  Uiso   1.00
C507   C     0.95741   0.49999   0.50003   0.00000  Uiso   1.00
C508   C     0.70926   0.50001   0.49997   0.00000  Uiso   1.00
C509   C     0.86045   0.35727   0.52960   0.00000  Uiso   1.00
C510   C     0.80622   0.64273   0.47040   0.00000  Uiso   1.00
C511   C     0.80622   0.35730   0.47040   0.00000  Uiso   1.00
C512   C     0.86045   0.64270   0.52960   0.00000  Uiso   1.00
C513   C     0.91329   0.50000   0.50003   0.00000  Uiso   1.00
C514   C     0.83332   0.50000   0.40622   0.00000  Uiso   1.00
C515   C     0.83335   0.50000   0.59378   0.00000  Uiso   1.00
C516   C     0.83333   0.50000   0.35512   0.00000  Uiso   1.00
C517   C     0.83334   0.49999   0.64488   0.00000  Uiso   1.00
C518   C     0.68804   0.46781   0.47136   0.00000  Uiso   1.00
C519   C     0.97863   0.53219   0.52864   0.00000  Uiso   1.00
C520   C     0.97853   0.46780   0.47139   0.00000  Uiso   1.00
F521   F     0.70875   0.43740   0.44253   0.00000  Uiso   1.00
F522   F     0.95792   0.56260   0.55747   0.00000  Uiso   1.00
F523   F     0.95771   0.43738   0.44259   0.00000  Uiso   1.00
F524   F     0.70896   0.56262   0.55741   0.00000  Uiso   1.00
H525   H     0.88215   0.37536   0.55329   0.00000  Uiso   1.00
H526   H     0.78451   0.62464   0.44671   0.00000  Uiso   1.00
H527   H     0.78452   0.37540   0.44669   0.00000  Uiso   1.00
H528   H     0.88215   0.62460   0.55331   0.00000  Uiso   1.00
N529   N     0.83333   0.61907   0.50000   0.00000  Uiso   1.00
N530   N     0.83333   0.38093   0.50000   0.00000  Uiso   1.00
O531   O     0.77226   0.53821   0.50000   0.00000  Uiso   1.00
O532   O     0.89441   0.46179   0.50000   0.00000  Uiso   1.00
O533   O     0.89441   0.53821   0.50000   0.00000  Uiso   1.00
O534   O     0.77226   0.46179   0.50000   0.00000  Uiso   1.00
O535   O     0.83334   0.53821   0.42845   0.00000  Uiso   1.00
O536   O     0.83333   0.46179   0.57155   0.00000  Uiso   1.00
O537   O     0.83333   0.53821   0.57155   0.00000  Uiso   1.00
O538   O     0.83334   0.46179   0.42845   0.00000  Uiso   1.00
Zn539  Zn    0.83333   0.55104   0.50000   0.00000  Uiso   1.00
Zn540  Zn    0.83333   0.44896   0.50000   0.00000  Uiso   1.00
C541   C     0.08671   0.83334   0.49997   0.00000  Uiso   1.00
C542   C     0.02147   0.86554   0.52861   0.00000  Uiso   1.00
C543   C     0.29074   0.83332   0.50003   0.00000  Uiso   1.00
C544   C     0.04259   0.83334   0.49997   0.00000  Uiso   1.00
C545   C     0.19378   0.69061   0.52960   0.00000  Uiso   1.00
C546   C     0.13955   0.97606   0.47040   0.00000  Uiso   1.00
C547   C     0.13955   0.69063   0.47040   0.00000  Uiso   1.00
C548   C     0.19378   0.97603   0.52960   0.00000  Uiso   1.00
C549   C     0.24662   0.83333   0.50003   0.00000  Uiso   1.00
C550   C     0.16665   0.83334   0.40622   0.00000  Uiso   1.00
C551   C     0.16668   0.83333   0.59378   0.00000  Uiso   1.00
C552   C     0.16666   0.83334   0.35512   0.00000  Uiso   1.00
C553   C     0.16667   0.83333   0.64488   0.00000  Uiso   1.00
C554   C     0.02137   0.80114   0.47136   0.00000  Uiso   1.00
C555   C     0.31196   0.86552   0.52864   0.00000  Uiso   1.00
C556   C     0.31186   0.80113   0.47139   0.00000  Uiso   1.00
F557   F     0.04209   0.77074   0.44253   0.00000  Uiso   1.00
F558   F     0.29125   0.89593   0.55747   0.00000  Uiso   1.00
F559   F     0.29104   0.77071   0.44259   0.00000  Uiso   1.00
F560   F     0.04229   0.89596   0.55741   0.00000  Uiso   1.00
H561   H     0.21549   0.70869   0.55329   0.00000  Uiso   1.00
H562   H     0.11785   0.95798   0.44671   0.00000  Uiso   1.00
H563   H     0.11785   0.70874   0.44669   0.00000  Uiso   1.00
H564   H     0.21548   0.95793   0.55331   0.00000  Uiso   1.00
N565   N     0.16667   0.95240   0.50000   0.00000  Uiso   1.00
N566   N     0.16667   0.71427   0.50000   0.00000  Uiso   1.00
O567   O     0.10559   0.87154   0.50000   0.00000  Uiso   1.00
O568   O     0.22774   0.79513   0.50000   0.00000  Uiso   1.00
O569   O     0.22774   0.87154   0.50000   0.00000  Uiso   1.00
O570   O     0.10559   0.79513   0.50000   0.00000  Uiso   1.00
O571   O     0.16667   0.87155   0.42845   0.00000  Uiso   1.00
O572   O     0.16666   0.79512   0.57155   0.00000  Uiso   1.00
O573   O     0.16666   0.87155   0.57155   0.00000  Uiso   1.00
O574   O     0.16667   0.79512   0.42845   0.00000  Uiso   1.00
Zn575  Zn    0.16667   0.88437   0.50000   0.00000  Uiso   1.00
Zn576  Zn    0.16667   0.78229   0.50000   0.00000  Uiso   1.00
C577   C     0.42004   0.83334   0.49997   0.00000  Uiso   1.00
C578   C     0.35481   0.86554   0.52861   0.00000  Uiso   1.00
C579   C     0.62408   0.83332   0.50003   0.00000  Uiso   1.00
C580   C     0.37592   0.83334   0.49997   0.00000  Uiso   1.00
C581   C     0.52712   0.69061   0.52960   0.00000  Uiso   1.00
C582   C     0.47288   0.97606   0.47040   0.00000  Uiso   1.00
C583   C     0.47288   0.69063   0.47040   0.00000  Uiso   1.00
C584   C     0.52712   0.97603   0.52960   0.00000  Uiso   1.00
C585   C     0.57996   0.83333   0.50003   0.00000  Uiso   1.00
C586   C     0.49999   0.83334   0.40622   0.00000  Uiso   1.00
C587   C     0.50001   0.83333   0.59378   0.00000  Uiso   1.00
C588   C     0.49999   0.83334   0.35512   0.00000  Uiso   1.00
C589   C     0.50001   0.83333   0.64488   0.00000  Uiso   1.00
C590   C     0.35471   0.80114   0.47136   0.00000  Uiso   1.00
C591   C     0.64529   0.86552   0.52864   0.00000  Uiso   1.00
C592   C     0.64519   0.80113   0.47139   0.00000  Uiso   1.00
F593   F     0.37542   0.77074   0.44253   0.00000  Uiso   1.00
F594   F     0.62458   0.89593   0.55747   0.00000  Uiso   1.00
F595   F     0.62438   0.77071   0.44259   0.00000  Uiso   1.00
F596   F     0.37562   0.89596   0.55741   0.00000  Uiso   1.00
H597   H     0.54882   0.70869   0.55329   0.00000  Uiso   1.00
H598   H     0.45118   0.95798   0.44671   0.00000  Uiso   1.00
H599   H     0.45119   0.70874   0.44669   0.00000  Uiso   1.00
H600   H     0.54881   0.95793   0.55331   0.00000  Uiso   1.00
N601   N     0.50000   0.95240   0.50000   0.00000  Uiso   1.00
N602   N     0.50000   0.71427   0.50000   0.00000  Uiso   1.00
O603   O     0.43892   0.87154   0.50000   0.00000  Uiso   1.00
O604   O     0.56108   0.79513   0.50000   0.00000  Uiso   1.00
O605   O     0.56108   0.87154   0.50000   0.00000  Uiso   1.00
O606   O     0.43892   0.79513   0.50000   0.00000  Uiso   1.00
O607   O     0.50000   0.87155   0.42845   0.00000  Uiso   1.00
O608   O     0.50000   0.79512   0.57155   0.00000  Uiso   1.00
O609   O     0.50000   0.87155   0.57155   0.00000  Uiso   1.00
O610   O     0.50000   0.79512   0.42845   0.00000  Uiso   1.00
Zn611  Zn    0.50000   0.88437   0.50000   0.00000  Uiso   1.00
Zn612  Zn    0.50000   0.78229   0.50000   0.00000  Uiso   1.00
C613   C     0.75338   0.83334   0.49997   0.00000  Uiso   1.00
C614   C     0.68814   0.86554   0.52861   0.00000  Uiso   1.00
C615   C     0.95741   0.83332   0.50003   0.00000  Uiso   1.00
C616   C     0.70926   0.83334   0.49997   0.00000  Uiso   1.00
C617   C     0.86045   0.69061   0.52960   0.00000  Uiso   1.00
C618   C     0.80622   0.97606   0.47040   0.00000  Uiso   1.00
C619   C     0.80622   0.69063   0.47040   0.00000  Uiso   1.00
C620   C     0.86045   0.97603   0.52960   0.00000  Uiso   1.00
C621   C     0.91329   0.83333   0.50003   0.00000  Uiso   1.00
C622   C     0.83332   0.83334   0.40622   0.00000  Uiso   1.00
C623   C     0.83335   0.83333   0.59378   0.00000  Uiso   1.00
C624   C     0.83333   0.83334   0.35512   0.00000  Uiso   1.00
C625   C     0.83334   0.83333   0.64488   0.00000  Uiso   1.00
C626   C     0.68804   0.80114   0.47136   0.00000  Uiso   1.00
C627   C     0.97863   0.86552   0.52864   0.00000  Uiso   1.00
C628   C     0.97853   0.80113   0.47139   0.00000  Uiso   1.00
F629   F     0.70875   0.77074   0.44253   0.00000  Uiso   1.00
F630   F     0.95792   0.89593   0.55747   0.00000  Uiso   1.00
F631   F     0.95771   0.77071   0.44259   0.00000  Uiso   1.00
F632   F     0.70896   0.89596   0.55741   0.00000  Uiso   1.00
H633   H     0.88215   0.70869   0.55329   0.00000  Uiso   1.00
H634   H     0.78451   0.95798   0.44671   0.00000  Uiso   1.00
H635   H     0.78452   0.70874   0.44669   0.00000  Uiso   1.00
H636   H     0.88215   0.95793   0.55331   0.00000  Uiso   1.00
N637   N     0.83333   0.95240   0.50000   0.00000  Uiso   1.00
N638   N     0.83333   0.71427   0.50000   0.00000  Uiso   1.00
O639   O     0.77226   0.87154   0.50000   0.00000  Uiso   1.00
O640   O     0.89441   0.79513   0.50000   0.00000  Uiso   1.00
O641   O     0.89441   0.87154   0.50000   0.00000  Uiso   1.00
O642   O     0.77226   0.79513   0.50000   0.00000  Uiso   1.00
O643   O     0.83334   0.87155   0.42845   0.00000  Uiso   1.00
O644   O     0.83333   0.79512   0.57155   0.00000  Uiso   1.00
O645   O     0.83333   0.87155   0.57155   0.00000  Uiso   1.00
O646   O     0.83334   0.79512   0.42845   0.00000  Uiso   1.00
Zn647  Zn    0.83333   0.88437   0.50000   0.00000  Uiso   1.00
Zn648  Zn    0.83333   0.78229   0.50000   0.00000  Uiso   1.00
C649   C     0.08671   0.16667   0.83330   0.00000  Uiso   1.00
C650   C     0.02147   0.19887   0.86194   0.00000  Uiso   1.00
C651   C     0.29074   0.16666   0.83336   0.00000  Uiso   1.00
C652   C     0.04259   0.16668   0.83331   0.00000  Uiso   1.00
C653   C     0.19378   0.02394   0.86293   0.00000  Uiso   1.00
C654   C     0.13955   0.30939   0.80374   0.00000  Uiso   1.00
C655   C     0.13955   0.02397   0.80373   0.00000  Uiso   1.00
C656   C     0.19378   0.30937   0.86293   0.00000  Uiso   1.00
C657   C     0.24662   0.16666   0.83336   0.00000  Uiso   1.00
C658   C     0.16665   0.16667   0.73956   0.00000  Uiso   1.00
C659   C     0.16668   0.16666   0.92711   0.00000  Uiso   1.00
C660   C     0.16666   0.16667   0.68846   0.00000  Uiso   1.00
C661   C     0.16667   0.16666   0.97821   0.00000  Uiso   1.00
C662   C     0.02137   0.13448   0.80469   0.00000  Uiso   1.00
C663   C     0.31196   0.19886   0.86197   0.00000  Uiso   1.00
C664   C     0.31186   0.13446   0.80472   0.00000  Uiso   1.00
F665   F     0.04209   0.10407   0.77586   0.00000  Uiso   1.00
F666   F     0.29125   0.22926   0.89081   0.00000  Uiso   1.00
F667   F     0.29104   0.10404   0.77592   0.00000  Uiso   1.00
F668   F     0.04229   0.22929   0.89075   0.00000  Uiso   1.00
H669   H     0.21549   0.04202   0.88663   0.00000  Uiso   1.00
H670   H     0.11785   0.29131   0.78004   0.00000  Uiso   1.00
H671   H     0.11785   0.04207   0.78003   0.00000  Uiso   1.00
H672   H     0.21548   0.29126   0.88664   0.00000  Uiso   1.00
N673   N     0.16667   0.28573   0.83333   0.00000  Uiso   1.00
N674   N     0.16667   0.04760   0.83333   0.00000  Uiso   1.00
O675   O     0.10559   0.20487   0.83333   0.00000  Uiso   1.00
O676   O     0.22774   0.12846   0.83334   0.00000  Uiso   1.00
O677   O     0.22774   0.20487   0.83334   0.00000  Uiso   1.00
O678   O     0.10559   0.12846   0.83333   0.00000  Uiso   1.00
O679   O     0.16667   0.20488   0.76178   0.00000  Uiso   1.00
O680   O     0.16666   0.12845   0.90489   0.00000  Uiso   1.00
O681   O     0.16666   0.20488   0.90489   0.00000  Uiso   1.00
O682   O     0.16667   0.12845   0.76178   0.00000  Uiso   1.00
Zn683  Zn    0.16667   0.21771   0.83333   0.00000  Uiso   1.00
Zn684  Zn    0.16667   0.11563   0.83333   0.00000  Uiso   1.00
C685   C     0.42004   0.16667   0.83330   0.00000  Uiso   1.00
C686   C     0.35481   0.19887   0.86194   0.00000  Uiso   1.00
C687   C     0.62408   0.16666   0.83336   0.00000  Uiso   1.00
C688   C     0.37592   0.16668   0.83331   0.00000  Uiso   1.00
C689   C     0.52712   0.02394   0.86293   0.00000  Uiso   1.00
C690   C     0.47288   0.30939   0.80374   0.00000  Uiso   1.00
C691   C     0.47288   0.02397   0.80373   0.00000  Uiso   1.00
C692   C     0.52712   0.30937   0.86293   0.00000  Uiso   1.00
C693   C     0.57996   0.16666   0.83336   0.00000  Uiso   1.00
C694   C     0.49999   0.16667   0.73956   0.00000  Uiso   1.00
C695   C     0.50001   0.16666   0.92711   0.00000  Uiso   1.00
C696   C     0.49999   0.16667   0.68846   0.00000  Uiso   1.00
C697   C     0.50001   0.16666   0.97821   0.00000  Uiso   1.00
C698   C     0.35471   0.13448   0.80469   0.00000  Uiso   1.00
C699   C     0.64529   0.19886   0.86197   0.00000  Uiso   1.00
C700   C     0.64519   0.13446   0.80472   0.00000  Uiso   1.00
F701   F     0.37542   0.10407   0.77586   0.00000  Uiso   1.00
F702   F     0.62458   0.22926   0.89081   0.00000  Uiso   1.00
F703   F     0.62438   0.10404   0.77592   0.00000  Uiso   1.00
F704   F     0.37562   0.22929   0.89075   0.00000  Uiso   1.00
H705   H     0.54882   0.04202   0.88663   0.00000  Uiso   1.00
H706   H     0.45118   0.29131   0.78004   0.00000  Uiso   1.00
H707   H     0.45119   0.04207   0.78003   0.00000  Uiso   1.00
H708   H     0.54881   0.29126   0.88664   0.00000  Uiso   1.00
N709   N     0.50000   0.28573   0.83333   0.00000  Uiso   1.00
N710   N     0.50000   0.04760   0.83333   0.00000  Uiso   1.00
O711   O     0.43892   0.20487   0.83333   0.00000  Uiso   1.00
O712   O     0.56108   0.12846   0.83334   0.00000  Uiso   1.00
O713   O     0.56108   0.20487   0.83334   0.00000  Uiso   1.00
O714   O     0.43892   0.12846   0.83333   0.00000  Uiso   1.00
O715   O     0.50000   0.20488   0.76178   0.00000  Uiso   1.00
O716   O     0.50000   0.12845   0.90489   0.00000  Uiso   1.00
O717   O     0.50000   0.20488   0.90489   0.00000  Uiso   1.00
O718   O     0.50000   0.12845   0.76178   0.00000  Uiso   1.00
Zn719  Zn    0.50000   0.21771   0.83333   0.00000  Uiso   1.00
Zn720  Zn    0.50000   0.11563   0.83333   0.00000  Uiso   1.00
C721   C     0.75338   0.16667   0.83330   0.00000  Uiso   1.00
C722   C     0.68814   0.19887   0.86194   0.00000  Uiso   1.00
C723   C     0.95741   0.16666   0.83336   0.00000  Uiso   1.00
C724   C     0.70926   0.16668   0.83331   0.00000  Uiso   1.00
C725   C     0.86045   0.02394   0.86293   0.00000  Uiso   1.00
C726   C     0.80622   0.30939   0.80374   0.00000  Uiso   1.00
C727   C     0.80622   0.02397   0.80373   0.00000  Uiso   1.00
C728   C     0.86045   0.30937   0.86293   0.00000  Uiso   1.00
C729   C     0.91329   0.16666   0.83336   0.00000  Uiso   1.00
C730   C     0.83332   0.16667   0.73956   0.00000  Uiso   1.00
C731   C     0.83335   0.16666   0.92711   0.00000  Uiso   1.00
C732   C     0.83333   0.16667   0.68846   0.00000  Uiso   1.00
C733   C     0.83334   0.16666   0.97821   0.00000  Uiso   1.00
C734   C     0.68804   0.13448   0.80469   0.00000  Uiso   1.00
C735   C     0.97863   0.19886   0.86197   0.00000  Uiso   1.00
C736   C     0.97853   0.13446   0.80472   0.00000  Uiso   1.00
F737   F     0.70875   0.10407   0.77586   0.00000  Uiso   1.00
F738   F     0.95792   0.22926   0.89081   0.00000  Uiso   1.00
F739   F     0.95771   0.10404   0.77592   0.00000  Uiso   1.00
F740   F     0.70896   0.22929   0.89075   0.00000  Uiso   1.00
H741   H     0.88215   0.04202   0.88663   0.00000  Uiso   1.00
H742   H     0.78451   0.29131   0.78004   0.00000  Uiso   1.00
H743   H     0.78452   0.04207   0.78003   0.00000  Uiso   1.00
H744   H     0.88215   0.29126   0.88664   0.00000  Uiso   1.00
N745   N     0.83333   0.28573   0.83333   0.00000  Uiso   1.00
N746   N     0.83333   0.04760   0.83333   0.00000  Uiso   1.00
O747   O     0.77226   0.20487   0.83333   0.00000  Uiso   1.00
O748   O     0.89441   0.12846   0.83334   0.00000  Uiso   1.00
O749   O     0.89441   0.20487   0.83334   0.00000  Uiso   1.00
O750   O     0.77226   0.12846   0.83333   0.00000  Uiso   1.00
O751   O     0.83334   0.20488   0.76178   0.00000  Uiso   1.00
O752   O     0.83333   0.12845   0.90489   0.00000  Uiso   1.00
O753   O     0.83333   0.20488   0.90489   0.00000  Uiso   1.00
O754   O     0.83334   0.12845   0.76178   0.00000  Uiso   1.00
Zn755  Zn    0.83333   0.21771   0.83333   0.00000  Uiso   1.00
Zn756  Zn    0.83333   0.11563   0.83333   0.00000  Uiso   1.00
C757   C     0.08671   0.50000   0.83330   0.00000  Uiso   1.00
C758   C     0.02147   0.53220   0.86194   0.00000  Uiso   1.00
C759   C     0.29074   0.49999   0.83336   0.00000  Uiso   1.00
C760   C     0.04259   0.50001   0.83331   0.00000  Uiso   1.00
C761   C     0.19378   0.35727   0.86293   0.00000  Uiso   1.00
C762   C     0.13955   0.64273   0.80374   0.00000  Uiso   1.00
C763   C     0.13955   0.35730   0.80373   0.00000  Uiso   1.00
C764   C     0.19378   0.64270   0.86293   0.00000  Uiso   1.00
C765   C     0.24662   0.50000   0.83336   0.00000  Uiso   1.00
C766   C     0.16665   0.50000   0.73956   0.00000  Uiso   1.00
C767   C     0.16668   0.50000   0.92711   0.00000  Uiso   1.00
C768   C     0.16666   0.50000   0.68846   0.00000  Uiso   1.00
C769   C     0.16667   0.49999   0.97821   0.00000  Uiso   1.00
C770   C     0.02137   0.46781   0.80469   0.00000  Uiso   1.00
C771   C     0.31196   0.53219   0.86197   0.00000  Uiso   1.00
C772   C     0.31186   0.46780   0.80472   0.00000  Uiso   1.00
F773   F     0.04209   0.43740   0.77586   0.00000  Uiso   1.00
F774   F     0.29125   0.56260   0.89081   0.00000  Uiso   1.00
F775   F     0.29104   0.43738   0.77592   0.00000  Uiso   1.00
F776   F     0.04229   0.56262   0.89075   0.00000  Uiso   1.00
H777   H     0.21549   0.37536   0.88663   0.00000  Uiso   1.00
H778   H     0.11785   0.62464   0.78004   0.00000  Uiso   1.00
H779   H     0.11785   0.37540   0.78003   0.00000  Uiso   1.00
H780   H     0.21548   0.62460   0.88664   0.00000  Uiso   1.00
N781   N     0.16667   0.61907   0.83333   0.00000  Uiso   1.00
N782   N     0.16667   0.38093   0.83333   0.00000  Uiso   1.00
O783   O     0.10559   0.53821   0.83333   0.00000  Uiso   1.00
O784   O     0.22774   0.46179   0.83334   0.00000  Uiso   1.00
O785   O     0.22774   0.53821   0.83334   0.00000  Uiso   1.00
O786   O     0.10559   0.46179   0.83333   0.00000  Uiso   1.00
O787   O     0.16667   0.53821   0.76178   0.00000  Uiso   1.00
O788   O     0.16666   0.46179   0.90489   0.00000  Uiso   1.00
O789   O     0.16666   0.53821   0.90489   0.00000  Uiso   1.00
O790   O     0.16667   0.46179   0.76178   0.00000  Uiso   1.00
Zn791  Zn    0.16667   0.55104   0.83333   0.00000  Uiso   1.00
Zn792  Zn    0.16667   0.44896   0.83333   0.00000  Uiso   1.00
C793   C     0.42004   0.50000   0.83330   0.00000  Uiso   1.00
C794   C     0.35481   0.53220   0.86194   0.00000  Uiso   1.00
C795   C     0.62408   0.49999   0.83336   0.00000  Uiso   1.00
C796   C     0.37592   0.50001   0.83331   0.00000  Uiso   1.00
C797   C     0.52712   0.35727   0.86293   0.00000  Uiso   1.00
C798   C     0.47288   0.64273   0.80374   0.00000  Uiso   1.00
C799   C     0.47288   0.35730   0.80373   0.00000  Uiso   1.00
C800   C     0.52712   0.64270   0.86293   0.00000  Uiso   1.00
C801   C     0.57996   0.50000   0.83336   0.00000  Uiso   1.00
C802   C     0.49999   0.50000   0.73956   0.00000  Uiso   1.00
C803   C     0.50001   0.50000   0.92711   0.00000  Uiso   1.00
C804   C     0.49999   0.50000   0.68846   0.00000  Uiso   1.00
C805   C     0.50001   0.49999   0.97821   0.00000  Uiso   1.00
C806   C     0.35471   0.46781   0.80469   0.00000  Uiso   1.00
C807   C     0.64529   0.53219   0.86197   0.00000  Uiso   1.00
C808   C     0.64519   0.46780   0.80472   0.00000  Uiso   1.00
F809   F     0.37542   0.43740   0.77586   0.00000  Uiso   1.00
F810   F     0.62458   0.56260   0.89081   0.00000  Uiso   1.00
F811   F     0.62438   0.43738   0.77592   0.00000  Uiso   1.00
F812   F     0.37562   0.56262   0.89075   0.00000  Uiso   1.00
H813   H     0.54882   0.37536   0.88663   0.00000  Uiso   1.00
H814   H     0.45118   0.62464   0.78004   0.00000  Uiso   1.00
H815   H     0.45119   0.37540   0.78003   0.00000  Uiso   1.00
H816   H     0.54881   0.62460   0.88664   0.00000  Uiso   1.00
N817   N     0.50000   0.61907   0.83333   0.00000  Uiso   1.00
N818   N     0.50000   0.38093   0.83333   0.00000  Uiso   1.00
O819   O     0.43892   0.53821   0.83333   0.00000  Uiso   1.00
O820   O     0.56108   0.46179   0.83334   0.00000  Uiso   1.00
O821   O     0.56108   0.53821   0.83334   0.00000  Uiso   1.00
O822   O     0.43892   0.46179   0.83333   0.00000  Uiso   1.00
O823   O     0.50000   0.53821   0.76178   0.00000  Uiso   1.00
O824   O     0.50000   0.46179   0.90489   0.00000  Uiso   1.00
O825   O     0.50000   0.53821   0.90489   0.00000  Uiso   1.00
O826   O     0.50000   0.46179   0.76178   0.00000  Uiso   1.00
Zn827  Zn    0.50000   0.55104   0.83333   0.00000  Uiso   1.00
Zn828  Zn    0.50000   0.44896   0.83333   0.00000  Uiso   1.00
C829   C     0.75338   0.50000   0.83330   0.00000  Uiso   1.00
C830   C     0.68814   0.53220   0.86194   0.00000  Uiso   1.00
C831   C     0.95741   0.49999   0.83336   0.00000  Uiso   1.00
C832   C     0.70926   0.50001   0.83331   0.00000  Uiso   1.00
C833   C     0.86045   0.35727   0.86293   0.00000  Uiso   1.00
C834   C     0.80622   0.64273   0.80374   0.00000  Uiso   1.00
C835   C     0.80622   0.35730   0.80373   0.00000  Uiso   1.00
C836   C     0.86045   0.64270   0.86293   0.00000  Uiso   1.00
C837   C     0.91329   0.50000   0.83336   0.00000  Uiso   1.00
C838   C     0.83332   0.50000   0.73956   0.00000  Uiso   1.00
C839   C     0.83335   0.50000   0.92711   0.00000  Uiso   1.00
C840   C     0.83333   0.50000   0.68846   0.00000  Uiso   1.00
C841   C     0.83334   0.49999   0.97821   0.00000  Uiso   1.00
C842   C     0.68804   0.46781   0.80469   0.00000  Uiso   1.00
C843   C     0.97863   0.53219   0.86197   0.00000  Uiso   1.00
C844   C     0.97853   0.46780   0.80472   0.00000  Uiso   1.00
F845   F     0.70875   0.43740   0.77586   0.00000  Uiso   1.00
F846   F     0.95792   0.56260   0.89081   0.00000  Uiso   1.00
F847   F     0.95771   0.43738   0.77592   0.00000  Uiso   1.00
F848   F     0.70896   0.56262   0.89075   0.00000  Uiso   1.00
H849   H     0.88215   0.37536   0.88663   0.00000  Uiso   1.00
H850   H     0.78451   0.62464   0.78004   0.00000  Uiso   1.00
H851   H     0.78452   0.37540   0.78003   0.00000  Uiso   1.00
H852   H     0.88215   0.62460   0.88664   0.00000  Uiso   1.00
N853   N     0.83333   0.61907   0.83333   0.00000  Uiso   1.00
N854   N     0.83333   0.38093   0.83333   0.00000  Uiso   1.00
O855   O     0.77226   0.53821   0.83333   0.00000  Uiso   1.00
O856   O     0.89441   0.46179   0.83334   0.00000  Uiso   1.00
O857   O     0.89441   0.53821   0.83334   0.00000  Uiso   1.00
O858   O     0.77226   0.46179   0.83333   0.00000  Uiso   1.00
O859   O     0.83334   0.53821   0.76178   0.00000  Uiso   1.00
O860   O     0.83333   0.46179   0.90489   0.00000  Uiso   1.00
O861   O     0.83333   0.53821   0.90489   0.00000  Uiso   1.00
O862   O     0.83334   0.46179   0.76178   0.00000  Uiso   1.00
Zn863  Zn    0.83333   0.55104   0.83333   0.00000  Uiso   1.00
Zn864  Zn    0.83333   0.44896   0.83333   0.00000  Uiso   1.00
C865   C     0.08671   0.83334   0.83330   0.00000  Uiso   1.00
C866   C     0.02147   0.86554   0.86194   0.00000  Uiso   1.00
C867   C     0.29074   0.83332   0.83336   0.00000  Uiso   1.00
C868   C     0.04259   0.83334   0.83331   0.00000  Uiso   1.00
C869   C     0.19378   0.69061   0.86293   0.00000  Uiso   1.00
C870   C     0.13955   0.97606   0.80374   0.00000  Uiso   1.00
C871   C     0.13955   0.69063   0.80373   0.00000  Uiso   1.00
C872   C     0.19378   0.97603   0.86293   0.00000  Uiso   1.00
C873   C     0.24662   0.83333   0.83336   0.00000  Uiso   1.00
C874   C     0.16665   0.83334   0.73956   0.00000  Uiso   1.00
C875   C     0.16668   0.83333   0.92711   0.00000  Uiso   1.00
C876   C     0.16666   0.83334   0.68846   0.00000  Uiso   1.00
C877   C     0.16667   0.83333   0.97821   0.00000  Uiso   1.00
C878   C     0.02137   0.80114   0.80469   0.00000  Uiso   1.00
C879   C     0.31196   0.86552   0.86197   0.00000  Uiso   1.00
C880   C     0.31186   0.80113   0.80472   0.00000  Uiso   1.00
F881   F     0.04209   0.77074   0.77586   0.00000  Uiso   1.00
F882   F     0.29125   0.89593   0.89081   0.00000  Uiso   1.00
F883   F     0.29104   0.77071   0.77592   0.00000  Uiso   1.00
F884   F     0.04229   0.89596   0.89075   0.00000  Uiso   1.00
H885   H     0.21549   0.70869   0.88663   0.00000  Uiso   1.00
H886   H     0.11785   0.95798   0.78004   0.00000  Uiso   1.00
H887   H     0.11785   0.70874   0.78003   0.00000  Uiso   1.00
H888   H     0.21548   0.95793   0.88664   0.00000  Uiso   1.00
N889   N     0.16667   0.95240   0.83333   0.00000  Uiso   1.00
N890   N     0.16667   0.71427   0.83333   0.00000  Uiso   1.00
O891   O     0.10559   0.87154   0.83333   0.00000  Uiso   1.00
O892   O     0.22774   0.79513   0.83334   0.00000  Uiso   1.00
O893   O     0.22774   0.87154   0.83334   0.00000  Uiso   1.00
O894   O     0.10559   0.79513   0.83333   0.00000  Uiso   1.00
O895   O     0.16667   0.87155   0.76178   0.00000  Uiso   1.00
O896   O     0.16666   0.79512   0.90489   0.00000  Uiso   1.00
O897   O     0.16666   0.87155   0.90489   0.00000  Uiso   1.00
O898   O     0.16667   0.79512   0.76178   0.00000  Uiso   1.00
Zn899  Zn    0.16667   0.88437   0.83333   0.00000  Uiso   1.00
Zn900  Zn    0.16667   0.78229   0.83333   0.00000  Uiso   1.00
C901   C     0.42004   0.83334   0.83330   0.00000  Uiso   1.00
C902   C     0.35481   0.86554   0.86194   0.00000  Uiso   1.00
C903   C     0.62408   0.83332   0.83336   0.00000  Uiso   1.00
C904   C     0.37592   0.83334   0.83331   0.00000  Uiso   1.00
C905   C     0.52712   0.69061   0.86293   0.00000  Uiso   1.00
C906   C     0.47288   0.97606   0.80374   0.00000  Uiso   1.00
C907   C     0.47288   0.69063   0.80373   0.00000  Uiso   1.00
C908   C     0.52712   0.97603   0.86293   0.00000  Uiso   1.00
C909   C     0.57996   0.83333   0.83336   0.00000  Uiso   1.00
C910   C     0.49999   0.83334   0.73956   0.00000  Uiso   1.00
C911   C     0.50001   0.83333   0.92711   0.00000  Uiso   1.00
C912   C     0.49999   0.83334   0.68846   0.00000  Uiso   1.00
C913   C     0.50001   0.83333   0.97821   0.00000  Uiso   1.00
C914   C     0.35471   0.80114   0.80469   0.00000  Uiso   1.00
C915   C     0.64529   0.86552   0.86197   0.00000  Uiso   1.00
C916   C     0.64519   0.80113   0.80472   0.00000  Uiso   1.00
F917   F     0.37542   0.77074   0.77586   0.00000  Uiso   1.00
F918   F     0.62458   0.89593   0.89081   0.00000  Uiso   1.00
F919   F     0.62438   0.77071   0.77592   0.00000  Uiso   1.00
F920   F     0.37562   0.89596   0.89075   0.00000  Uiso   1.00
H921   H     0.54882   0.70869   0.88663   0.00000  Uiso   1.00
H922   H     0.45118   0.95798   0.78004   0.00000  Uiso   1.00
H923   H     0.45119   0.70874   0.78003   0.00000  Uiso   1.00
H924   H     0.54881   0.95793   0.88664   0.00000  Uiso   1.00
N925   N     0.50000   0.95240   0.83333   0.00000  Uiso   1.00
N926   N     0.50000   0.71427   0.83333   0.00000  Uiso   1.00
O927   O     0.43892   0.87154   0.83333   0.00000  Uiso   1.00
O928   O     0.56108   0.79513   0.83334   0.00000  Uiso   1.00
O929   O     0.56108   0.87154   0.83334   0.00000  Uiso   1.00
O930   O     0.43892   0.79513   0.83333   0.00000  Uiso   1.00
O931   O     0.50000   0.87155   0.76178   0.00000  Uiso   1.00
O932   O     0.50000   0.79512   0.90489   0.00000  Uiso   1.00
O933   O     0.50000   0.87155   0.90489   0.00000  Uiso   1.00
O934   O     0.50000   0.79512   0.76178   0.00000  Uiso   1.00
Zn935  Zn    0.50000   0.88437   0.83333   0.00000  Uiso   1.00
Zn936  Zn    0.50000   0.78229   0.83333   0.00000  Uiso   1.00
C937   C     0.75338   0.83334   0.83330   0.00000  Uiso   1.00
C938   C     0.68814   0.86554   0.86194   0.00000  Uiso   1.00
C939   C     0.95741   0.83332   0.83336   0.00000  Uiso   1.00
C940   C     0.70926   0.83334   0.83331   0.00000  Uiso   1.00
C941   C     0.86045   0.69061   0.86293   0.00000  Uiso   1.00
C942   C     0.80622   0.97606   0.80374   0.00000  Uiso   1.00
C943   C     0.80622   0.69063   0.80373   0.00000  Uiso   1.00
C944   C     0.86045   0.97603   0.86293   0.00000  Uiso   1.00
C945   C     0.91329   0.83333   0.83336   0.00000  Uiso   1.00
C946   C     0.83332   0.83334   0.73956   0.00000  Uiso   1.00
C947   C     0.83335   0.83333   0.92711   0.00000  Uiso   1.00
C948   C     0.83333   0.83334   0.68846   0.00000  Uiso   1.00
C949   C     0.83334   0.83333   0.97821   0.00000  Uiso   1.00
C950   C     0.68804   0.80114   0.80469   0.00000  Uiso   1.00
C951   C     0.97863   0.86552   0.86197   0.00000  Uiso   1.00
C952   C     0.97853   0.80113   0.80472   0.00000  Uiso   1.00
F953   F     0.70875   0.77074   0.77586   0.00000  Uiso   1.00
F954   F     0.95792   0.89593   0.89081   0.00000  Uiso   1.00
F955   F     0.95771   0.77071   0.77592   0.00000  Uiso   1.00
F956   F     0.70896   0.89596   0.89075   0.00000  Uiso   1.00
H957   H     0.88215   0.70869   0.88663   0.00000  Uiso   1.00
H958   H     0.78451   0.95798   0.78004   0.00000  Uiso   1.00
H959   H     0.78452   0.70874   0.78003   0.00000  Uiso   1.00
H960   H     0.88215   0.95793   0.88664   0.00000  Uiso   1.00
N961   N     0.83333   0.95240   0.83333   0.00000  Uiso   1.00
N962   N     0.83333   0.71427   0.83333   0.00000  Uiso   1.00
O963   O     0.77226   0.87154   0.83333   0.00000  Uiso   1.00
O964   O     0.89441   0.79513   0.83334   0.00000  Uiso   1.00
O965   O     0.89441   0.87154   0.83334   0.00000  Uiso   1.00
O966   O     0.77226   0.79513   0.83333   0.00000  Uiso   1.00
O967   O     0.83334   0.87155   0.76178   0.00000  Uiso   1.00
O968   O     0.83333   0.79512   0.90489   0.00000  Uiso   1.00
O969   O     0.83333   0.87155   0.90489   0.00000  Uiso   1.00
O970   O     0.83334   0.79512   0.76178   0.00000  Uiso   1.00
Zn971  Zn    0.83333   0.88437   0.83333   0.00000  Uiso   1.00
Zn972  Zn    0.83333   0.78229   0.83333   0.00000  Uiso   1.00
loop_
_geom_bond_atom_site_label_1
_geom_bond_atom_site_label_2
_geom_bond_distance
_geom_bond_site_symmetry_2
_ccdc_geom_bond_type
C1     C4      1.413   .     S
C1     O30     1.282   .     A
C1     O27     1.282   .     A
C2     C4      1.398   .     A
C2     F20     1.359   .     S
C2     C87     1.373   1_455 S
C3     C15     1.398   .     A
C3     C9      1.413   .     S
C3     C16     1.398   .     A
C4     C14     1.398   .     A
C5     N26     1.367   .     A
C5     H21     1.082   .     S
C5     C224    1.418   1_545 S
C6     N25     1.367   .     A
C6     H22     1.082   .     S
C6     C115    1.418   .     S
C7     N26     1.367   .     A
C7     H23     1.082   .     S
C7     C222    1.418   1_545 S
C8     N25     1.367   .     A
C8     H24     1.082   .     S
C8     C113    1.418   .     S
C9     O29     1.282   .     A
C9     O28     1.282   .     A
C10    O34     1.278   .     A
C10    C12     1.367   .     S
C10    O31     1.278   .     A
C11    C13     1.367   .     S
C11    O32     1.278   .     A
C11    O33     1.278   .     A
C12    C661    1.166   1_554 S
C13    C336    1.166   .     S
C14    F17     1.359   .     S
C14    C88     1.373   1_455 S
C15    F18     1.359   .     S
C15    C38     1.373   .     S
C16    F19     1.359   .     S
C16    C50     1.373   .     S
N25    Zn35    2.013   .     S
N26    Zn36    2.013   .     S
O27    Zn35    1.993   .     S
O28    Zn36    1.993   .     S
O29    Zn35    1.993   .     S
O30    Zn36    1.993   .     S
O31    Zn35    1.952   .     S
O32    Zn36    1.952   .     S
O33    Zn35    1.951   .     S
O34    Zn36    1.951   .     S
C37    C40     1.413   .     S
C37    O66     1.282   .     A
C37    O63     1.282   .     A
C38    C40     1.398   .     A
C38    F56     1.359   .     S
C39    C51     1.398   .     A
C39    C45     1.413   .     S
C39    C52     1.398   .     A
C40    C50     1.398   .     A
C41    N62     1.367   .     A
C41    H57     1.082   .     S
C41    C260    1.418   1_545 S
C42    N61     1.367   .     A
C42    H58     1.082   .     S
C42    C151    1.418   .     S
C43    N62     1.367   .     A
C43    H59     1.082   .     S
C43    C258    1.418   1_545 S
C44    N61     1.367   .     A
C44    H60     1.082   .     S
C44    C149    1.418   .     S
C45    O65     1.282   .     A
C45    O64     1.282   .     A
C46    O70     1.278   .     A
C46    C48     1.367   .     S
C46    O67     1.278   .     A
C47    C49     1.367   .     S
C47    O68     1.278   .     A
C47    O69     1.278   .     A
C48    C697    1.166   1_554 S
C49    C372    1.166   .     S
C50    F53     1.359   .     S
C51    F54     1.359   .     S
C51    C74     1.373   .     S
C52    F55     1.359   .     S
C52    C86     1.373   .     S
N61    Zn71    2.013   .     S
N62    Zn72    2.013   .     S
O63    Zn71    1.993   .     S
O64    Zn72    1.993   .     S
O65    Zn71    1.993   .     S
O66    Zn72    1.993   .     S
O67    Zn71    1.952   .     S
O68    Zn72    1.952   .     S
O69    Zn71    1.951   .     S
O70    Zn72    1.951   .     S
C73    C76     1.413   .     S
C73    O102    1.282   .     A
C73    O99     1.282   .     A
C74    C76     1.398   .     A
C74    F92     1.359   .     S
C75    C87     1.398   .     A
C75    C81     1.413   .     S
C75    C88     1.398   .     A
C76    C86     1.398   .     A
C77    N98     1.367   .     A
C77    H93     1.082   .     S
C77    C296    1.418   1_545 S
C78    N97     1.367   .     A
C78    H94     1.082   .     S
C78    C187    1.418   .     S
C79    N98     1.367   .     A
C79    H95     1.082   .     S
C79    C294    1.418   1_545 S
C80    N97     1.367   .     A
C80    H96     1.082   .     S
C80    C185    1.418   .     S
C81    O101    1.282   .     A
C81    O100    1.282   .     A
C82    O106    1.278   .     A
C82    C84     1.367   .     S
C82    O103    1.278   .     A
C83    C85     1.367   .     S
C83    O104    1.278   .     A
C83    O105    1.278   .     A
C84    C733    1.166   1_554 S
C85    C408    1.166   .     S
C86    F89     1.359   .     S
C87    F90     1.359   .     S
C87    C2      1.373   1_655 S
C88    F91     1.359   .     S
C88    C14     1.373   1_655 S
N97    Zn107   2.013   .     S
N98    Zn108   2.013   .     S
O99    Zn107   1.993   .     S
O100   Zn108   1.993   .     S
O101   Zn107   1.993   .     S
O102   Zn108   1.993   .     S
O103   Zn107   1.952   .     S
O104   Zn108   1.952   .     S
O105   Zn107   1.951   .     S
O106   Zn108   1.951   .     S
C109   C112    1.413   .     S
C109   O138    1.282   .     A
C109   O135    1.282   .     A
C110   C112    1.398   .     A
C110   F128    1.359   .     S
C110   C195    1.373   1_455 S
C111   C123    1.398   .     A
C111   C117    1.413   .     S
C111   C124    1.398   .     A
C112   C122    1.398   .     A
C113   N134    1.367   .     A
C113   H129    1.082   .     S
C114   N133    1.367   .     A
C114   H130    1.082   .     S
C114   C223    1.418   .     S
C115   N134    1.367   .     A
C115   H131    1.082   .     S
C116   N133    1.367   .     A
C116   H132    1.082   .     S
C116   C221    1.418   .     S
C117   O137    1.282   .     A
C117   O136    1.282   .     A
C118   O142    1.278   .     A
C118   C120    1.367   .     S
C118   O139    1.278   .     A
C119   C121    1.367   .     S
C119   O140    1.278   .     A
C119   O141    1.278   .     A
C120   C769    1.166   1_554 S
C121   C444    1.166   .     S
C122   F125    1.359   .     S
C122   C196    1.373   1_455 S
C123   F126    1.359   .     S
C123   C146    1.373   .     S
C124   F127    1.359   .     S
C124   C158    1.373   .     S
N133   Zn143   2.013   .     S
N134   Zn144   2.013   .     S
O135   Zn143   1.993   .     S
O136   Zn144   1.993   .     S
O137   Zn143   1.993   .     S
O138   Zn144   1.993   .     S
O139   Zn143   1.952   .     S
O140   Zn144   1.952   .     S
O141   Zn143   1.951   .     S
O142   Zn144   1.951   .     S
C145   C148    1.413   .     S
C145   O174    1.282   .     A
C145   O171    1.282   .     A
C146   C148    1.398   .     A
C146   F164    1.359   .     S
C147   C159    1.398   .     A
C147   C153    1.413   .     S
C147   C160    1.398   .     A
C148   C158    1.398   .     A
C149   N170    1.367   .     A
C149   H165    1.082   .     S
C150   N169    1.367   .     A
C150   H166    1.082   .     S
C150   C259    1.418   .     S
C151   N170    1.367   .     A
C151   H167    1.082   .     S
C152   N169    1.367   .     A
C152   H168    1.082   .     S
C152   C257    1.418   .     S
C153   O173    1.282   .     A
C153   O172    1.282   .     A
C154   O178    1.278   .     A
C154   C156    1.367   .     S
C154   O175    1.278   .     A
C155   C157    1.367   .     S
C155   O176    1.278   .     A
C155   O177    1.278   .     A
C156   C805    1.166   1_554 S
C157   C480    1.166   .     S
C158   F161    1.359   .     S
C159   F162    1.359   .     S
C159   C182    1.373   .     S
C160   F163    1.359   .     S
C160   C194    1.373   .     S
N169   Zn179   2.013   .     S
N170   Zn180   2.013   .     S
O171   Zn179   1.993   .     S
O172   Zn180   1.993   .     S
O173   Zn179   1.993   .     S
O174   Zn180   1.993   .     S
O175   Zn179   1.952   .     S
O176   Zn180   1.952   .     S
O177   Zn179   1.951   .     S
O178   Zn180   1.951   .     S
C181   C184    1.413   .     S
C181   O210    1.282   .     A
C181   O207    1.282   .     A
C182   C184    1.398   .     A
C182   F200    1.359   .     S
C183   C195    1.398   .     A
C183   C189    1.413   .     S
C183   C196    1.398   .     A
C184   C194    1.398   .     A
C185   N206    1.367   .     A
C185   H201    1.082   .     S
C186   N205    1.367   .     A
C186   H202    1.082   .     S
C186   C295    1.418   .     S
C187   N206    1.367   .     A
C187   H203    1.082   .     S
C188   N205    1.367   .     A
C188   H204    1.082   .     S
C188   C293    1.418   .     S
C189   O209    1.282   .     A
C189   O208    1.282   .     A
C190   O214    1.278   .     A
C190   C192    1.367   .     S
C190   O211    1.278   .     A
C191   C193    1.367   .     S
C191   O212    1.278   .     A
C191   O213    1.278   .     A
C192   C841    1.166   1_554 S
C193   C516    1.166   .     S
C194   F197    1.359   .     S
C195   F198    1.359   .     S
C195   C110    1.373   1_655 S
C196   F199    1.359   .     S
C196   C122    1.373   1_655 S
N205   Zn215   2.013   .     S
N206   Zn216   2.013   .     S
O207   Zn215   1.993   .     S
O208   Zn216   1.993   .     S
O209   Zn215   1.993   .     S
O210   Zn216   1.993   .     S
O211   Zn215   1.952   .     S
O212   Zn216   1.952   .     S
O213   Zn215   1.951   .     S
O214   Zn216   1.951   .     S
C217   C220    1.413   .     S
C217   O246    1.282   .     A
C217   O243    1.282   .     A
C218   C220    1.398   .     A
C218   F236    1.359   .     S
C218   C303    1.373   1_455 S
C219   C231    1.398   .     A
C219   C225    1.413   .     S
C219   C232    1.398   .     A
C220   C230    1.398   .     A
C221   N242    1.367   .     A
C221   H237    1.082   .     S
C222   N241    1.367   .     A
C222   H238    1.082   .     S
C222   C7      1.418   1_565 S
C223   N242    1.367   .     A
C223   H239    1.082   .     S
C224   N241    1.367   .     A
C224   H240    1.082   .     S
C224   C5      1.418   1_565 S
C225   O245    1.282   .     A
C225   O244    1.282   .     A
C226   O250    1.278   .     A
C226   C228    1.367   .     S
C226   O247    1.278   .     A
C227   C229    1.367   .     S
C227   O248    1.278   .     A
C227   O249    1.278   .     A
C228   C877    1.166   1_554 S
C229   C552    1.166   .     S
C230   F233    1.359   .     S
C230   C304    1.373   1_455 S
C231   F234    1.359   .     S
C231   C254    1.373   .     S
C232   F235    1.359   .     S
C232   C266    1.373   .     S
N241   Zn251   2.013   .     S
N242   Zn252   2.013   .     S
O243   Zn251   1.993   .     S
O244   Zn252   1.993   .     S
O245   Zn251   1.993   .     S
O246   Zn252   1.993   .     S
O247   Zn251   1.952   .     S
O248   Zn252   1.952   .     S
O249   Zn251   1.951   .     S
O250   Zn252   1.951   .     S
C253   C256    1.413   .     S
C253   O282    1.282   .     A
C253   O279    1.282   .     A
C254   C256    1.398   .     A
C254   F272    1.359   .     S
C255   C267    1.398   .     A
C255   C261    1.413   .     S
C255   C268    1.398   .     A
C256   C266    1.398   .     A
C257   N278    1.367   .     A
C257   H273    1.082   .     S
C258   N277    1.367   .     A
C258   H274    1.082   .     S
C258   C43     1.418   1_565 S
C259   N278    1.367   .     A
C259   H275    1.082   .     S
C260   N277    1.367   .     A
C260   H276    1.082   .     S
C260   C41     1.418   1_565 S
C261   O281    1.282   .     A
C261   O280    1.282   .     A
C262   O286    1.278   .     A
C262   C264    1.367   .     S
C262   O283    1.278   .     A
C263   C265    1.367   .     S
C263   O284    1.278   .     A
C263   O285    1.278   .     A
C264   C913    1.166   1_554 S
C265   C588    1.166   .     S
C266   F269    1.359   .     S
C267   F270    1.359   .     S
C267   C290    1.373   .     S
C268   F271    1.359   .     S
C268   C302    1.373   .     S
N277   Zn287   2.013   .     S
N278   Zn288   2.013   .     S
O279   Zn287   1.993   .     S
O280   Zn288   1.993   .     S
O281   Zn287   1.993   .     S
O282   Zn288   1.993   .     S
O283   Zn287   1.952   .     S
O284   Zn288   1.952   .     S
O285   Zn287   1.951   .     S
O286   Zn288   1.951   .     S
C289   C292    1.413   .     S
C289   O318    1.282   .     A
C289   O315    1.282   .     A
C290   C292    1.398   .     A
C290   F308    1.359   .     S
C291   C303    1.398   .     A
C291   C297    1.413   .     S
C291   C304    1.398   .     A
C292   C302    1.398   .     A
C293   N314    1.367   .     A
C293   H309    1.082   .     S
C294   N313    1.367   .     A
C294   H310    1.082   .     S
C294   C79     1.418   1_565 S
C295   N314    1.367   .     A
C295   H311    1.082   .     S
C296   N313    1.367   .     A
C296   H312    1.082   .     S
C296   C77     1.418   1_565 S
C297   O317    1.282   .     A
C297   O316    1.282   .     A
C298   O322    1.278   .     A
C298   C300    1.367   .     S
C298   O319    1.278   .     A
C299   C301    1.367   .     S
C299   O320    1.278   .     A
C299   O321    1.278   .     A
C300   C949    1.166   1_554 S
C301   C624    1.166   .     S
C302   F305    1.359   .     S
C303   F306    1.359   .     S
C303   C218    1.373   1_655 S
C304   F307    1.359   .     S
C304   C230    1.373   1_655 S
N313   Zn323   2.013   .     S
N314   Zn324   2.013   .     S
O315   Zn323   1.993   .     S
O316   Zn324   1.993   .     S
O317   Zn323   1.993   .     S
O318   Zn324   1.993   .     S
O319   Zn323   1.952   .     S
O320   Zn324   1.952   .     S
O321   Zn323   1.951   .     S
O322   Zn324   1.951   .     S
C325   C328    1.413   .     S
C325   O354    1.282   .     A
C325   O351    1.282   .     A
C326   C328    1.398   .     A
C326   F344    1.359   .     S
C326   C411    1.373   1_455 S
C327   C339    1.398   .     A
C327   C333    1.413   .     S
C327   C340    1.398   .     A
C328   C338    1.398   .     A
C329   N350    1.367   .     A
C329   H345    1.082   .     S
C329   C548    1.418   1_545 S
C330   N349    1.367   .     A
C330   H346    1.082   .     S
C330   C439    1.418   .     S
C331   N350    1.367   .     A
C331   H347    1.082   .     S
C331   C546    1.418   1_545 S
C332   N349    1.367   .     A
C332   H348    1.082   .     S
C332   C437    1.418   .     S
C333   O353    1.282   .     A
C333   O352    1.282   .     A
C334   O358    1.278   .     A
C334   C336    1.367   .     S
C334   O355    1.278   .     A
C335   C337    1.367   .     S
C335   O356    1.278   .     A
C335   O357    1.278   .     A
C337   C660    1.166   .     S
C338   F341    1.359   .     S
C338   C412    1.373   1_455 S
C339   F342    1.359   .     S
C339   C362    1.373   .     S
C340   F343    1.359   .     S
C340   C374    1.373   .     S
N349   Zn359   2.013   .     S
N350   Zn360   2.013   .     S
O351   Zn359   1.993   .     S
O352   Zn360   1.993   .     S
O353   Zn359   1.993   .     S
O354   Zn360   1.993   .     S
O355   Zn359   1.952   .     S
O356   Zn360   1.952   .     S
O357   Zn359   1.951   .     S
O358   Zn360   1.951   .     S
C361   C364    1.413   .     S
C361   O390    1.282   .     A
C361   O387    1.282   .     A
C362   C364    1.398   .     A
C362   F380    1.359   .     S
C363   C375    1.398   .     A
C363   C369    1.413   .     S
C363   C376    1.398   .     A
C364   C374    1.398   .     A
C365   N386    1.367   .     A
C365   H381    1.082   .     S
C365   C584    1.418   1_545 S
C366   N385    1.367   .     A
C366   H382    1.082   .     S
C366   C475    1.418   .     S
C367   N386    1.367   .     A
C367   H383    1.082   .     S
C367   C582    1.418   1_545 S
C368   N385    1.367   .     A
C368   H384    1.082   .     S
C368   C473    1.418   .     S
C369   O389    1.282   .     A
C369   O388    1.282   .     A
C370   O394    1.278   .     A
C370   C372    1.367   .     S
C370   O391    1.278   .     A
C371   C373    1.367   .     S
C371   O392    1.278   .     A
C371   O393    1.278   .     A
C373   C696    1.166   .     S
C374   F377    1.359   .     S
C375   F378    1.359   .     S
C375   C398    1.373   .     S
C376   F379    1.359   .     S
C376   C410    1.373   .     S
N385   Zn395   2.013   .     S
N386   Zn396   2.013   .     S
O387   Zn395   1.993   .     S
O388   Zn396   1.993   .     S
O389   Zn395   1.993   .     S
O390   Zn396   1.993   .     S
O391   Zn395   1.952   .     S
O392   Zn396   1.952   .     S
O393   Zn395   1.951   .     S
O394   Zn396   1.951   .     S
C397   C400    1.413   .     S
C397   O426    1.282   .     A
C397   O423    1.282   .     A
C398   C400    1.398   .     A
C398   F416    1.359   .     S
C399   C411    1.398   .     A
C399   C405    1.413   .     S
C399   C412    1.398   .     A
C400   C410    1.398   .     A
C401   N422    1.367   .     A
C401   H417    1.082   .     S
C401   C620    1.418   1_545 S
C402   N421    1.367   .     A
C402   H418    1.082   .     S
C402   C511    1.418   .     S
C403   N422    1.367   .     A
C403   H419    1.082   .     S
C403   C618    1.418   1_545 S
C404   N421    1.367   .     A
C404   H420    1.082   .     S
C404   C509    1.418   .     S
C405   O425    1.282   .     A
C405   O424    1.282   .     A
C406   O430    1.278   .     A
C406   C408    1.367   .     S
C406   O427    1.278   .     A
C407   C409    1.367   .     S
C407   O428    1.278   .     A
C407   O429    1.278   .     A
C409   C732    1.166   .     S
C410   F413    1.359   .     S
C411   F414    1.359   .     S
C411   C326    1.373   1_655 S
C412   F415    1.359   .     S
C412   C338    1.373   1_655 S
N421   Zn431   2.013   .     S
N422   Zn432   2.013   .     S
O423   Zn431   1.993   .     S
O424   Zn432   1.993   .     S
O425   Zn431   1.993   .     S
O426   Zn432   1.993   .     S
O427   Zn431   1.952   .     S
O428   Zn432   1.952   .     S
O429   Zn431   1.951   .     S
O430   Zn432   1.951   .     S
C433   C436    1.413   .     S
C433   O462    1.282   .     A
C433   O459    1.282   .     A
C434   C436    1.398   .     A
C434   F452    1.359   .     S
C434   C519    1.373   1_455 S
C435   C447    1.398   .     A
C435   C441    1.413   .     S
C435   C448    1.398   .     A
C436   C446    1.398   .     A
C437   N458    1.367   .     A
C437   H453    1.082   .     S
C438   N457    1.367   .     A
C438   H454    1.082   .     S
C438   C547    1.418   .     S
C439   N458    1.367   .     A
C439   H455    1.082   .     S
C440   N457    1.367   .     A
C440   H456    1.082   .     S
C440   C545    1.418   .     S
C441   O461    1.282   .     A
C441   O460    1.282   .     A
C442   O466    1.278   .     A
C442   C444    1.367   .     S
C442   O463    1.278   .     A
C443   C445    1.367   .     S
C443   O464    1.278   .     A
C443   O465    1.278   .     A
C445   C768    1.166   .     S
C446   F449    1.359   .     S
C446   C520    1.373   1_455 S
C447   F450    1.359   .     S
C447   C470    1.373   .     S
C448   F451    1.359   .     S
C448   C482    1.373   .     S
N457   Zn467   2.013   .     S
N458   Zn468   2.013   .     S
O459   Zn467   1.993   .     S
O460   Zn468   1.993   .     S
O461   Zn467   1.993   .     S
O462   Zn468   1.993   .     S
O463   Zn467   1.952   .     S
O464   Zn468   1.952   .     S
O465   Zn467   1.951   .     S
O466   Zn468   1.951   .     S
C469   C472    1.413   .     S
C469   O498    1.282   .     A
C469   O495    1.282   .     A
C470   C472    1.398   .     A
C470   F488    1.359   .     S
C471   C483    1.398   .     A
C471   C477    1.413   .     S
C471   C484    1.398   .     A
C472   C482    1.398   .     A
C473   N494    1.367   .     A
C473   H489    1.082   .     S
C474   N493    1.367   .     A
C474   H490    1.082   .     S
C474   C583    1.418   .     S
C475   N494    1.367   .     A
C475   H491    1.082   .     S
C476   N493    1.367   .     A
C476   H492    1.082   .     S
C476   C581    1.418   .     S
C477   O497    1.282   .     A
C477   O496    1.282   .     A
C478   O502    1.278   .     A
C478   C480    1.367   .     S
C478   O499    1.278   .     A
C479   C481    1.367   .     S
C479   O500    1.278   .     A
C479   O501    1.278   .     A
C481   C804    1.166   .     S
C482   F485    1.359   .     S
C483   F486    1.359   .     S
C483   C506    1.373   .     S
C484   F487    1.359   .     S
C484   C518    1.373   .     S
N493   Zn503   2.013   .     S
N494   Zn504   2.013   .     S
O495   Zn503   1.993   .     S
O496   Zn504   1.993   .     S
O497   Zn503   1.993   .     S
O498   Zn504   1.993   .     S
O499   Zn503   1.952   .     S
O500   Zn504   1.952   .     S
O501   Zn503   1.951   .     S
O502   Zn504   1.951   .     S
C505   C508    1.413   .     S
C505   O534    1.282   .     A
C505   O531    1.282   .     A
C506   C508    1.398   .     A
C506   F524    1.359   .     S
C507   C519    1.398   .     A
C507   C513    1.413   .     S
C507   C520    1.398   .     A
C508   C518    1.398   .     A
C509   N530    1.367   .     A
C509   H525    1.082   .     S
C510   N529    1.367   .     A
C510   H526    1.082   .     S
C510   C619    1.418   .     S
C511   N530    1.367   .     A
C511   H527    1.082   .     S
C512   N529    1.367   .     A
C512   H528    1.082   .     S
C512   C617    1.418   .     S
C513   O533    1.282   .     A
C513   O532    1.282   .     A
C514   O538    1.278   .     A
C514   C516    1.367   .     S
C514   O535    1.278   .     A
C515   C517    1.367   .     S
C515   O536    1.278   .     A
C515   O537    1.278   .     A
C517   C840    1.166   .     S
C518   F521    1.359   .     S
C519   F522    1.359   .     S
C519   C434    1.373   1_655 S
C520   F523    1.359   .     S
C520   C446    1.373   1_655 S
N529   Zn539   2.013   .     S
N530   Zn540   2.013   .     S
O531   Zn539   1.993   .     S
O532   Zn540   1.993   .     S
O533   Zn539   1.993   .     S
O534   Zn540   1.993   .     S
O535   Zn539   1.952   .     S
O536   Zn540   1.952   .     S
O537   Zn539   1.951   .     S
O538   Zn540   1.951   .     S
C541   C544    1.413   .     S
C541   O570    1.282   .     A
C541   O567    1.282   .     A
C542   C544    1.398   .     A
C542   F560    1.359   .     S
C542   C627    1.373   1_455 S
C543   C555    1.398   .     A
C543   C549    1.413   .     S
C543   C556    1.398   .     A
C544   C554    1.398   .     A
C545   N566    1.367   .     A
C545   H561    1.082   .     S
C546   N565    1.367   .     A
C546   H562    1.082   .     S
C546   C331    1.418   1_565 S
C547   N566    1.367   .     A
C547   H563    1.082   .     S
C548   N565    1.367   .     A
C548   H564    1.082   .     S
C548   C329    1.418   1_565 S
C549   O569    1.282   .     A
C549   O568    1.282   .     A
C550   O574    1.278   .     A
C550   C552    1.367   .     S
C550   O571    1.278   .     A
C551   C553    1.367   .     S
C551   O572    1.278   .     A
C551   O573    1.278   .     A
C553   C876    1.166   .     S
C554   F557    1.359   .     S
C554   C628    1.373   1_455 S
C555   F558    1.359   .     S
C555   C578    1.373   .     S
C556   F559    1.359   .     S
C556   C590    1.373   .     S
N565   Zn575   2.013   .     S
N566   Zn576   2.013   .     S
O567   Zn575   1.993   .     S
O568   Zn576   1.993   .     S
O569   Zn575   1.993   .     S
O570   Zn576   1.993   .     S
O571   Zn575   1.952   .     S
O572   Zn576   1.952   .     S
O573   Zn575   1.951   .     S
O574   Zn576   1.951   .     S
C577   C580    1.413   .     S
C577   O606    1.282   .     A
C577   O603    1.282   .     A
C578   C580    1.398   .     A
C578   F596    1.359   .     S
C579   C591    1.398   .     A
C579   C585    1.413   .     S
C579   C592    1.398   .     A
C580   C590    1.398   .     A
C581   N602    1.367   .     A
C581   H597    1.082   .     S
C582   N601    1.367   .     A
C582   H598    1.082   .     S
C582   C367    1.418   1_565 S
C583   N602    1.367   .     A
C583   H599    1.082   .     S
C584   N601    1.367   .     A
C584   H600    1.082   .     S
C584   C365    1.418   1_565 S
C585   O605    1.282   .     A
C585   O604    1.282   .     A
C586   O610    1.278   .     A
C586   C588    1.367   .     S
C586   O607    1.278   .     A
C587   C589    1.367   .     S
C587   O608    1.278   .     A
C587   O609    1.278   .     A
C589   C912    1.166   .     S
C590   F593    1.359   .     S
C591   F594    1.359   .     S
C591   C614    1.373   .     S
C592   F595    1.359   .     S
C592   C626    1.373   .     S
N601   Zn611   2.013   .     S
N602   Zn612   2.013   .     S
O603   Zn611   1.993   .     S
O604   Zn612   1.993   .     S
O605   Zn611   1.993   .     S
O606   Zn612   1.993   .     S
O607   Zn611   1.952   .     S
O608   Zn612   1.952   .     S
O609   Zn611   1.951   .     S
O610   Zn612   1.951   .     S
C613   C616    1.413   .     S
C613   O642    1.282   .     A
C613   O639    1.282   .     A
C614   C616    1.398   .     A
C614   F632    1.359   .     S
C615   C627    1.398   .     A
C615   C621    1.413   .     S
C615   C628    1.398   .     A
C616   C626    1.398   .     A
C617   N638    1.367   .     A
C617   H633    1.082   .     S
C618   N637    1.367   .     A
C618   H634    1.082   .     S
C618   C403    1.418   1_565 S
C619   N638    1.367   .     A
C619   H635    1.082   .     S
C620   N637    1.367   .     A
C620   H636    1.082   .     S
C620   C401    1.418   1_565 S
C621   O641    1.282   .     A
C621   O640    1.282   .     A
C622   O646    1.278   .     A
C622   C624    1.367   .     S
C622   O643    1.278   .     A
C623   C625    1.367   .     S
C623   O644    1.278   .     A
C623   O645    1.278   .     A
C625   C948    1.166   .     S
C626   F629    1.359   .     S
C627   F630    1.359   .     S
C627   C542    1.373   1_655 S
C628   F631    1.359   .     S
C628   C554    1.373   1_655 S
N637   Zn647   2.013   .     S
N638   Zn648   2.013   .     S
O639   Zn647   1.993   .     S
O640   Zn648   1.993   .     S
O641   Zn647   1.993   .     S
O642   Zn648   1.993   .     S
O643   Zn647   1.952   .     S
O644   Zn648   1.952   .     S
O645   Zn647   1.951   .     S
O646   Zn648   1.951   .     S
C649   C652    1.413   .     S
C649   O678    1.282   .     A
C649   O675    1.282   .     A
C650   C652    1.398   .     A
C650   F668    1.359   .     S
C650   C735    1.373   1_455 S
C651   C663    1.398   .     A
C651   C657    1.413   .     S
C651   C664    1.398   .     A
C652   C662    1.398   .     A
C653   N674    1.367   .     A
C653   H669    1.082   .     S
C653   C872    1.418   1_545 S
C654   N673    1.367   .     A
C654   H670    1.082   .     S
C654   C763    1.418   .     S
C655   N674    1.367   .     A
C655   H671    1.082   .     S
C655   C870    1.418   1_545 S
C656   N673    1.367   .     A
C656   H672    1.082   .     S
C656   C761    1.418   .     S
C657   O677    1.282   .     A
C657   O676    1.282   .     A
C658   O682    1.278   .     A
C658   C660    1.367   .     S
C658   O679    1.278   .     A
C659   C661    1.367   .     S
C659   O680    1.278   .     A
C659   O681    1.278   .     A
C661   C12     1.166   1_556 S
C662   F665    1.359   .     S
C662   C736    1.373   1_455 S
C663   F666    1.359   .     S
C663   C686    1.373   .     S
C664   F667    1.359   .     S
C664   C698    1.373   .     S
N673   Zn683   2.013   .     S
N674   Zn684   2.013   .     S
O675   Zn683   1.993   .     S
O676   Zn684   1.993   .     S
O677   Zn683   1.993   .     S
O678   Zn684   1.993   .     S
O679   Zn683   1.952   .     S
O680   Zn684   1.952   .     S
O681   Zn683   1.951   .     S
O682   Zn684   1.951   .     S
C685   C688    1.413   .     S
C685   O714    1.282   .     A
C685   O711    1.282   .     A
C686   C688    1.398   .     A
C686   F704    1.359   .     S
C687   C699    1.398   .     A
C687   C693    1.413   .     S
C687   C700    1.398   .     A
C688   C698    1.398   .     A
C689   N710    1.367   .     A
C689   H705    1.082   .     S
C689   C908    1.418   1_545 S
C690   N709    1.367   .     A
C690   H706    1.082   .     S
C690   C799    1.418   .     S
C691   N710    1.367   .     A
C691   H707    1.082   .     S
C691   C906    1.418   1_545 S
C692   N709    1.367   .     A
C692   H708    1.082   .     S
C692   C797    1.418   .     S
C693   O713    1.282   .     A
C693   O712    1.282   .     A
C694   O718    1.278   .     A
C694   C696    1.367   .     S
C694   O715    1.278   .     A
C695   C697    1.367   .     S
C695   O716    1.278   .     A
C695   O717    1.278   .     A
C697   C48     1.166   1_556 S
C698   F701    1.359   .     S
C699   F702    1.359   .     S
C699   C722    1.373   .     S
C700   F703    1.359   .     S
C700   C734    1.373   .     S
N709   Zn719   2.013   .     S
N710   Zn720   2.013   .     S
O711   Zn719   1.993   .     S
O712   Zn720   1.993   .     S
O713   Zn719   1.993   .     S
O714   Zn720   1.993   .     S
O715   Zn719   1.952   .     S
O716   Zn720   1.952   .     S
O717   Zn719   1.951   .     S
O718   Zn720   1.951   .     S
C721   C724    1.413   .     S
C721   O750    1.282   .     A
C721   O747    1.282   .     A
C722   C724    1.398   .     A
C722   F740    1.359   .     S
C723   C735    1.398   .     A
C723   C729    1.413   .     S
C723   C736    1.398   .     A
C724   C734    1.398   .     A
C725   N746    1.367   .     A
C725   H741    1.082   .     S
C725   C944    1.418   1_545 S
C726   N745    1.367   .     A
C726   H742    1.082   .     S
C726   C835    1.418   .     S
C727   N746    1.367   .     A
C727   H743    1.082   .     S
C727   C942    1.418   1_545 S
C728   N745    1.367   .     A
C728   H744    1.082   .     S
C728   C833    1.418   .     S
C729   O749    1.282   .     A
C729   O748    1.282   .     A
C730   O754    1.278   .     A
C730   C732    1.367   .     S
C730   O751    1.278   .     A
C731   C733    1.367   .     S
C731   O752    1.278   .     A
C731   O753    1.278   .     A
C733   C84     1.166   1_556 S
C734   F737    1.359   .     S
C735   F738    1.359   .     S
C735   C650    1.373   1_655 S
C736   F739    1.359   .     S
C736   C662    1.373   1_655 S
N745   Zn755   2.013   .     S
N746   Zn756   2.013   .     S
O747   Zn755   1.993   .     S
O748   Zn756   1.993   .     S
O749   Zn755   1.993   .     S
O750   Zn756   1.993   .     S
O751   Zn755   1.952   .     S
O752   Zn756   1.952   .     S
O753   Zn755   1.951   .     S
O754   Zn756   1.951   .     S
C757   C760    1.413   .     S
C757   O786    1.282   .     A
C757   O783    1.282   .     A
C758   C760    1.398   .     A
C758   F776    1.359   .     S
C758   C843    1.373   1_455 S
C759   C771    1.398   .     A
C759   C765    1.413   .     S
C759   C772    1.398   .     A
C760   C770    1.398   .     A
C761   N782    1.367   .     A
C761   H777    1.082   .     S
C762   N781    1.367   .     A
C762   H778    1.082   .     S
C762   C871    1.418   .     S
C763   N782    1.367   .     A
C763   H779    1.082   .     S
C764   N781    1.367   .     A
C764   H780    1.082   .     S
C764   C869    1.418   .     S
C765   O785    1.282   .     A
C765   O784    1.282   .     A
C766   O790    1.278   .     A
C766   C768    1.367   .     S
C766   O787    1.278   .     A
C767   C769    1.367   .     S
C767   O788    1.278   .     A
C767   O789    1.278   .     A
C769   C120    1.166   1_556 S
C770   F773    1.359   .     S
C770   C844    1.373   1_455 S
C771   F774    1.359   .     S
C771   C794    1.373   .     S
C772   F775    1.359   .     S
C772   C806    1.373   .     S
N781   Zn791   2.013   .     S
N782   Zn792   2.013   .     S
O783   Zn791   1.993   .     S
O784   Zn792   1.993   .     S
O785   Zn791   1.993   .     S
O786   Zn792   1.993   .     S
O787   Zn791   1.952   .     S
O788   Zn792   1.952   .     S
O789   Zn791   1.951   .     S
O790   Zn792   1.951   .     S
C793   C796    1.413   .     S
C793   O822    1.282   .     A
C793   O819    1.282   .     A
C794   C796    1.398   .     A
C794   F812    1.359   .     S
C795   C807    1.398   .     A
C795   C801    1.413   .     S
C795   C808    1.398   .     A
C796   C806    1.398   .     A
C797   N818    1.367   .     A
C797   H813    1.082   .     S
C798   N817    1.367   .     A
C798   H814    1.082   .     S
C798   C907    1.418   .     S
C799   N818    1.367   .     A
C799   H815    1.082   .     S
C800   N817    1.367   .     A
C800   H816    1.082   .     S
C800   C905    1.418   .     S
C801   O821    1.282   .     A
C801   O820    1.282   .     A
C802   O826    1.278   .     A
C802   C804    1.367   .     S
C802   O823    1.278   .     A
C803   C805    1.367   .     S
C803   O824    1.278   .     A
C803   O825    1.278   .     A
C805   C156    1.166   1_556 S
C806   F809    1.359   .     S
C807   F810    1.359   .     S
C807   C830    1.373   .     S
C808   F811    1.359   .     S
C808   C842    1.373   .     S
N817   Zn827   2.013   .     S
N818   Zn828   2.013   .     S
O819   Zn827   1.993   .     S
O820   Zn828   1.993   .     S
O821   Zn827   1.993   .     S
O822   Zn828   1.993   .     S
O823   Zn827   1.952   .     S
O824   Zn828   1.952   .     S
O825   Zn827   1.951   .     S
O826   Zn828   1.951   .     S
C829   C832    1.413   .     S
C829   O858    1.282   .     A
C829   O855    1.282   .     A
C830   C832    1.398   .     A
C830   F848    1.359   .     S
C831   C843    1.398   .     A
C831   C837    1.413   .     S
C831   C844    1.398   .     A
C832   C842    1.398   .     A
C833   N854    1.367   .     A
C833   H849    1.082   .     S
C834   N853    1.367   .     A
C834   H850    1.082   .     S
C834   C943    1.418   .     S
C835   N854    1.367   .     A
C835   H851    1.082   .     S
C836   N853    1.367   .     A
C836   H852    1.082   .     S
C836   C941    1.418   .     S
C837   O857    1.282   .     A
C837   O856    1.282   .     A
C838   O862    1.278   .     A
C838   C840    1.367   .     S
C838   O859    1.278   .     A
C839   C841    1.367   .     S
C839   O860    1.278   .     A
C839   O861    1.278   .     A
C841   C192    1.166   1_556 S
C842   F845    1.359   .     S
C843   F846    1.359   .     S
C843   C758    1.373   1_655 S
C844   F847    1.359   .     S
C844   C770    1.373   1_655 S
N853   Zn863   2.013   .     S
N854   Zn864   2.013   .     S
O855   Zn863   1.993   .     S
O856   Zn864   1.993   .     S
O857   Zn863   1.993   .     S
O858   Zn864   1.993   .     S
O859   Zn863   1.952   .     S
O860   Zn864   1.952   .     S
O861   Zn863   1.951   .     S
O862   Zn864   1.951   .     S
C865   C868    1.413   .     S
C865   O894    1.282   .     A
C865   O891    1.282   .     A
C866   C868    1.398   .     A
C866   F884    1.359   .     S
C866   C951    1.373   1_455 S
C867   C879    1.398   .     A
C867   C873    1.413   .     S
C867   C880    1.398   .     A
C868   C878    1.398   .     A
C869   N890    1.367   .     A
C869   H885    1.082   .     S
C870   N889    1.367   .     A
C870   H886    1.082   .     S
C870   C655    1.418   1_565 S
C871   N890    1.367   .     A
C871   H887    1.082   .     S
C872   N889    1.367   .     A
C872   H888    1.082   .     S
C872   C653    1.418   1_565 S
C873   O893    1.282   .     A
C873   O892    1.282   .     A
C874   O898    1.278   .     A
C874   C876    1.367   .     S
C874   O895    1.278   .     A
C875   C877    1.367   .     S
C875   O896    1.278   .     A
C875   O897    1.278   .     A
C877   C228    1.166   1_556 S
C878   F881    1.359   .     S
C878   C952    1.373   1_455 S
C879   F882    1.359   .     S
C879   C902    1.373   .     S
C880   F883    1.359   .     S
C880   C914    1.373   .     S
N889   Zn899   2.013   .     S
N890   Zn900   2.013   .     S
O891   Zn899   1.993   .     S
O892   Zn900   1.993   .     S
O893   Zn899   1.993   .     S
O894   Zn900   1.993   .     S
O895   Zn899   1.952   .     S
O896   Zn900   1.952   .     S
O897   Zn899   1.951   .     S
O898   Zn900   1.951   .     S
C901   C904    1.413   .     S
C901   O930    1.282   .     A
C901   O927    1.282   .     A
C902   C904    1.398   .     A
C902   F920    1.359   .     S
C903   C915    1.398   .     A
C903   C909    1.413   .     S
C903   C916    1.398   .     A
C904   C914    1.398   .     A
C905   N926    1.367   .     A
C905   H921    1.082   .     S
C906   N925    1.367   .     A
C906   H922    1.082   .     S
C906   C691    1.418   1_565 S
C907   N926    1.367   .     A
C907   H923    1.082   .     S
C908   N925    1.367   .     A
C908   H924    1.082   .     S
C908   C689    1.418   1_565 S
C909   O929    1.282   .     A
C909   O928    1.282   .     A
C910   O934    1.278   .     A
C910   C912    1.367   .     S
C910   O931    1.278   .     A
C911   C913    1.367   .     S
C911   O932    1.278   .     A
C911   O933    1.278   .     A
C913   C264    1.166   1_556 S
C914   F917    1.359   .     S
C915   F918    1.359   .     S
C915   C938    1.373   .     S
C916   F919    1.359   .     S
C916   C950    1.373   .     S
N925   Zn935   2.013   .     S
N926   Zn936   2.013   .     S
O927   Zn935   1.993   .     S
O928   Zn936   1.993   .     S
O929   Zn935   1.993   .     S
O930   Zn936   1.993   .     S
O931   Zn935   1.952   .     S
O932   Zn936   1.952   .     S
O933   Zn935   1.951   .     S
O934   Zn936   1.951   .     S
C937   C940    1.413   .     S
C937   O966    1.282   .     A
C937   O963    1.282   .     A
C938   C940    1.398   .     A
C938   F956    1.359   .     S
C939   C951    1.398   .     A
C939   C945    1.413   .     S
C939   C952    1.398   .     A
C940   C950    1.398   .     A
C941   N962    1.367   .     A
C941   H957    1.082   .     S
C942   N961    1.367   .     A
C942   H958    1.082   .     S
C942   C727    1.418   1_565 S
C943   N962    1.367   .     A
C943   H959    1.082   .     S
C944   N961    1.367   .     A
C944   H960    1.082   .     S
C944   C725    1.418   1_565 S
C945   O965    1.282   .     A
C945   O964    1.282   .     A
C946   O970    1.278   .     A
C946   C948    1.367   .     S
C946   O967    1.278   .     A
C947   C949    1.367   .     S
C947   O968    1.278   .     A
C947   O969    1.278   .     A
C949   C300    1.166   1_556 S
C950   F953    1.359   .     S
C951   F954    1.359   .     S
C951   C866    1.373   1_655 S
C952   F955    1.359   .     S
C952   C878    1.373   1_655 S
N961   Zn971   2.013   .     S
N962   Zn972   2.013   .     S
O963   Zn971   1.993   .     S
O964   Zn972   1.993   .     S
O965   Zn971   1.993   .     S
O966   Zn972   1.993   .     S
O967   Zn971   1.952   .     S
O968   Zn972   1.952   .     S
O969   Zn971   1.951   .     S
O970   Zn972   1.951   .     S
