data_str_m2_o1_o17_pcu_sym.121
_audit_creation_date              2020-01-03
_audit_creation_method            'Materials Studio'
_symmetry_space_group_name_H-M    'P1'
_symmetry_Int_Tables_number       1
_symmetry_cell_setting            triclinic
loop_
_symmetry_equiv_pos_as_xyz
  x,y,z
_cell_length_a                    33.1715
_cell_length_b                    29.0926
_cell_length_c                    30.2207
_cell_angle_alpha                 89.9978
_cell_angle_beta                  93.3827
_cell_angle_gamma                 89.9693
loop_
_atom_site_label
_atom_site_type_symbol
_atom_site_fract_x
_atom_site_fract_y
_atom_site_fract_z
_atom_site_U_iso_or_equiv
_atom_site_adp_type
_atom_site_occupancy
O1     O     0.10655   0.20625   0.24999   0.00000  Uiso   1.00
O2     O     0.22679   0.12709   0.25001   0.00000  Uiso   1.00
O3     O     0.22679   0.20625   0.25000   0.00000  Uiso   1.00
O4     O     0.10655   0.12709   0.24999   0.00000  Uiso   1.00
C5     C     0.08756   0.16682   0.25138   0.00000  Uiso   1.00
C6     C     0.24579   0.16679   0.24866   0.00000  Uiso   1.00
O7     O     0.16666   0.20627   0.18513   0.00000  Uiso   1.00
O8     O     0.16668   0.12707   0.31487   0.00000  Uiso   1.00
O9     O     0.16668   0.20627   0.31487   0.00000  Uiso   1.00
O10    O     0.16666   0.12707   0.18513   0.00000  Uiso   1.00
C11    C     0.16665   0.16672   0.16464   0.00000  Uiso   1.00
C12    C     0.16667   0.16673   0.33535   0.00000  Uiso   1.00
Cu13   Cu    0.16667   0.21355   0.25000   0.00000  Uiso   1.00
Cu14   Cu    0.16667   0.11978   0.25000   0.00000  Uiso   1.00
C15    C     0.20370   0.16452   0.40939   0.00000  Uiso   1.00
C16    C     0.12964   0.16456   0.09060   0.00000  Uiso   1.00
C17    C     0.16687   0.16729   0.38374   0.00000  Uiso   1.00
C18    C     0.16647   0.16726   0.11625   0.00000  Uiso   1.00
C19    C     0.13013   0.17218   0.40432   0.00000  Uiso   1.00
C20    C     0.20322   0.17197   0.09567   0.00000  Uiso   1.00
C21    C     0.12949   0.16800   0.45079   0.00000  Uiso   1.00
C22    C     0.20386   0.16786   0.04919   0.00000  Uiso   1.00
C23    C     0.16657   0.16848   0.47656   0.00000  Uiso   1.00
C24    C     0.16677   0.16846   0.02342   0.00000  Uiso   1.00
C25    C     0.20350   0.16984   0.45571   0.00000  Uiso   1.00
C26    C     0.12983   0.16986   0.04427   0.00000  Uiso   1.00
C27    C     0.09313   0.16675   0.47271   0.00000  Uiso   1.00
C28    C     0.24021   0.16661   0.02724   0.00000  Uiso   1.00
C29    C     0.09380   0.17548   0.01801   0.00000  Uiso   1.00
C30    C     0.23952   0.17544   0.48195   0.00000  Uiso   1.00
C31    C     0.02109   0.12564   0.25476   0.00000  Uiso   1.00
C32    C     0.31221   0.20949   0.24956   0.00000  Uiso   1.00
C33    C     0.31237   0.12556   0.24577   0.00000  Uiso   1.00
C34    C     0.02108   0.20951   0.25021   0.00000  Uiso   1.00
C35    C     0.29054   0.16739   0.24703   0.00000  Uiso   1.00
C36    C     0.04282   0.16745   0.25306   0.00000  Uiso   1.00
C37    C     0.14271   0.02464   0.21976   0.00000  Uiso   1.00
C38    C     0.18983   0.30881   0.28111   0.00000  Uiso   1.00
C39    C     0.19060   0.02460   0.28026   0.00000  Uiso   1.00
C40    C     0.14351   0.30884   0.21888   0.00000  Uiso   1.00
N41    N     0.16667   0.28402   0.25000   0.00000  Uiso   1.00
N42    N     0.16667   0.04931   0.25000   0.00000  Uiso   1.00
N43    N     0.24058   0.15209   0.38937   0.00000  Uiso   1.00
O44    O     0.25049   0.17074   0.35245   0.00000  Uiso   1.00
O45    O     0.26471   0.12173   0.40841   0.00000  Uiso   1.00
N46    N     0.09277   0.15219   0.11064   0.00000  Uiso   1.00
O47    O     0.08286   0.17088   0.14754   0.00000  Uiso   1.00
O48    O     0.06865   0.12181   0.09165   0.00000  Uiso   1.00
I49    I     0.07906   0.19844   0.36573   0.00000  Uiso   1.00
I50    I     0.25445   0.19765   0.13437   0.00000  Uiso   1.00
I51    I     0.04217   0.12776   0.44795   0.00000  Uiso   1.00
I52    I     0.29121   0.12744   0.05173   0.00000  Uiso   1.00
I53    I     0.04556   0.21574   0.04113   0.00000  Uiso   1.00
I54    I     0.28766   0.21580   0.45885   0.00000  Uiso   1.00
N55    N     0.04111   0.08381   0.26876   0.00000  Uiso   1.00
O56    O     0.05957   0.08157   0.30791   0.00000  Uiso   1.00
O57    O     0.03873   0.04710   0.24424   0.00000  Uiso   1.00
N58    N     0.29226   0.25332   0.25139   0.00000  Uiso   1.00
O59    O     0.27270   0.26931   0.21611   0.00000  Uiso   1.00
O60    O     0.30358   0.28205   0.28270   0.00000  Uiso   1.00
N61    N     0.29246   0.08346   0.23243   0.00000  Uiso   1.00
O62    O     0.27399   0.08054   0.19331   0.00000  Uiso   1.00
O63    O     0.29545   0.04698   0.25726   0.00000  Uiso   1.00
N64    N     0.04096   0.25333   0.24812   0.00000  Uiso   1.00
O65    O     0.06048   0.26955   0.28331   0.00000  Uiso   1.00
O66    O     0.02955   0.28188   0.21667   0.00000  Uiso   1.00
I67    I     0.10246   0.05876   0.17294   0.00000  Uiso   1.00
I68    I     0.22544   0.27577   0.33356   0.00000  Uiso   1.00
I69    I     0.23069   0.05867   0.32723   0.00000  Uiso   1.00
I70    I     0.10800   0.27590   0.16635   0.00000  Uiso   1.00
O71    O     0.43988   0.20625   0.24999   0.00000  Uiso   1.00
O72    O     0.56012   0.12709   0.25001   0.00000  Uiso   1.00
O73    O     0.56012   0.20625   0.25000   0.00000  Uiso   1.00
O74    O     0.43988   0.12709   0.24999   0.00000  Uiso   1.00
C75    C     0.42089   0.16682   0.25138   0.00000  Uiso   1.00
C76    C     0.57912   0.16679   0.24866   0.00000  Uiso   1.00
O77    O     0.49999   0.20627   0.18513   0.00000  Uiso   1.00
O78    O     0.50001   0.12707   0.31487   0.00000  Uiso   1.00
O79    O     0.50001   0.20627   0.31487   0.00000  Uiso   1.00
O80    O     0.49999   0.12707   0.18513   0.00000  Uiso   1.00
C81    C     0.49999   0.16672   0.16464   0.00000  Uiso   1.00
C82    C     0.50000   0.16673   0.33535   0.00000  Uiso   1.00
Cu83   Cu    0.50000   0.21355   0.25000   0.00000  Uiso   1.00
Cu84   Cu    0.50000   0.11978   0.25000   0.00000  Uiso   1.00
C85    C     0.53703   0.16452   0.40939   0.00000  Uiso   1.00
C86    C     0.46297   0.16456   0.09060   0.00000  Uiso   1.00
C87    C     0.50021   0.16729   0.38374   0.00000  Uiso   1.00
C88    C     0.49980   0.16726   0.11625   0.00000  Uiso   1.00
C89    C     0.46347   0.17218   0.40432   0.00000  Uiso   1.00
C90    C     0.53656   0.17197   0.09567   0.00000  Uiso   1.00
C91    C     0.46283   0.16800   0.45079   0.00000  Uiso   1.00
C92    C     0.53719   0.16786   0.04919   0.00000  Uiso   1.00
C93    C     0.49990   0.16848   0.47656   0.00000  Uiso   1.00
C94    C     0.50010   0.16846   0.02342   0.00000  Uiso   1.00
C95    C     0.53683   0.16984   0.45571   0.00000  Uiso   1.00
C96    C     0.46317   0.16986   0.04427   0.00000  Uiso   1.00
C97    C     0.42646   0.16675   0.47271   0.00000  Uiso   1.00
C98    C     0.57355   0.16661   0.02724   0.00000  Uiso   1.00
C99    C     0.42714   0.17548   0.01801   0.00000  Uiso   1.00
C100   C     0.57285   0.17544   0.48195   0.00000  Uiso   1.00
C101   C     0.35443   0.12564   0.25476   0.00000  Uiso   1.00
C102   C     0.64554   0.20949   0.24956   0.00000  Uiso   1.00
C103   C     0.64571   0.12556   0.24577   0.00000  Uiso   1.00
C104   C     0.35441   0.20951   0.25021   0.00000  Uiso   1.00
C105   C     0.62387   0.16739   0.24703   0.00000  Uiso   1.00
C106   C     0.37615   0.16745   0.25306   0.00000  Uiso   1.00
C107   C     0.47604   0.02464   0.21976   0.00000  Uiso   1.00
C108   C     0.52317   0.30881   0.28111   0.00000  Uiso   1.00
C109   C     0.52394   0.02460   0.28026   0.00000  Uiso   1.00
C110   C     0.47684   0.30884   0.21888   0.00000  Uiso   1.00
N111   N     0.50000   0.28402   0.25000   0.00000  Uiso   1.00
N112   N     0.50000   0.04931   0.25000   0.00000  Uiso   1.00
N113   N     0.57391   0.15209   0.38937   0.00000  Uiso   1.00
O114   O     0.58383   0.17074   0.35245   0.00000  Uiso   1.00
O115   O     0.59804   0.12173   0.40841   0.00000  Uiso   1.00
N116   N     0.42610   0.15219   0.11064   0.00000  Uiso   1.00
O117   O     0.41619   0.17088   0.14754   0.00000  Uiso   1.00
O118   O     0.40199   0.12181   0.09165   0.00000  Uiso   1.00
I119   I     0.41239   0.19844   0.36573   0.00000  Uiso   1.00
I120   I     0.58778   0.19765   0.13437   0.00000  Uiso   1.00
I121   I     0.37550   0.12776   0.44795   0.00000  Uiso   1.00
I122   I     0.62454   0.12744   0.05173   0.00000  Uiso   1.00
I123   I     0.37889   0.21574   0.04113   0.00000  Uiso   1.00
I124   I     0.62100   0.21580   0.45885   0.00000  Uiso   1.00
N125   N     0.37444   0.08381   0.26876   0.00000  Uiso   1.00
O126   O     0.39290   0.08157   0.30791   0.00000  Uiso   1.00
O127   O     0.37206   0.04710   0.24424   0.00000  Uiso   1.00
N128   N     0.62559   0.25332   0.25139   0.00000  Uiso   1.00
O129   O     0.60603   0.26931   0.21611   0.00000  Uiso   1.00
O130   O     0.63692   0.28205   0.28270   0.00000  Uiso   1.00
N131   N     0.62579   0.08346   0.23243   0.00000  Uiso   1.00
O132   O     0.60733   0.08054   0.19331   0.00000  Uiso   1.00
O133   O     0.62878   0.04698   0.25726   0.00000  Uiso   1.00
N134   N     0.37429   0.25333   0.24812   0.00000  Uiso   1.00
O135   O     0.39381   0.26955   0.28331   0.00000  Uiso   1.00
O136   O     0.36288   0.28188   0.21667   0.00000  Uiso   1.00
I137   I     0.43579   0.05876   0.17294   0.00000  Uiso   1.00
I138   I     0.55877   0.27577   0.33356   0.00000  Uiso   1.00
I139   I     0.56403   0.05867   0.32723   0.00000  Uiso   1.00
I140   I     0.44133   0.27590   0.16635   0.00000  Uiso   1.00
O141   O     0.77321   0.20625   0.24999   0.00000  Uiso   1.00
O142   O     0.89345   0.12709   0.25001   0.00000  Uiso   1.00
O143   O     0.89345   0.20625   0.25000   0.00000  Uiso   1.00
O144   O     0.77321   0.12709   0.24999   0.00000  Uiso   1.00
C145   C     0.75422   0.16682   0.25138   0.00000  Uiso   1.00
C146   C     0.91245   0.16679   0.24866   0.00000  Uiso   1.00
O147   O     0.83332   0.20627   0.18513   0.00000  Uiso   1.00
O148   O     0.83334   0.12707   0.31487   0.00000  Uiso   1.00
O149   O     0.83334   0.20627   0.31487   0.00000  Uiso   1.00
O150   O     0.83332   0.12707   0.18513   0.00000  Uiso   1.00
C151   C     0.83332   0.16672   0.16464   0.00000  Uiso   1.00
C152   C     0.83334   0.16673   0.33535   0.00000  Uiso   1.00
Cu153  Cu    0.83333   0.21355   0.25000   0.00000  Uiso   1.00
Cu154  Cu    0.83333   0.11978   0.25000   0.00000  Uiso   1.00
C155   C     0.87037   0.16452   0.40939   0.00000  Uiso   1.00
C156   C     0.79630   0.16456   0.09060   0.00000  Uiso   1.00
C157   C     0.83354   0.16729   0.38374   0.00000  Uiso   1.00
C158   C     0.83313   0.16726   0.11625   0.00000  Uiso   1.00
C159   C     0.79680   0.17218   0.40432   0.00000  Uiso   1.00
C160   C     0.86989   0.17197   0.09567   0.00000  Uiso   1.00
C161   C     0.79616   0.16800   0.45079   0.00000  Uiso   1.00
C162   C     0.87052   0.16786   0.04919   0.00000  Uiso   1.00
C163   C     0.83324   0.16848   0.47656   0.00000  Uiso   1.00
C164   C     0.83344   0.16846   0.02342   0.00000  Uiso   1.00
C165   C     0.87016   0.16984   0.45571   0.00000  Uiso   1.00
C166   C     0.79650   0.16986   0.04427   0.00000  Uiso   1.00
C167   C     0.75980   0.16675   0.47271   0.00000  Uiso   1.00
C168   C     0.90688   0.16661   0.02724   0.00000  Uiso   1.00
C169   C     0.76047   0.17548   0.01801   0.00000  Uiso   1.00
C170   C     0.90618   0.17544   0.48195   0.00000  Uiso   1.00
C171   C     0.68776   0.12564   0.25476   0.00000  Uiso   1.00
C172   C     0.97887   0.20949   0.24956   0.00000  Uiso   1.00
C173   C     0.97904   0.12556   0.24577   0.00000  Uiso   1.00
C174   C     0.68775   0.20951   0.25021   0.00000  Uiso   1.00
C175   C     0.95721   0.16739   0.24703   0.00000  Uiso   1.00
C176   C     0.70949   0.16745   0.25306   0.00000  Uiso   1.00
C177   C     0.80938   0.02464   0.21976   0.00000  Uiso   1.00
C178   C     0.85650   0.30881   0.28111   0.00000  Uiso   1.00
C179   C     0.85727   0.02460   0.28026   0.00000  Uiso   1.00
C180   C     0.81017   0.30884   0.21888   0.00000  Uiso   1.00
N181   N     0.83333   0.28402   0.25000   0.00000  Uiso   1.00
N182   N     0.83333   0.04931   0.25000   0.00000  Uiso   1.00
N183   N     0.90724   0.15209   0.38937   0.00000  Uiso   1.00
O184   O     0.91716   0.17074   0.35245   0.00000  Uiso   1.00
O185   O     0.93137   0.12173   0.40841   0.00000  Uiso   1.00
N186   N     0.75943   0.15219   0.11064   0.00000  Uiso   1.00
O187   O     0.74952   0.17088   0.14754   0.00000  Uiso   1.00
O188   O     0.73532   0.12181   0.09165   0.00000  Uiso   1.00
I189   I     0.74573   0.19844   0.36573   0.00000  Uiso   1.00
I190   I     0.92111   0.19765   0.13437   0.00000  Uiso   1.00
I191   I     0.70884   0.12776   0.44795   0.00000  Uiso   1.00
I192   I     0.95788   0.12744   0.05173   0.00000  Uiso   1.00
I193   I     0.71222   0.21574   0.04113   0.00000  Uiso   1.00
I194   I     0.95433   0.21580   0.45885   0.00000  Uiso   1.00
N195   N     0.70777   0.08381   0.26876   0.00000  Uiso   1.00
O196   O     0.72623   0.08157   0.30791   0.00000  Uiso   1.00
O197   O     0.70540   0.04710   0.24424   0.00000  Uiso   1.00
N198   N     0.95893   0.25332   0.25139   0.00000  Uiso   1.00
O199   O     0.93936   0.26931   0.21611   0.00000  Uiso   1.00
O200   O     0.97025   0.28205   0.28270   0.00000  Uiso   1.00
N201   N     0.95912   0.08346   0.23243   0.00000  Uiso   1.00
O202   O     0.94066   0.08054   0.19331   0.00000  Uiso   1.00
O203   O     0.96212   0.04698   0.25726   0.00000  Uiso   1.00
N204   N     0.70762   0.25333   0.24812   0.00000  Uiso   1.00
O205   O     0.72715   0.26955   0.28331   0.00000  Uiso   1.00
O206   O     0.69622   0.28188   0.21667   0.00000  Uiso   1.00
I207   I     0.76913   0.05876   0.17294   0.00000  Uiso   1.00
I208   I     0.89210   0.27577   0.33356   0.00000  Uiso   1.00
I209   I     0.89736   0.05867   0.32723   0.00000  Uiso   1.00
I210   I     0.77467   0.27590   0.16635   0.00000  Uiso   1.00
O211   O     0.10655   0.53958   0.24999   0.00000  Uiso   1.00
O212   O     0.22679   0.46042   0.25001   0.00000  Uiso   1.00
O213   O     0.22679   0.53958   0.25000   0.00000  Uiso   1.00
O214   O     0.10655   0.46042   0.24999   0.00000  Uiso   1.00
C215   C     0.08756   0.50015   0.25138   0.00000  Uiso   1.00
C216   C     0.24579   0.50012   0.24866   0.00000  Uiso   1.00
O217   O     0.16666   0.53960   0.18513   0.00000  Uiso   1.00
O218   O     0.16668   0.46040   0.31487   0.00000  Uiso   1.00
O219   O     0.16668   0.53960   0.31487   0.00000  Uiso   1.00
O220   O     0.16666   0.46040   0.18513   0.00000  Uiso   1.00
C221   C     0.16665   0.50006   0.16464   0.00000  Uiso   1.00
C222   C     0.16667   0.50006   0.33535   0.00000  Uiso   1.00
Cu223  Cu    0.16667   0.54689   0.25000   0.00000  Uiso   1.00
Cu224  Cu    0.16667   0.45311   0.25000   0.00000  Uiso   1.00
C225   C     0.20370   0.49785   0.40939   0.00000  Uiso   1.00
C226   C     0.12964   0.49789   0.09060   0.00000  Uiso   1.00
C227   C     0.16687   0.50062   0.38374   0.00000  Uiso   1.00
C228   C     0.16647   0.50059   0.11625   0.00000  Uiso   1.00
C229   C     0.13013   0.50551   0.40432   0.00000  Uiso   1.00
C230   C     0.20322   0.50530   0.09567   0.00000  Uiso   1.00
C231   C     0.12949   0.50133   0.45079   0.00000  Uiso   1.00
C232   C     0.20386   0.50119   0.04919   0.00000  Uiso   1.00
C233   C     0.16657   0.50182   0.47656   0.00000  Uiso   1.00
C234   C     0.16677   0.50179   0.02342   0.00000  Uiso   1.00
C235   C     0.20350   0.50317   0.45571   0.00000  Uiso   1.00
C236   C     0.12983   0.50319   0.04427   0.00000  Uiso   1.00
C237   C     0.09313   0.50008   0.47271   0.00000  Uiso   1.00
C238   C     0.24021   0.49995   0.02724   0.00000  Uiso   1.00
C239   C     0.09380   0.50882   0.01801   0.00000  Uiso   1.00
C240   C     0.23952   0.50877   0.48195   0.00000  Uiso   1.00
C241   C     0.02109   0.45897   0.25476   0.00000  Uiso   1.00
C242   C     0.31221   0.54283   0.24956   0.00000  Uiso   1.00
C243   C     0.31237   0.45889   0.24577   0.00000  Uiso   1.00
C244   C     0.02108   0.54285   0.25021   0.00000  Uiso   1.00
C245   C     0.29054   0.50072   0.24703   0.00000  Uiso   1.00
C246   C     0.04282   0.50079   0.25306   0.00000  Uiso   1.00
C247   C     0.14271   0.35797   0.21976   0.00000  Uiso   1.00
C248   C     0.18983   0.64214   0.28111   0.00000  Uiso   1.00
C249   C     0.19060   0.35794   0.28026   0.00000  Uiso   1.00
C250   C     0.14351   0.64218   0.21888   0.00000  Uiso   1.00
N251   N     0.16667   0.61736   0.25000   0.00000  Uiso   1.00
N252   N     0.16667   0.38264   0.25000   0.00000  Uiso   1.00
N253   N     0.24058   0.48542   0.38937   0.00000  Uiso   1.00
O254   O     0.25049   0.50407   0.35245   0.00000  Uiso   1.00
O255   O     0.26471   0.45506   0.40841   0.00000  Uiso   1.00
N256   N     0.09277   0.48552   0.11064   0.00000  Uiso   1.00
O257   O     0.08286   0.50421   0.14754   0.00000  Uiso   1.00
O258   O     0.06865   0.45514   0.09165   0.00000  Uiso   1.00
I259   I     0.07906   0.53178   0.36573   0.00000  Uiso   1.00
I260   I     0.25445   0.53099   0.13437   0.00000  Uiso   1.00
I261   I     0.04217   0.46109   0.44795   0.00000  Uiso   1.00
I262   I     0.29121   0.46078   0.05173   0.00000  Uiso   1.00
I263   I     0.04556   0.54907   0.04113   0.00000  Uiso   1.00
I264   I     0.28766   0.54913   0.45885   0.00000  Uiso   1.00
N265   N     0.04111   0.41714   0.26876   0.00000  Uiso   1.00
O266   O     0.05957   0.41490   0.30791   0.00000  Uiso   1.00
O267   O     0.03873   0.38043   0.24424   0.00000  Uiso   1.00
N268   N     0.29226   0.58665   0.25139   0.00000  Uiso   1.00
O269   O     0.27270   0.60265   0.21611   0.00000  Uiso   1.00
O270   O     0.30358   0.61538   0.28270   0.00000  Uiso   1.00
N271   N     0.29246   0.41679   0.23243   0.00000  Uiso   1.00
O272   O     0.27399   0.41387   0.19331   0.00000  Uiso   1.00
O273   O     0.29545   0.38031   0.25726   0.00000  Uiso   1.00
N274   N     0.04096   0.58666   0.24812   0.00000  Uiso   1.00
O275   O     0.06048   0.60288   0.28331   0.00000  Uiso   1.00
O276   O     0.02955   0.61522   0.21667   0.00000  Uiso   1.00
I277   I     0.10246   0.39210   0.17294   0.00000  Uiso   1.00
I278   I     0.22544   0.60911   0.33356   0.00000  Uiso   1.00
I279   I     0.23069   0.39200   0.32723   0.00000  Uiso   1.00
I280   I     0.10800   0.60923   0.16635   0.00000  Uiso   1.00
O281   O     0.43988   0.53958   0.24999   0.00000  Uiso   1.00
O282   O     0.56012   0.46042   0.25001   0.00000  Uiso   1.00
O283   O     0.56012   0.53958   0.25000   0.00000  Uiso   1.00
O284   O     0.43988   0.46042   0.24999   0.00000  Uiso   1.00
C285   C     0.42089   0.50015   0.25138   0.00000  Uiso   1.00
C286   C     0.57912   0.50012   0.24866   0.00000  Uiso   1.00
O287   O     0.49999   0.53960   0.18513   0.00000  Uiso   1.00
O288   O     0.50001   0.46040   0.31487   0.00000  Uiso   1.00
O289   O     0.50001   0.53960   0.31487   0.00000  Uiso   1.00
O290   O     0.49999   0.46040   0.18513   0.00000  Uiso   1.00
C291   C     0.49999   0.50006   0.16464   0.00000  Uiso   1.00
C292   C     0.50000   0.50006   0.33535   0.00000  Uiso   1.00
Cu293  Cu    0.50000   0.54689   0.25000   0.00000  Uiso   1.00
Cu294  Cu    0.50000   0.45311   0.25000   0.00000  Uiso   1.00
C295   C     0.53703   0.49785   0.40939   0.00000  Uiso   1.00
C296   C     0.46297   0.49789   0.09060   0.00000  Uiso   1.00
C297   C     0.50021   0.50062   0.38374   0.00000  Uiso   1.00
C298   C     0.49980   0.50059   0.11625   0.00000  Uiso   1.00
C299   C     0.46347   0.50551   0.40432   0.00000  Uiso   1.00
C300   C     0.53656   0.50530   0.09567   0.00000  Uiso   1.00
C301   C     0.46283   0.50133   0.45079   0.00000  Uiso   1.00
C302   C     0.53719   0.50119   0.04919   0.00000  Uiso   1.00
C303   C     0.49990   0.50182   0.47656   0.00000  Uiso   1.00
C304   C     0.50010   0.50179   0.02342   0.00000  Uiso   1.00
C305   C     0.53683   0.50317   0.45571   0.00000  Uiso   1.00
C306   C     0.46317   0.50319   0.04427   0.00000  Uiso   1.00
C307   C     0.42646   0.50008   0.47271   0.00000  Uiso   1.00
C308   C     0.57355   0.49995   0.02724   0.00000  Uiso   1.00
C309   C     0.42714   0.50882   0.01801   0.00000  Uiso   1.00
C310   C     0.57285   0.50877   0.48195   0.00000  Uiso   1.00
C311   C     0.35443   0.45897   0.25476   0.00000  Uiso   1.00
C312   C     0.64554   0.54283   0.24956   0.00000  Uiso   1.00
C313   C     0.64571   0.45889   0.24577   0.00000  Uiso   1.00
C314   C     0.35441   0.54285   0.25021   0.00000  Uiso   1.00
C315   C     0.62387   0.50072   0.24703   0.00000  Uiso   1.00
C316   C     0.37615   0.50079   0.25306   0.00000  Uiso   1.00
C317   C     0.47604   0.35797   0.21976   0.00000  Uiso   1.00
C318   C     0.52317   0.64214   0.28111   0.00000  Uiso   1.00
C319   C     0.52394   0.35794   0.28026   0.00000  Uiso   1.00
C320   C     0.47684   0.64218   0.21888   0.00000  Uiso   1.00
N321   N     0.50000   0.61736   0.25000   0.00000  Uiso   1.00
N322   N     0.50000   0.38264   0.25000   0.00000  Uiso   1.00
N323   N     0.57391   0.48542   0.38937   0.00000  Uiso   1.00
O324   O     0.58383   0.50407   0.35245   0.00000  Uiso   1.00
O325   O     0.59804   0.45506   0.40841   0.00000  Uiso   1.00
N326   N     0.42610   0.48552   0.11064   0.00000  Uiso   1.00
O327   O     0.41619   0.50421   0.14754   0.00000  Uiso   1.00
O328   O     0.40199   0.45514   0.09165   0.00000  Uiso   1.00
I329   I     0.41239   0.53178   0.36573   0.00000  Uiso   1.00
I330   I     0.58778   0.53099   0.13437   0.00000  Uiso   1.00
I331   I     0.37550   0.46109   0.44795   0.00000  Uiso   1.00
I332   I     0.62454   0.46078   0.05173   0.00000  Uiso   1.00
I333   I     0.37889   0.54907   0.04113   0.00000  Uiso   1.00
I334   I     0.62100   0.54913   0.45885   0.00000  Uiso   1.00
N335   N     0.37444   0.41714   0.26876   0.00000  Uiso   1.00
O336   O     0.39290   0.41490   0.30791   0.00000  Uiso   1.00
O337   O     0.37206   0.38043   0.24424   0.00000  Uiso   1.00
N338   N     0.62559   0.58665   0.25139   0.00000  Uiso   1.00
O339   O     0.60603   0.60265   0.21611   0.00000  Uiso   1.00
O340   O     0.63692   0.61538   0.28270   0.00000  Uiso   1.00
N341   N     0.62579   0.41679   0.23243   0.00000  Uiso   1.00
O342   O     0.60733   0.41387   0.19331   0.00000  Uiso   1.00
O343   O     0.62878   0.38031   0.25726   0.00000  Uiso   1.00
N344   N     0.37429   0.58666   0.24812   0.00000  Uiso   1.00
O345   O     0.39381   0.60288   0.28331   0.00000  Uiso   1.00
O346   O     0.36288   0.61522   0.21667   0.00000  Uiso   1.00
I347   I     0.43579   0.39210   0.17294   0.00000  Uiso   1.00
I348   I     0.55877   0.60911   0.33356   0.00000  Uiso   1.00
I349   I     0.56403   0.39200   0.32723   0.00000  Uiso   1.00
I350   I     0.44133   0.60923   0.16635   0.00000  Uiso   1.00
O351   O     0.77321   0.53958   0.24999   0.00000  Uiso   1.00
O352   O     0.89345   0.46042   0.25001   0.00000  Uiso   1.00
O353   O     0.89345   0.53958   0.25000   0.00000  Uiso   1.00
O354   O     0.77321   0.46042   0.24999   0.00000  Uiso   1.00
C355   C     0.75422   0.50015   0.25138   0.00000  Uiso   1.00
C356   C     0.91245   0.50012   0.24866   0.00000  Uiso   1.00
O357   O     0.83332   0.53960   0.18513   0.00000  Uiso   1.00
O358   O     0.83334   0.46040   0.31487   0.00000  Uiso   1.00
O359   O     0.83334   0.53960   0.31487   0.00000  Uiso   1.00
O360   O     0.83332   0.46040   0.18513   0.00000  Uiso   1.00
C361   C     0.83332   0.50006   0.16464   0.00000  Uiso   1.00
C362   C     0.83334   0.50006   0.33535   0.00000  Uiso   1.00
Cu363  Cu    0.83333   0.54689   0.25000   0.00000  Uiso   1.00
Cu364  Cu    0.83333   0.45311   0.25000   0.00000  Uiso   1.00
C365   C     0.87037   0.49785   0.40939   0.00000  Uiso   1.00
C366   C     0.79630   0.49789   0.09060   0.00000  Uiso   1.00
C367   C     0.83354   0.50062   0.38374   0.00000  Uiso   1.00
C368   C     0.83313   0.50059   0.11625   0.00000  Uiso   1.00
C369   C     0.79680   0.50551   0.40432   0.00000  Uiso   1.00
C370   C     0.86989   0.50530   0.09567   0.00000  Uiso   1.00
C371   C     0.79616   0.50133   0.45079   0.00000  Uiso   1.00
C372   C     0.87052   0.50119   0.04919   0.00000  Uiso   1.00
C373   C     0.83324   0.50182   0.47656   0.00000  Uiso   1.00
C374   C     0.83344   0.50179   0.02342   0.00000  Uiso   1.00
C375   C     0.87016   0.50317   0.45571   0.00000  Uiso   1.00
C376   C     0.79650   0.50319   0.04427   0.00000  Uiso   1.00
C377   C     0.75980   0.50008   0.47271   0.00000  Uiso   1.00
C378   C     0.90688   0.49995   0.02724   0.00000  Uiso   1.00
C379   C     0.76047   0.50882   0.01801   0.00000  Uiso   1.00
C380   C     0.90618   0.50877   0.48195   0.00000  Uiso   1.00
C381   C     0.68776   0.45897   0.25476   0.00000  Uiso   1.00
C382   C     0.97887   0.54283   0.24956   0.00000  Uiso   1.00
C383   C     0.97904   0.45889   0.24577   0.00000  Uiso   1.00
C384   C     0.68775   0.54285   0.25021   0.00000  Uiso   1.00
C385   C     0.95721   0.50072   0.24703   0.00000  Uiso   1.00
C386   C     0.70949   0.50079   0.25306   0.00000  Uiso   1.00
C387   C     0.80938   0.35797   0.21976   0.00000  Uiso   1.00
C388   C     0.85650   0.64214   0.28111   0.00000  Uiso   1.00
C389   C     0.85727   0.35794   0.28026   0.00000  Uiso   1.00
C390   C     0.81017   0.64218   0.21888   0.00000  Uiso   1.00
N391   N     0.83333   0.61736   0.25000   0.00000  Uiso   1.00
N392   N     0.83333   0.38264   0.25000   0.00000  Uiso   1.00
N393   N     0.90724   0.48542   0.38937   0.00000  Uiso   1.00
O394   O     0.91716   0.50407   0.35245   0.00000  Uiso   1.00
O395   O     0.93137   0.45506   0.40841   0.00000  Uiso   1.00
N396   N     0.75943   0.48552   0.11064   0.00000  Uiso   1.00
O397   O     0.74952   0.50421   0.14754   0.00000  Uiso   1.00
O398   O     0.73532   0.45514   0.09165   0.00000  Uiso   1.00
I399   I     0.74573   0.53178   0.36573   0.00000  Uiso   1.00
I400   I     0.92111   0.53099   0.13437   0.00000  Uiso   1.00
I401   I     0.70884   0.46109   0.44795   0.00000  Uiso   1.00
I402   I     0.95788   0.46078   0.05173   0.00000  Uiso   1.00
I403   I     0.71222   0.54907   0.04113   0.00000  Uiso   1.00
I404   I     0.95433   0.54913   0.45885   0.00000  Uiso   1.00
N405   N     0.70777   0.41714   0.26876   0.00000  Uiso   1.00
O406   O     0.72623   0.41490   0.30791   0.00000  Uiso   1.00
O407   O     0.70540   0.38043   0.24424   0.00000  Uiso   1.00
N408   N     0.95893   0.58665   0.25139   0.00000  Uiso   1.00
O409   O     0.93936   0.60265   0.21611   0.00000  Uiso   1.00
O410   O     0.97025   0.61538   0.28270   0.00000  Uiso   1.00
N411   N     0.95912   0.41679   0.23243   0.00000  Uiso   1.00
O412   O     0.94066   0.41387   0.19331   0.00000  Uiso   1.00
O413   O     0.96212   0.38031   0.25726   0.00000  Uiso   1.00
N414   N     0.70762   0.58666   0.24812   0.00000  Uiso   1.00
O415   O     0.72715   0.60288   0.28331   0.00000  Uiso   1.00
O416   O     0.69622   0.61522   0.21667   0.00000  Uiso   1.00
I417   I     0.76913   0.39210   0.17294   0.00000  Uiso   1.00
I418   I     0.89210   0.60911   0.33356   0.00000  Uiso   1.00
I419   I     0.89736   0.39200   0.32723   0.00000  Uiso   1.00
I420   I     0.77467   0.60923   0.16635   0.00000  Uiso   1.00
O421   O     0.10655   0.87291   0.24999   0.00000  Uiso   1.00
O422   O     0.22679   0.79375   0.25001   0.00000  Uiso   1.00
O423   O     0.22679   0.87291   0.25000   0.00000  Uiso   1.00
O424   O     0.10655   0.79375   0.24999   0.00000  Uiso   1.00
C425   C     0.08756   0.83348   0.25138   0.00000  Uiso   1.00
C426   C     0.24579   0.83346   0.24866   0.00000  Uiso   1.00
O427   O     0.16666   0.87293   0.18513   0.00000  Uiso   1.00
O428   O     0.16668   0.79373   0.31487   0.00000  Uiso   1.00
O429   O     0.16668   0.87293   0.31487   0.00000  Uiso   1.00
O430   O     0.16666   0.79373   0.18513   0.00000  Uiso   1.00
C431   C     0.16665   0.83339   0.16464   0.00000  Uiso   1.00
C432   C     0.16667   0.83339   0.33535   0.00000  Uiso   1.00
Cu433  Cu    0.16667   0.88022   0.25000   0.00000  Uiso   1.00
Cu434  Cu    0.16667   0.78645   0.25000   0.00000  Uiso   1.00
C435   C     0.20370   0.83119   0.40939   0.00000  Uiso   1.00
C436   C     0.12964   0.83123   0.09060   0.00000  Uiso   1.00
C437   C     0.16687   0.83396   0.38374   0.00000  Uiso   1.00
C438   C     0.16647   0.83393   0.11625   0.00000  Uiso   1.00
C439   C     0.13013   0.83885   0.40432   0.00000  Uiso   1.00
C440   C     0.20322   0.83863   0.09567   0.00000  Uiso   1.00
C441   C     0.12949   0.83466   0.45079   0.00000  Uiso   1.00
C442   C     0.20386   0.83452   0.04919   0.00000  Uiso   1.00
C443   C     0.16657   0.83515   0.47656   0.00000  Uiso   1.00
C444   C     0.16677   0.83513   0.02342   0.00000  Uiso   1.00
C445   C     0.20350   0.83651   0.45571   0.00000  Uiso   1.00
C446   C     0.12983   0.83653   0.04427   0.00000  Uiso   1.00
C447   C     0.09313   0.83342   0.47271   0.00000  Uiso   1.00
C448   C     0.24021   0.83328   0.02724   0.00000  Uiso   1.00
C449   C     0.09380   0.84215   0.01801   0.00000  Uiso   1.00
C450   C     0.23952   0.84211   0.48195   0.00000  Uiso   1.00
C451   C     0.02109   0.79231   0.25476   0.00000  Uiso   1.00
C452   C     0.31221   0.87616   0.24956   0.00000  Uiso   1.00
C453   C     0.31237   0.79223   0.24577   0.00000  Uiso   1.00
C454   C     0.02108   0.87618   0.25021   0.00000  Uiso   1.00
C455   C     0.29054   0.83405   0.24703   0.00000  Uiso   1.00
C456   C     0.04282   0.83412   0.25306   0.00000  Uiso   1.00
C457   C     0.14271   0.69131   0.21976   0.00000  Uiso   1.00
C458   C     0.18983   0.97547   0.28111   0.00000  Uiso   1.00
C459   C     0.19060   0.69127   0.28026   0.00000  Uiso   1.00
C460   C     0.14351   0.97551   0.21888   0.00000  Uiso   1.00
N461   N     0.16667   0.95069   0.25000   0.00000  Uiso   1.00
N462   N     0.16667   0.71598   0.25000   0.00000  Uiso   1.00
N463   N     0.24058   0.81876   0.38937   0.00000  Uiso   1.00
O464   O     0.25049   0.83740   0.35245   0.00000  Uiso   1.00
O465   O     0.26471   0.78840   0.40841   0.00000  Uiso   1.00
N466   N     0.09277   0.81886   0.11064   0.00000  Uiso   1.00
O467   O     0.08286   0.83755   0.14754   0.00000  Uiso   1.00
O468   O     0.06865   0.78847   0.09165   0.00000  Uiso   1.00
I469   I     0.07906   0.86511   0.36573   0.00000  Uiso   1.00
I470   I     0.25445   0.86432   0.13437   0.00000  Uiso   1.00
I471   I     0.04217   0.79442   0.44795   0.00000  Uiso   1.00
I472   I     0.29121   0.79411   0.05173   0.00000  Uiso   1.00
I473   I     0.04556   0.88241   0.04113   0.00000  Uiso   1.00
I474   I     0.28766   0.88247   0.45885   0.00000  Uiso   1.00
N475   N     0.04111   0.75047   0.26876   0.00000  Uiso   1.00
O476   O     0.05957   0.74824   0.30791   0.00000  Uiso   1.00
O477   O     0.03873   0.71376   0.24424   0.00000  Uiso   1.00
N478   N     0.29226   0.91998   0.25139   0.00000  Uiso   1.00
O479   O     0.27270   0.93598   0.21611   0.00000  Uiso   1.00
O480   O     0.30358   0.94872   0.28270   0.00000  Uiso   1.00
N481   N     0.29246   0.75012   0.23243   0.00000  Uiso   1.00
O482   O     0.27399   0.74720   0.19331   0.00000  Uiso   1.00
O483   O     0.29545   0.71365   0.25726   0.00000  Uiso   1.00
N484   N     0.04096   0.92000   0.24812   0.00000  Uiso   1.00
O485   O     0.06048   0.93621   0.28331   0.00000  Uiso   1.00
O486   O     0.02955   0.94855   0.21667   0.00000  Uiso   1.00
I487   I     0.10246   0.72543   0.17294   0.00000  Uiso   1.00
I488   I     0.22544   0.94244   0.33356   0.00000  Uiso   1.00
I489   I     0.23069   0.72534   0.32723   0.00000  Uiso   1.00
I490   I     0.10800   0.94256   0.16635   0.00000  Uiso   1.00
O491   O     0.43988   0.87291   0.24999   0.00000  Uiso   1.00
O492   O     0.56012   0.79375   0.25001   0.00000  Uiso   1.00
O493   O     0.56012   0.87291   0.25000   0.00000  Uiso   1.00
O494   O     0.43988   0.79375   0.24999   0.00000  Uiso   1.00
C495   C     0.42089   0.83348   0.25138   0.00000  Uiso   1.00
C496   C     0.57912   0.83346   0.24866   0.00000  Uiso   1.00
O497   O     0.49999   0.87293   0.18513   0.00000  Uiso   1.00
O498   O     0.50001   0.79373   0.31487   0.00000  Uiso   1.00
O499   O     0.50001   0.87293   0.31487   0.00000  Uiso   1.00
O500   O     0.49999   0.79373   0.18513   0.00000  Uiso   1.00
C501   C     0.49999   0.83339   0.16464   0.00000  Uiso   1.00
C502   C     0.50000   0.83339   0.33535   0.00000  Uiso   1.00
Cu503  Cu    0.50000   0.88022   0.25000   0.00000  Uiso   1.00
Cu504  Cu    0.50000   0.78645   0.25000   0.00000  Uiso   1.00
C505   C     0.53703   0.83119   0.40939   0.00000  Uiso   1.00
C506   C     0.46297   0.83123   0.09060   0.00000  Uiso   1.00
C507   C     0.50021   0.83396   0.38374   0.00000  Uiso   1.00
C508   C     0.49980   0.83393   0.11625   0.00000  Uiso   1.00
C509   C     0.46347   0.83885   0.40432   0.00000  Uiso   1.00
C510   C     0.53656   0.83863   0.09567   0.00000  Uiso   1.00
C511   C     0.46283   0.83466   0.45079   0.00000  Uiso   1.00
C512   C     0.53719   0.83452   0.04919   0.00000  Uiso   1.00
C513   C     0.49990   0.83515   0.47656   0.00000  Uiso   1.00
C514   C     0.50010   0.83513   0.02342   0.00000  Uiso   1.00
C515   C     0.53683   0.83651   0.45571   0.00000  Uiso   1.00
C516   C     0.46317   0.83653   0.04427   0.00000  Uiso   1.00
C517   C     0.42646   0.83342   0.47271   0.00000  Uiso   1.00
C518   C     0.57355   0.83328   0.02724   0.00000  Uiso   1.00
C519   C     0.42714   0.84215   0.01801   0.00000  Uiso   1.00
C520   C     0.57285   0.84211   0.48195   0.00000  Uiso   1.00
C521   C     0.35443   0.79231   0.25476   0.00000  Uiso   1.00
C522   C     0.64554   0.87616   0.24956   0.00000  Uiso   1.00
C523   C     0.64571   0.79223   0.24577   0.00000  Uiso   1.00
C524   C     0.35441   0.87618   0.25021   0.00000  Uiso   1.00
C525   C     0.62387   0.83405   0.24703   0.00000  Uiso   1.00
C526   C     0.37615   0.83412   0.25306   0.00000  Uiso   1.00
C527   C     0.47604   0.69131   0.21976   0.00000  Uiso   1.00
C528   C     0.52317   0.97547   0.28111   0.00000  Uiso   1.00
C529   C     0.52394   0.69127   0.28026   0.00000  Uiso   1.00
C530   C     0.47684   0.97551   0.21888   0.00000  Uiso   1.00
N531   N     0.50000   0.95069   0.25000   0.00000  Uiso   1.00
N532   N     0.50000   0.71598   0.25000   0.00000  Uiso   1.00
N533   N     0.57391   0.81876   0.38937   0.00000  Uiso   1.00
O534   O     0.58383   0.83740   0.35245   0.00000  Uiso   1.00
O535   O     0.59804   0.78840   0.40841   0.00000  Uiso   1.00
N536   N     0.42610   0.81886   0.11064   0.00000  Uiso   1.00
O537   O     0.41619   0.83755   0.14754   0.00000  Uiso   1.00
O538   O     0.40199   0.78847   0.09165   0.00000  Uiso   1.00
I539   I     0.41239   0.86511   0.36573   0.00000  Uiso   1.00
I540   I     0.58778   0.86432   0.13437   0.00000  Uiso   1.00
I541   I     0.37550   0.79442   0.44795   0.00000  Uiso   1.00
I542   I     0.62454   0.79411   0.05173   0.00000  Uiso   1.00
I543   I     0.37889   0.88241   0.04113   0.00000  Uiso   1.00
I544   I     0.62100   0.88247   0.45885   0.00000  Uiso   1.00
N545   N     0.37444   0.75047   0.26876   0.00000  Uiso   1.00
O546   O     0.39290   0.74824   0.30791   0.00000  Uiso   1.00
O547   O     0.37206   0.71376   0.24424   0.00000  Uiso   1.00
N548   N     0.62559   0.91998   0.25139   0.00000  Uiso   1.00
O549   O     0.60603   0.93598   0.21611   0.00000  Uiso   1.00
O550   O     0.63692   0.94872   0.28270   0.00000  Uiso   1.00
N551   N     0.62579   0.75012   0.23243   0.00000  Uiso   1.00
O552   O     0.60733   0.74720   0.19331   0.00000  Uiso   1.00
O553   O     0.62878   0.71365   0.25726   0.00000  Uiso   1.00
N554   N     0.37429   0.92000   0.24812   0.00000  Uiso   1.00
O555   O     0.39381   0.93621   0.28331   0.00000  Uiso   1.00
O556   O     0.36288   0.94855   0.21667   0.00000  Uiso   1.00
I557   I     0.43579   0.72543   0.17294   0.00000  Uiso   1.00
I558   I     0.55877   0.94244   0.33356   0.00000  Uiso   1.00
I559   I     0.56403   0.72534   0.32723   0.00000  Uiso   1.00
I560   I     0.44133   0.94256   0.16635   0.00000  Uiso   1.00
O561   O     0.77321   0.87291   0.24999   0.00000  Uiso   1.00
O562   O     0.89345   0.79375   0.25001   0.00000  Uiso   1.00
O563   O     0.89345   0.87291   0.25000   0.00000  Uiso   1.00
O564   O     0.77321   0.79375   0.24999   0.00000  Uiso   1.00
C565   C     0.75422   0.83348   0.25138   0.00000  Uiso   1.00
C566   C     0.91245   0.83346   0.24866   0.00000  Uiso   1.00
O567   O     0.83332   0.87293   0.18513   0.00000  Uiso   1.00
O568   O     0.83334   0.79373   0.31487   0.00000  Uiso   1.00
O569   O     0.83334   0.87293   0.31487   0.00000  Uiso   1.00
O570   O     0.83332   0.79373   0.18513   0.00000  Uiso   1.00
C571   C     0.83332   0.83339   0.16464   0.00000  Uiso   1.00
C572   C     0.83334   0.83339   0.33535   0.00000  Uiso   1.00
Cu573  Cu    0.83333   0.88022   0.25000   0.00000  Uiso   1.00
Cu574  Cu    0.83333   0.78645   0.25000   0.00000  Uiso   1.00
C575   C     0.87037   0.83119   0.40939   0.00000  Uiso   1.00
C576   C     0.79630   0.83123   0.09060   0.00000  Uiso   1.00
C577   C     0.83354   0.83396   0.38374   0.00000  Uiso   1.00
C578   C     0.83313   0.83393   0.11625   0.00000  Uiso   1.00
C579   C     0.79680   0.83885   0.40432   0.00000  Uiso   1.00
C580   C     0.86989   0.83863   0.09567   0.00000  Uiso   1.00
C581   C     0.79616   0.83466   0.45079   0.00000  Uiso   1.00
C582   C     0.87052   0.83452   0.04919   0.00000  Uiso   1.00
C583   C     0.83324   0.83515   0.47656   0.00000  Uiso   1.00
C584   C     0.83344   0.83513   0.02342   0.00000  Uiso   1.00
C585   C     0.87016   0.83651   0.45571   0.00000  Uiso   1.00
C586   C     0.79650   0.83653   0.04427   0.00000  Uiso   1.00
C587   C     0.75980   0.83342   0.47271   0.00000  Uiso   1.00
C588   C     0.90688   0.83328   0.02724   0.00000  Uiso   1.00
C589   C     0.76047   0.84215   0.01801   0.00000  Uiso   1.00
C590   C     0.90618   0.84211   0.48195   0.00000  Uiso   1.00
C591   C     0.68776   0.79231   0.25476   0.00000  Uiso   1.00
C592   C     0.97887   0.87616   0.24956   0.00000  Uiso   1.00
C593   C     0.97904   0.79223   0.24577   0.00000  Uiso   1.00
C594   C     0.68775   0.87618   0.25021   0.00000  Uiso   1.00
C595   C     0.95721   0.83405   0.24703   0.00000  Uiso   1.00
C596   C     0.70949   0.83412   0.25306   0.00000  Uiso   1.00
C597   C     0.80938   0.69131   0.21976   0.00000  Uiso   1.00
C598   C     0.85650   0.97547   0.28111   0.00000  Uiso   1.00
C599   C     0.85727   0.69127   0.28026   0.00000  Uiso   1.00
C600   C     0.81017   0.97551   0.21888   0.00000  Uiso   1.00
N601   N     0.83333   0.95069   0.25000   0.00000  Uiso   1.00
N602   N     0.83333   0.71598   0.25000   0.00000  Uiso   1.00
N603   N     0.90724   0.81876   0.38937   0.00000  Uiso   1.00
O604   O     0.91716   0.83740   0.35245   0.00000  Uiso   1.00
O605   O     0.93137   0.78840   0.40841   0.00000  Uiso   1.00
N606   N     0.75943   0.81886   0.11064   0.00000  Uiso   1.00
O607   O     0.74952   0.83755   0.14754   0.00000  Uiso   1.00
O608   O     0.73532   0.78847   0.09165   0.00000  Uiso   1.00
I609   I     0.74573   0.86511   0.36573   0.00000  Uiso   1.00
I610   I     0.92111   0.86432   0.13437   0.00000  Uiso   1.00
I611   I     0.70884   0.79442   0.44795   0.00000  Uiso   1.00
I612   I     0.95788   0.79411   0.05173   0.00000  Uiso   1.00
I613   I     0.71222   0.88241   0.04113   0.00000  Uiso   1.00
I614   I     0.95433   0.88247   0.45885   0.00000  Uiso   1.00
N615   N     0.70777   0.75047   0.26876   0.00000  Uiso   1.00
O616   O     0.72623   0.74824   0.30791   0.00000  Uiso   1.00
O617   O     0.70540   0.71376   0.24424   0.00000  Uiso   1.00
N618   N     0.95893   0.91998   0.25139   0.00000  Uiso   1.00
O619   O     0.93936   0.93598   0.21611   0.00000  Uiso   1.00
O620   O     0.97025   0.94872   0.28270   0.00000  Uiso   1.00
N621   N     0.95912   0.75012   0.23243   0.00000  Uiso   1.00
O622   O     0.94066   0.74720   0.19331   0.00000  Uiso   1.00
O623   O     0.96212   0.71365   0.25726   0.00000  Uiso   1.00
N624   N     0.70762   0.92000   0.24812   0.00000  Uiso   1.00
O625   O     0.72715   0.93621   0.28331   0.00000  Uiso   1.00
O626   O     0.69622   0.94855   0.21667   0.00000  Uiso   1.00
I627   I     0.76913   0.72543   0.17294   0.00000  Uiso   1.00
I628   I     0.89210   0.94244   0.33356   0.00000  Uiso   1.00
I629   I     0.89736   0.72534   0.32723   0.00000  Uiso   1.00
I630   I     0.77467   0.94256   0.16635   0.00000  Uiso   1.00
O631   O     0.10655   0.20625   0.74999   0.00000  Uiso   1.00
O632   O     0.22679   0.12709   0.75001   0.00000  Uiso   1.00
O633   O     0.22679   0.20625   0.75000   0.00000  Uiso   1.00
O634   O     0.10655   0.12709   0.74999   0.00000  Uiso   1.00
C635   C     0.08756   0.16682   0.75138   0.00000  Uiso   1.00
C636   C     0.24579   0.16679   0.74866   0.00000  Uiso   1.00
O637   O     0.16666   0.20627   0.68513   0.00000  Uiso   1.00
O638   O     0.16668   0.12707   0.81487   0.00000  Uiso   1.00
O639   O     0.16668   0.20627   0.81487   0.00000  Uiso   1.00
O640   O     0.16666   0.12707   0.68513   0.00000  Uiso   1.00
C641   C     0.16665   0.16672   0.66464   0.00000  Uiso   1.00
C642   C     0.16667   0.16673   0.83535   0.00000  Uiso   1.00
Cu643  Cu    0.16667   0.21355   0.75000   0.00000  Uiso   1.00
Cu644  Cu    0.16667   0.11978   0.75000   0.00000  Uiso   1.00
C645   C     0.20370   0.16452   0.90939   0.00000  Uiso   1.00
C646   C     0.12964   0.16456   0.59060   0.00000  Uiso   1.00
C647   C     0.16687   0.16729   0.88374   0.00000  Uiso   1.00
C648   C     0.16647   0.16726   0.61625   0.00000  Uiso   1.00
C649   C     0.13013   0.17218   0.90432   0.00000  Uiso   1.00
C650   C     0.20322   0.17197   0.59567   0.00000  Uiso   1.00
C651   C     0.12949   0.16800   0.95079   0.00000  Uiso   1.00
C652   C     0.20386   0.16786   0.54919   0.00000  Uiso   1.00
C653   C     0.16657   0.16848   0.97656   0.00000  Uiso   1.00
C654   C     0.16677   0.16846   0.52342   0.00000  Uiso   1.00
C655   C     0.20350   0.16984   0.95571   0.00000  Uiso   1.00
C656   C     0.12983   0.16986   0.54427   0.00000  Uiso   1.00
C657   C     0.09313   0.16675   0.97271   0.00000  Uiso   1.00
C658   C     0.24021   0.16661   0.52724   0.00000  Uiso   1.00
C659   C     0.09380   0.17548   0.51801   0.00000  Uiso   1.00
C660   C     0.23952   0.17544   0.98195   0.00000  Uiso   1.00
C661   C     0.02109   0.12564   0.75476   0.00000  Uiso   1.00
C662   C     0.31221   0.20949   0.74956   0.00000  Uiso   1.00
C663   C     0.31237   0.12556   0.74577   0.00000  Uiso   1.00
C664   C     0.02108   0.20951   0.75021   0.00000  Uiso   1.00
C665   C     0.29054   0.16739   0.74703   0.00000  Uiso   1.00
C666   C     0.04282   0.16745   0.75306   0.00000  Uiso   1.00
C667   C     0.14271   0.02464   0.71976   0.00000  Uiso   1.00
C668   C     0.18983   0.30881   0.78111   0.00000  Uiso   1.00
C669   C     0.19060   0.02460   0.78026   0.00000  Uiso   1.00
C670   C     0.14351   0.30884   0.71888   0.00000  Uiso   1.00
N671   N     0.16667   0.28402   0.75000   0.00000  Uiso   1.00
N672   N     0.16667   0.04931   0.75000   0.00000  Uiso   1.00
N673   N     0.24058   0.15209   0.88937   0.00000  Uiso   1.00
O674   O     0.25049   0.17074   0.85245   0.00000  Uiso   1.00
O675   O     0.26471   0.12173   0.90841   0.00000  Uiso   1.00
N676   N     0.09277   0.15219   0.61064   0.00000  Uiso   1.00
O677   O     0.08286   0.17088   0.64754   0.00000  Uiso   1.00
O678   O     0.06865   0.12181   0.59165   0.00000  Uiso   1.00
I679   I     0.07906   0.19844   0.86573   0.00000  Uiso   1.00
I680   I     0.25445   0.19765   0.63437   0.00000  Uiso   1.00
I681   I     0.04217   0.12776   0.94795   0.00000  Uiso   1.00
I682   I     0.29121   0.12744   0.55173   0.00000  Uiso   1.00
I683   I     0.04556   0.21574   0.54113   0.00000  Uiso   1.00
I684   I     0.28766   0.21580   0.95885   0.00000  Uiso   1.00
N685   N     0.04111   0.08381   0.76876   0.00000  Uiso   1.00
O686   O     0.05957   0.08157   0.80791   0.00000  Uiso   1.00
O687   O     0.03873   0.04710   0.74424   0.00000  Uiso   1.00
N688   N     0.29226   0.25332   0.75139   0.00000  Uiso   1.00
O689   O     0.27270   0.26931   0.71611   0.00000  Uiso   1.00
O690   O     0.30358   0.28205   0.78270   0.00000  Uiso   1.00
N691   N     0.29246   0.08346   0.73243   0.00000  Uiso   1.00
O692   O     0.27399   0.08054   0.69331   0.00000  Uiso   1.00
O693   O     0.29545   0.04698   0.75726   0.00000  Uiso   1.00
N694   N     0.04096   0.25333   0.74812   0.00000  Uiso   1.00
O695   O     0.06048   0.26955   0.78331   0.00000  Uiso   1.00
O696   O     0.02955   0.28188   0.71667   0.00000  Uiso   1.00
I697   I     0.10246   0.05876   0.67294   0.00000  Uiso   1.00
I698   I     0.22544   0.27577   0.83356   0.00000  Uiso   1.00
I699   I     0.23069   0.05867   0.82723   0.00000  Uiso   1.00
I700   I     0.10800   0.27590   0.66635   0.00000  Uiso   1.00
O701   O     0.43988   0.20625   0.74999   0.00000  Uiso   1.00
O702   O     0.56012   0.12709   0.75001   0.00000  Uiso   1.00
O703   O     0.56012   0.20625   0.75000   0.00000  Uiso   1.00
O704   O     0.43988   0.12709   0.74999   0.00000  Uiso   1.00
C705   C     0.42089   0.16682   0.75138   0.00000  Uiso   1.00
C706   C     0.57912   0.16679   0.74866   0.00000  Uiso   1.00
O707   O     0.49999   0.20627   0.68513   0.00000  Uiso   1.00
O708   O     0.50001   0.12707   0.81487   0.00000  Uiso   1.00
O709   O     0.50001   0.20627   0.81487   0.00000  Uiso   1.00
O710   O     0.49999   0.12707   0.68513   0.00000  Uiso   1.00
C711   C     0.49999   0.16672   0.66464   0.00000  Uiso   1.00
C712   C     0.50000   0.16673   0.83535   0.00000  Uiso   1.00
Cu713  Cu    0.50000   0.21355   0.75000   0.00000  Uiso   1.00
Cu714  Cu    0.50000   0.11978   0.75000   0.00000  Uiso   1.00
C715   C     0.53703   0.16452   0.90939   0.00000  Uiso   1.00
C716   C     0.46297   0.16456   0.59060   0.00000  Uiso   1.00
C717   C     0.50021   0.16729   0.88374   0.00000  Uiso   1.00
C718   C     0.49980   0.16726   0.61625   0.00000  Uiso   1.00
C719   C     0.46347   0.17218   0.90432   0.00000  Uiso   1.00
C720   C     0.53656   0.17197   0.59567   0.00000  Uiso   1.00
C721   C     0.46283   0.16800   0.95079   0.00000  Uiso   1.00
C722   C     0.53719   0.16786   0.54919   0.00000  Uiso   1.00
C723   C     0.49990   0.16848   0.97656   0.00000  Uiso   1.00
C724   C     0.50010   0.16846   0.52342   0.00000  Uiso   1.00
C725   C     0.53683   0.16984   0.95571   0.00000  Uiso   1.00
C726   C     0.46317   0.16986   0.54427   0.00000  Uiso   1.00
C727   C     0.42646   0.16675   0.97271   0.00000  Uiso   1.00
C728   C     0.57355   0.16661   0.52724   0.00000  Uiso   1.00
C729   C     0.42714   0.17548   0.51801   0.00000  Uiso   1.00
C730   C     0.57285   0.17544   0.98195   0.00000  Uiso   1.00
C731   C     0.35443   0.12564   0.75476   0.00000  Uiso   1.00
C732   C     0.64554   0.20949   0.74956   0.00000  Uiso   1.00
C733   C     0.64571   0.12556   0.74577   0.00000  Uiso   1.00
C734   C     0.35441   0.20951   0.75021   0.00000  Uiso   1.00
C735   C     0.62387   0.16739   0.74703   0.00000  Uiso   1.00
C736   C     0.37615   0.16745   0.75306   0.00000  Uiso   1.00
C737   C     0.47604   0.02464   0.71976   0.00000  Uiso   1.00
C738   C     0.52317   0.30881   0.78111   0.00000  Uiso   1.00
C739   C     0.52394   0.02460   0.78026   0.00000  Uiso   1.00
C740   C     0.47684   0.30884   0.71888   0.00000  Uiso   1.00
N741   N     0.50000   0.28402   0.75000   0.00000  Uiso   1.00
N742   N     0.50000   0.04931   0.75000   0.00000  Uiso   1.00
N743   N     0.57391   0.15209   0.88937   0.00000  Uiso   1.00
O744   O     0.58383   0.17074   0.85245   0.00000  Uiso   1.00
O745   O     0.59804   0.12173   0.90841   0.00000  Uiso   1.00
N746   N     0.42610   0.15219   0.61064   0.00000  Uiso   1.00
O747   O     0.41619   0.17088   0.64754   0.00000  Uiso   1.00
O748   O     0.40199   0.12181   0.59165   0.00000  Uiso   1.00
I749   I     0.41239   0.19844   0.86573   0.00000  Uiso   1.00
I750   I     0.58778   0.19765   0.63437   0.00000  Uiso   1.00
I751   I     0.37550   0.12776   0.94795   0.00000  Uiso   1.00
I752   I     0.62454   0.12744   0.55173   0.00000  Uiso   1.00
I753   I     0.37889   0.21574   0.54113   0.00000  Uiso   1.00
I754   I     0.62100   0.21580   0.95885   0.00000  Uiso   1.00
N755   N     0.37444   0.08381   0.76876   0.00000  Uiso   1.00
O756   O     0.39290   0.08157   0.80791   0.00000  Uiso   1.00
O757   O     0.37206   0.04710   0.74424   0.00000  Uiso   1.00
N758   N     0.62559   0.25332   0.75139   0.00000  Uiso   1.00
O759   O     0.60603   0.26931   0.71611   0.00000  Uiso   1.00
O760   O     0.63692   0.28205   0.78270   0.00000  Uiso   1.00
N761   N     0.62579   0.08346   0.73243   0.00000  Uiso   1.00
O762   O     0.60733   0.08054   0.69331   0.00000  Uiso   1.00
O763   O     0.62878   0.04698   0.75726   0.00000  Uiso   1.00
N764   N     0.37429   0.25333   0.74812   0.00000  Uiso   1.00
O765   O     0.39381   0.26955   0.78331   0.00000  Uiso   1.00
O766   O     0.36288   0.28188   0.71667   0.00000  Uiso   1.00
I767   I     0.43579   0.05876   0.67294   0.00000  Uiso   1.00
I768   I     0.55877   0.27577   0.83356   0.00000  Uiso   1.00
I769   I     0.56403   0.05867   0.82723   0.00000  Uiso   1.00
I770   I     0.44133   0.27590   0.66635   0.00000  Uiso   1.00
O771   O     0.77321   0.20625   0.74999   0.00000  Uiso   1.00
O772   O     0.89345   0.12709   0.75001   0.00000  Uiso   1.00
O773   O     0.89345   0.20625   0.75000   0.00000  Uiso   1.00
O774   O     0.77321   0.12709   0.74999   0.00000  Uiso   1.00
C775   C     0.75422   0.16682   0.75138   0.00000  Uiso   1.00
C776   C     0.91245   0.16679   0.74866   0.00000  Uiso   1.00
O777   O     0.83332   0.20627   0.68513   0.00000  Uiso   1.00
O778   O     0.83334   0.12707   0.81487   0.00000  Uiso   1.00
O779   O     0.83334   0.20627   0.81487   0.00000  Uiso   1.00
O780   O     0.83332   0.12707   0.68513   0.00000  Uiso   1.00
C781   C     0.83332   0.16672   0.66464   0.00000  Uiso   1.00
C782   C     0.83334   0.16673   0.83535   0.00000  Uiso   1.00
Cu783  Cu    0.83333   0.21355   0.75000   0.00000  Uiso   1.00
Cu784  Cu    0.83333   0.11978   0.75000   0.00000  Uiso   1.00
C785   C     0.87037   0.16452   0.90939   0.00000  Uiso   1.00
C786   C     0.79630   0.16456   0.59060   0.00000  Uiso   1.00
C787   C     0.83354   0.16729   0.88374   0.00000  Uiso   1.00
C788   C     0.83313   0.16726   0.61625   0.00000  Uiso   1.00
C789   C     0.79680   0.17218   0.90432   0.00000  Uiso   1.00
C790   C     0.86989   0.17197   0.59567   0.00000  Uiso   1.00
C791   C     0.79616   0.16800   0.95079   0.00000  Uiso   1.00
C792   C     0.87052   0.16786   0.54919   0.00000  Uiso   1.00
C793   C     0.83324   0.16848   0.97656   0.00000  Uiso   1.00
C794   C     0.83344   0.16846   0.52342   0.00000  Uiso   1.00
C795   C     0.87016   0.16984   0.95571   0.00000  Uiso   1.00
C796   C     0.79650   0.16986   0.54427   0.00000  Uiso   1.00
C797   C     0.75980   0.16675   0.97271   0.00000  Uiso   1.00
C798   C     0.90688   0.16661   0.52724   0.00000  Uiso   1.00
C799   C     0.76047   0.17548   0.51801   0.00000  Uiso   1.00
C800   C     0.90618   0.17544   0.98195   0.00000  Uiso   1.00
C801   C     0.68776   0.12564   0.75476   0.00000  Uiso   1.00
C802   C     0.97887   0.20949   0.74956   0.00000  Uiso   1.00
C803   C     0.97904   0.12556   0.74577   0.00000  Uiso   1.00
C804   C     0.68775   0.20951   0.75021   0.00000  Uiso   1.00
C805   C     0.95721   0.16739   0.74703   0.00000  Uiso   1.00
C806   C     0.70949   0.16745   0.75306   0.00000  Uiso   1.00
C807   C     0.80938   0.02464   0.71976   0.00000  Uiso   1.00
C808   C     0.85650   0.30881   0.78111   0.00000  Uiso   1.00
C809   C     0.85727   0.02460   0.78026   0.00000  Uiso   1.00
C810   C     0.81017   0.30884   0.71888   0.00000  Uiso   1.00
N811   N     0.83333   0.28402   0.75000   0.00000  Uiso   1.00
N812   N     0.83333   0.04931   0.75000   0.00000  Uiso   1.00
N813   N     0.90724   0.15209   0.88937   0.00000  Uiso   1.00
O814   O     0.91716   0.17074   0.85245   0.00000  Uiso   1.00
O815   O     0.93137   0.12173   0.90841   0.00000  Uiso   1.00
N816   N     0.75943   0.15219   0.61064   0.00000  Uiso   1.00
O817   O     0.74952   0.17088   0.64754   0.00000  Uiso   1.00
O818   O     0.73532   0.12181   0.59165   0.00000  Uiso   1.00
I819   I     0.74573   0.19844   0.86573   0.00000  Uiso   1.00
I820   I     0.92111   0.19765   0.63437   0.00000  Uiso   1.00
I821   I     0.70884   0.12776   0.94795   0.00000  Uiso   1.00
I822   I     0.95788   0.12744   0.55173   0.00000  Uiso   1.00
I823   I     0.71222   0.21574   0.54113   0.00000  Uiso   1.00
I824   I     0.95433   0.21580   0.95885   0.00000  Uiso   1.00
N825   N     0.70777   0.08381   0.76876   0.00000  Uiso   1.00
O826   O     0.72623   0.08157   0.80791   0.00000  Uiso   1.00
O827   O     0.70540   0.04710   0.74424   0.00000  Uiso   1.00
N828   N     0.95893   0.25332   0.75139   0.00000  Uiso   1.00
O829   O     0.93936   0.26931   0.71611   0.00000  Uiso   1.00
O830   O     0.97025   0.28205   0.78270   0.00000  Uiso   1.00
N831   N     0.95912   0.08346   0.73243   0.00000  Uiso   1.00
O832   O     0.94066   0.08054   0.69331   0.00000  Uiso   1.00
O833   O     0.96212   0.04698   0.75726   0.00000  Uiso   1.00
N834   N     0.70762   0.25333   0.74812   0.00000  Uiso   1.00
O835   O     0.72715   0.26955   0.78331   0.00000  Uiso   1.00
O836   O     0.69622   0.28188   0.71667   0.00000  Uiso   1.00
I837   I     0.76913   0.05876   0.67294   0.00000  Uiso   1.00
I838   I     0.89210   0.27577   0.83356   0.00000  Uiso   1.00
I839   I     0.89736   0.05867   0.82723   0.00000  Uiso   1.00
I840   I     0.77467   0.27590   0.66635   0.00000  Uiso   1.00
O841   O     0.10655   0.53958   0.74999   0.00000  Uiso   1.00
O842   O     0.22679   0.46042   0.75001   0.00000  Uiso   1.00
O843   O     0.22679   0.53958   0.75000   0.00000  Uiso   1.00
O844   O     0.10655   0.46042   0.74999   0.00000  Uiso   1.00
C845   C     0.08756   0.50015   0.75138   0.00000  Uiso   1.00
C846   C     0.24579   0.50012   0.74866   0.00000  Uiso   1.00
O847   O     0.16666   0.53960   0.68513   0.00000  Uiso   1.00
O848   O     0.16668   0.46040   0.81487   0.00000  Uiso   1.00
O849   O     0.16668   0.53960   0.81487   0.00000  Uiso   1.00
O850   O     0.16666   0.46040   0.68513   0.00000  Uiso   1.00
C851   C     0.16665   0.50006   0.66464   0.00000  Uiso   1.00
C852   C     0.16667   0.50006   0.83535   0.00000  Uiso   1.00
Cu853  Cu    0.16667   0.54689   0.75000   0.00000  Uiso   1.00
Cu854  Cu    0.16667   0.45311   0.75000   0.00000  Uiso   1.00
C855   C     0.20370   0.49785   0.90939   0.00000  Uiso   1.00
C856   C     0.12964   0.49789   0.59060   0.00000  Uiso   1.00
C857   C     0.16687   0.50062   0.88374   0.00000  Uiso   1.00
C858   C     0.16647   0.50059   0.61625   0.00000  Uiso   1.00
C859   C     0.13013   0.50551   0.90432   0.00000  Uiso   1.00
C860   C     0.20322   0.50530   0.59567   0.00000  Uiso   1.00
C861   C     0.12949   0.50133   0.95079   0.00000  Uiso   1.00
C862   C     0.20386   0.50119   0.54919   0.00000  Uiso   1.00
C863   C     0.16657   0.50182   0.97656   0.00000  Uiso   1.00
C864   C     0.16677   0.50179   0.52342   0.00000  Uiso   1.00
C865   C     0.20350   0.50317   0.95571   0.00000  Uiso   1.00
C866   C     0.12983   0.50319   0.54427   0.00000  Uiso   1.00
C867   C     0.09313   0.50008   0.97271   0.00000  Uiso   1.00
C868   C     0.24021   0.49995   0.52724   0.00000  Uiso   1.00
C869   C     0.09380   0.50882   0.51801   0.00000  Uiso   1.00
C870   C     0.23952   0.50877   0.98195   0.00000  Uiso   1.00
C871   C     0.02109   0.45897   0.75476   0.00000  Uiso   1.00
C872   C     0.31221   0.54283   0.74956   0.00000  Uiso   1.00
C873   C     0.31237   0.45889   0.74577   0.00000  Uiso   1.00
C874   C     0.02108   0.54285   0.75021   0.00000  Uiso   1.00
C875   C     0.29054   0.50072   0.74703   0.00000  Uiso   1.00
C876   C     0.04282   0.50079   0.75306   0.00000  Uiso   1.00
C877   C     0.14271   0.35797   0.71976   0.00000  Uiso   1.00
C878   C     0.18983   0.64214   0.78111   0.00000  Uiso   1.00
C879   C     0.19060   0.35794   0.78026   0.00000  Uiso   1.00
C880   C     0.14351   0.64218   0.71888   0.00000  Uiso   1.00
N881   N     0.16667   0.61736   0.75000   0.00000  Uiso   1.00
N882   N     0.16667   0.38264   0.75000   0.00000  Uiso   1.00
N883   N     0.24058   0.48542   0.88937   0.00000  Uiso   1.00
O884   O     0.25049   0.50407   0.85245   0.00000  Uiso   1.00
O885   O     0.26471   0.45506   0.90841   0.00000  Uiso   1.00
N886   N     0.09277   0.48552   0.61064   0.00000  Uiso   1.00
O887   O     0.08286   0.50421   0.64754   0.00000  Uiso   1.00
O888   O     0.06865   0.45514   0.59165   0.00000  Uiso   1.00
I889   I     0.07906   0.53178   0.86573   0.00000  Uiso   1.00
I890   I     0.25445   0.53099   0.63437   0.00000  Uiso   1.00
I891   I     0.04217   0.46109   0.94795   0.00000  Uiso   1.00
I892   I     0.29121   0.46078   0.55173   0.00000  Uiso   1.00
I893   I     0.04556   0.54907   0.54113   0.00000  Uiso   1.00
I894   I     0.28766   0.54913   0.95885   0.00000  Uiso   1.00
N895   N     0.04111   0.41714   0.76876   0.00000  Uiso   1.00
O896   O     0.05957   0.41490   0.80791   0.00000  Uiso   1.00
O897   O     0.03873   0.38043   0.74424   0.00000  Uiso   1.00
N898   N     0.29226   0.58665   0.75139   0.00000  Uiso   1.00
O899   O     0.27270   0.60265   0.71611   0.00000  Uiso   1.00
O900   O     0.30358   0.61538   0.78270   0.00000  Uiso   1.00
N901   N     0.29246   0.41679   0.73243   0.00000  Uiso   1.00
O902   O     0.27399   0.41387   0.69331   0.00000  Uiso   1.00
O903   O     0.29545   0.38031   0.75726   0.00000  Uiso   1.00
N904   N     0.04096   0.58666   0.74812   0.00000  Uiso   1.00
O905   O     0.06048   0.60288   0.78331   0.00000  Uiso   1.00
O906   O     0.02955   0.61522   0.71667   0.00000  Uiso   1.00
I907   I     0.10246   0.39210   0.67294   0.00000  Uiso   1.00
I908   I     0.22544   0.60911   0.83356   0.00000  Uiso   1.00
I909   I     0.23069   0.39200   0.82723   0.00000  Uiso   1.00
I910   I     0.10800   0.60923   0.66635   0.00000  Uiso   1.00
O911   O     0.43988   0.53958   0.74999   0.00000  Uiso   1.00
O912   O     0.56012   0.46042   0.75001   0.00000  Uiso   1.00
O913   O     0.56012   0.53958   0.75000   0.00000  Uiso   1.00
O914   O     0.43988   0.46042   0.74999   0.00000  Uiso   1.00
C915   C     0.42089   0.50015   0.75138   0.00000  Uiso   1.00
C916   C     0.57912   0.50012   0.74866   0.00000  Uiso   1.00
O917   O     0.49999   0.53960   0.68513   0.00000  Uiso   1.00
O918   O     0.50001   0.46040   0.81487   0.00000  Uiso   1.00
O919   O     0.50001   0.53960   0.81487   0.00000  Uiso   1.00
O920   O     0.49999   0.46040   0.68513   0.00000  Uiso   1.00
C921   C     0.49999   0.50006   0.66464   0.00000  Uiso   1.00
C922   C     0.50000   0.50006   0.83535   0.00000  Uiso   1.00
Cu923  Cu    0.50000   0.54689   0.75000   0.00000  Uiso   1.00
Cu924  Cu    0.50000   0.45311   0.75000   0.00000  Uiso   1.00
C925   C     0.53703   0.49785   0.90939   0.00000  Uiso   1.00
C926   C     0.46297   0.49789   0.59060   0.00000  Uiso   1.00
C927   C     0.50021   0.50062   0.88374   0.00000  Uiso   1.00
C928   C     0.49980   0.50059   0.61625   0.00000  Uiso   1.00
C929   C     0.46347   0.50551   0.90432   0.00000  Uiso   1.00
C930   C     0.53656   0.50530   0.59567   0.00000  Uiso   1.00
C931   C     0.46283   0.50133   0.95079   0.00000  Uiso   1.00
C932   C     0.53719   0.50119   0.54919   0.00000  Uiso   1.00
C933   C     0.49990   0.50182   0.97656   0.00000  Uiso   1.00
C934   C     0.50010   0.50179   0.52342   0.00000  Uiso   1.00
C935   C     0.53683   0.50317   0.95571   0.00000  Uiso   1.00
C936   C     0.46317   0.50319   0.54427   0.00000  Uiso   1.00
C937   C     0.42646   0.50008   0.97271   0.00000  Uiso   1.00
C938   C     0.57355   0.49995   0.52724   0.00000  Uiso   1.00
C939   C     0.42714   0.50882   0.51801   0.00000  Uiso   1.00
C940   C     0.57285   0.50877   0.98195   0.00000  Uiso   1.00
C941   C     0.35443   0.45897   0.75476   0.00000  Uiso   1.00
C942   C     0.64554   0.54283   0.74956   0.00000  Uiso   1.00
C943   C     0.64571   0.45889   0.74577   0.00000  Uiso   1.00
C944   C     0.35441   0.54285   0.75021   0.00000  Uiso   1.00
C945   C     0.62387   0.50072   0.74703   0.00000  Uiso   1.00
C946   C     0.37615   0.50079   0.75306   0.00000  Uiso   1.00
C947   C     0.47604   0.35797   0.71976   0.00000  Uiso   1.00
C948   C     0.52317   0.64214   0.78111   0.00000  Uiso   1.00
C949   C     0.52394   0.35794   0.78026   0.00000  Uiso   1.00
C950   C     0.47684   0.64218   0.71888   0.00000  Uiso   1.00
N951   N     0.50000   0.61736   0.75000   0.00000  Uiso   1.00
N952   N     0.50000   0.38264   0.75000   0.00000  Uiso   1.00
N953   N     0.57391   0.48542   0.88937   0.00000  Uiso   1.00
O954   O     0.58383   0.50407   0.85245   0.00000  Uiso   1.00
O955   O     0.59804   0.45506   0.90841   0.00000  Uiso   1.00
N956   N     0.42610   0.48552   0.61064   0.00000  Uiso   1.00
O957   O     0.41619   0.50421   0.64754   0.00000  Uiso   1.00
O958   O     0.40199   0.45514   0.59165   0.00000  Uiso   1.00
I959   I     0.41239   0.53178   0.86573   0.00000  Uiso   1.00
I960   I     0.58778   0.53099   0.63437   0.00000  Uiso   1.00
I961   I     0.37550   0.46109   0.94795   0.00000  Uiso   1.00
I962   I     0.62454   0.46078   0.55173   0.00000  Uiso   1.00
I963   I     0.37889   0.54907   0.54113   0.00000  Uiso   1.00
I964   I     0.62100   0.54913   0.95885   0.00000  Uiso   1.00
N965   N     0.37444   0.41714   0.76876   0.00000  Uiso   1.00
O966   O     0.39290   0.41490   0.80791   0.00000  Uiso   1.00
O967   O     0.37206   0.38043   0.74424   0.00000  Uiso   1.00
N968   N     0.62559   0.58665   0.75139   0.00000  Uiso   1.00
O969   O     0.60603   0.60265   0.71611   0.00000  Uiso   1.00
O970   O     0.63692   0.61538   0.78270   0.00000  Uiso   1.00
N971   N     0.62579   0.41679   0.73243   0.00000  Uiso   1.00
O972   O     0.60733   0.41387   0.69331   0.00000  Uiso   1.00
O973   O     0.62878   0.38031   0.75726   0.00000  Uiso   1.00
N974   N     0.37429   0.58666   0.74812   0.00000  Uiso   1.00
O975   O     0.39381   0.60288   0.78331   0.00000  Uiso   1.00
O976   O     0.36288   0.61522   0.71667   0.00000  Uiso   1.00
I977   I     0.43579   0.39210   0.67294   0.00000  Uiso   1.00
I978   I     0.55877   0.60911   0.83356   0.00000  Uiso   1.00
I979   I     0.56403   0.39200   0.82723   0.00000  Uiso   1.00
I980   I     0.44133   0.60923   0.66635   0.00000  Uiso   1.00
O981   O     0.77321   0.53958   0.74999   0.00000  Uiso   1.00
O982   O     0.89345   0.46042   0.75001   0.00000  Uiso   1.00
O983   O     0.89345   0.53958   0.75000   0.00000  Uiso   1.00
O984   O     0.77321   0.46042   0.74999   0.00000  Uiso   1.00
C985   C     0.75422   0.50015   0.75138   0.00000  Uiso   1.00
C986   C     0.91245   0.50012   0.74866   0.00000  Uiso   1.00
O987   O     0.83332   0.53960   0.68513   0.00000  Uiso   1.00
O988   O     0.83334   0.46040   0.81487   0.00000  Uiso   1.00
O989   O     0.83334   0.53960   0.81487   0.00000  Uiso   1.00
O990   O     0.83332   0.46040   0.68513   0.00000  Uiso   1.00
C991   C     0.83332   0.50006   0.66464   0.00000  Uiso   1.00
C992   C     0.83334   0.50006   0.83535   0.00000  Uiso   1.00
Cu993  Cu    0.83333   0.54689   0.75000   0.00000  Uiso   1.00
Cu994  Cu    0.83333   0.45311   0.75000   0.00000  Uiso   1.00
C995   C     0.87037   0.49785   0.90939   0.00000  Uiso   1.00
C996   C     0.79630   0.49789   0.59060   0.00000  Uiso   1.00
C997   C     0.83354   0.50062   0.88374   0.00000  Uiso   1.00
C998   C     0.83313   0.50059   0.61625   0.00000  Uiso   1.00
C999   C     0.79680   0.50551   0.90432   0.00000  Uiso   1.00
C1000  C     0.86989   0.50530   0.59567   0.00000  Uiso   1.00
C1001  C     0.79616   0.50133   0.95079   0.00000  Uiso   1.00
C1002  C     0.87052   0.50119   0.54919   0.00000  Uiso   1.00
C1003  C     0.83324   0.50182   0.97656   0.00000  Uiso   1.00
C1004  C     0.83344   0.50179   0.52342   0.00000  Uiso   1.00
C1005  C     0.87016   0.50317   0.95571   0.00000  Uiso   1.00
C1006  C     0.79650   0.50319   0.54427   0.00000  Uiso   1.00
C1007  C     0.75980   0.50008   0.97271   0.00000  Uiso   1.00
C1008  C     0.90688   0.49995   0.52724   0.00000  Uiso   1.00
C1009  C     0.76047   0.50882   0.51801   0.00000  Uiso   1.00
C1010  C     0.90618   0.50877   0.98195   0.00000  Uiso   1.00
C1011  C     0.68776   0.45897   0.75476   0.00000  Uiso   1.00
C1012  C     0.97887   0.54283   0.74956   0.00000  Uiso   1.00
C1013  C     0.97904   0.45889   0.74577   0.00000  Uiso   1.00
C1014  C     0.68775   0.54285   0.75021   0.00000  Uiso   1.00
C1015  C     0.95721   0.50072   0.74703   0.00000  Uiso   1.00
C1016  C     0.70949   0.50079   0.75306   0.00000  Uiso   1.00
C1017  C     0.80938   0.35797   0.71976   0.00000  Uiso   1.00
C1018  C     0.85650   0.64214   0.78111   0.00000  Uiso   1.00
C1019  C     0.85727   0.35794   0.78026   0.00000  Uiso   1.00
C1020  C     0.81017   0.64218   0.71888   0.00000  Uiso   1.00
N1021  N     0.83333   0.61736   0.75000   0.00000  Uiso   1.00
N1022  N     0.83333   0.38264   0.75000   0.00000  Uiso   1.00
N1023  N     0.90724   0.48542   0.88937   0.00000  Uiso   1.00
O1024  O     0.91716   0.50407   0.85245   0.00000  Uiso   1.00
O1025  O     0.93137   0.45506   0.90841   0.00000  Uiso   1.00
N1026  N     0.75943   0.48552   0.61064   0.00000  Uiso   1.00
O1027  O     0.74952   0.50421   0.64754   0.00000  Uiso   1.00
O1028  O     0.73532   0.45514   0.59165   0.00000  Uiso   1.00
I1029  I     0.74573   0.53178   0.86573   0.00000  Uiso   1.00
I1030  I     0.92111   0.53099   0.63437   0.00000  Uiso   1.00
I1031  I     0.70884   0.46109   0.94795   0.00000  Uiso   1.00
I1032  I     0.95788   0.46078   0.55173   0.00000  Uiso   1.00
I1033  I     0.71222   0.54907   0.54113   0.00000  Uiso   1.00
I1034  I     0.95433   0.54913   0.95885   0.00000  Uiso   1.00
N1035  N     0.70777   0.41714   0.76876   0.00000  Uiso   1.00
O1036  O     0.72623   0.41490   0.80791   0.00000  Uiso   1.00
O1037  O     0.70540   0.38043   0.74424   0.00000  Uiso   1.00
N1038  N     0.95893   0.58665   0.75139   0.00000  Uiso   1.00
O1039  O     0.93936   0.60265   0.71611   0.00000  Uiso   1.00
O1040  O     0.97025   0.61538   0.78270   0.00000  Uiso   1.00
N1041  N     0.95912   0.41679   0.73243   0.00000  Uiso   1.00
O1042  O     0.94066   0.41387   0.69331   0.00000  Uiso   1.00
O1043  O     0.96212   0.38031   0.75726   0.00000  Uiso   1.00
N1044  N     0.70762   0.58666   0.74812   0.00000  Uiso   1.00
O1045  O     0.72715   0.60288   0.78331   0.00000  Uiso   1.00
O1046  O     0.69622   0.61522   0.71667   0.00000  Uiso   1.00
I1047  I     0.76913   0.39210   0.67294   0.00000  Uiso   1.00
I1048  I     0.89210   0.60911   0.83356   0.00000  Uiso   1.00
I1049  I     0.89736   0.39200   0.82723   0.00000  Uiso   1.00
I1050  I     0.77467   0.60923   0.66635   0.00000  Uiso   1.00
O1051  O     0.10655   0.87291   0.74999   0.00000  Uiso   1.00
O1052  O     0.22679   0.79375   0.75001   0.00000  Uiso   1.00
O1053  O     0.22679   0.87291   0.75000   0.00000  Uiso   1.00
O1054  O     0.10655   0.79375   0.74999   0.00000  Uiso   1.00
C1055  C     0.08756   0.83348   0.75138   0.00000  Uiso   1.00
C1056  C     0.24579   0.83346   0.74866   0.00000  Uiso   1.00
O1057  O     0.16666   0.87293   0.68513   0.00000  Uiso   1.00
O1058  O     0.16668   0.79373   0.81487   0.00000  Uiso   1.00
O1059  O     0.16668   0.87293   0.81487   0.00000  Uiso   1.00
O1060  O     0.16666   0.79373   0.68513   0.00000  Uiso   1.00
C1061  C     0.16665   0.83339   0.66464   0.00000  Uiso   1.00
C1062  C     0.16667   0.83339   0.83535   0.00000  Uiso   1.00
Cu1063 Cu    0.16667   0.88022   0.75000   0.00000  Uiso   1.00
Cu1064 Cu    0.16667   0.78645   0.75000   0.00000  Uiso   1.00
C1065  C     0.20370   0.83119   0.90939   0.00000  Uiso   1.00
C1066  C     0.12964   0.83123   0.59060   0.00000  Uiso   1.00
C1067  C     0.16687   0.83396   0.88374   0.00000  Uiso   1.00
C1068  C     0.16647   0.83393   0.61625   0.00000  Uiso   1.00
C1069  C     0.13013   0.83885   0.90432   0.00000  Uiso   1.00
C1070  C     0.20322   0.83863   0.59567   0.00000  Uiso   1.00
C1071  C     0.12949   0.83466   0.95079   0.00000  Uiso   1.00
C1072  C     0.20386   0.83452   0.54919   0.00000  Uiso   1.00
C1073  C     0.16657   0.83515   0.97656   0.00000  Uiso   1.00
C1074  C     0.16677   0.83513   0.52342   0.00000  Uiso   1.00
C1075  C     0.20350   0.83651   0.95571   0.00000  Uiso   1.00
C1076  C     0.12983   0.83653   0.54427   0.00000  Uiso   1.00
C1077  C     0.09313   0.83342   0.97271   0.00000  Uiso   1.00
C1078  C     0.24021   0.83328   0.52724   0.00000  Uiso   1.00
C1079  C     0.09380   0.84215   0.51801   0.00000  Uiso   1.00
C1080  C     0.23952   0.84211   0.98195   0.00000  Uiso   1.00
C1081  C     0.02109   0.79231   0.75476   0.00000  Uiso   1.00
C1082  C     0.31221   0.87616   0.74956   0.00000  Uiso   1.00
C1083  C     0.31237   0.79223   0.74577   0.00000  Uiso   1.00
C1084  C     0.02108   0.87618   0.75021   0.00000  Uiso   1.00
C1085  C     0.29054   0.83405   0.74703   0.00000  Uiso   1.00
C1086  C     0.04282   0.83412   0.75306   0.00000  Uiso   1.00
C1087  C     0.14271   0.69131   0.71976   0.00000  Uiso   1.00
C1088  C     0.18983   0.97547   0.78111   0.00000  Uiso   1.00
C1089  C     0.19060   0.69127   0.78026   0.00000  Uiso   1.00
C1090  C     0.14351   0.97551   0.71888   0.00000  Uiso   1.00
N1091  N     0.16667   0.95069   0.75000   0.00000  Uiso   1.00
N1092  N     0.16667   0.71598   0.75000   0.00000  Uiso   1.00
N1093  N     0.24058   0.81876   0.88937   0.00000  Uiso   1.00
O1094  O     0.25049   0.83740   0.85245   0.00000  Uiso   1.00
O1095  O     0.26471   0.78840   0.90841   0.00000  Uiso   1.00
N1096  N     0.09277   0.81886   0.61064   0.00000  Uiso   1.00
O1097  O     0.08286   0.83755   0.64754   0.00000  Uiso   1.00
O1098  O     0.06865   0.78847   0.59165   0.00000  Uiso   1.00
I1099  I     0.07906   0.86511   0.86573   0.00000  Uiso   1.00
I1100  I     0.25445   0.86432   0.63437   0.00000  Uiso   1.00
I1101  I     0.04217   0.79442   0.94795   0.00000  Uiso   1.00
I1102  I     0.29121   0.79411   0.55173   0.00000  Uiso   1.00
I1103  I     0.04556   0.88241   0.54113   0.00000  Uiso   1.00
I1104  I     0.28766   0.88247   0.95885   0.00000  Uiso   1.00
N1105  N     0.04111   0.75047   0.76876   0.00000  Uiso   1.00
O1106  O     0.05957   0.74824   0.80791   0.00000  Uiso   1.00
O1107  O     0.03873   0.71376   0.74424   0.00000  Uiso   1.00
N1108  N     0.29226   0.91998   0.75139   0.00000  Uiso   1.00
O1109  O     0.27270   0.93598   0.71611   0.00000  Uiso   1.00
O1110  O     0.30358   0.94872   0.78270   0.00000  Uiso   1.00
N1111  N     0.29246   0.75012   0.73243   0.00000  Uiso   1.00
O1112  O     0.27399   0.74720   0.69331   0.00000  Uiso   1.00
O1113  O     0.29545   0.71365   0.75726   0.00000  Uiso   1.00
N1114  N     0.04096   0.92000   0.74812   0.00000  Uiso   1.00
O1115  O     0.06048   0.93621   0.78331   0.00000  Uiso   1.00
O1116  O     0.02955   0.94855   0.71667   0.00000  Uiso   1.00
I1117  I     0.10246   0.72543   0.67294   0.00000  Uiso   1.00
I1118  I     0.22544   0.94244   0.83356   0.00000  Uiso   1.00
I1119  I     0.23069   0.72534   0.82723   0.00000  Uiso   1.00
I1120  I     0.10800   0.94256   0.66635   0.00000  Uiso   1.00
O1121  O     0.43988   0.87291   0.74999   0.00000  Uiso   1.00
O1122  O     0.56012   0.79375   0.75001   0.00000  Uiso   1.00
O1123  O     0.56012   0.87291   0.75000   0.00000  Uiso   1.00
O1124  O     0.43988   0.79375   0.74999   0.00000  Uiso   1.00
C1125  C     0.42089   0.83348   0.75138   0.00000  Uiso   1.00
C1126  C     0.57912   0.83346   0.74866   0.00000  Uiso   1.00
O1127  O     0.49999   0.87293   0.68513   0.00000  Uiso   1.00
O1128  O     0.50001   0.79373   0.81487   0.00000  Uiso   1.00
O1129  O     0.50001   0.87293   0.81487   0.00000  Uiso   1.00
O1130  O     0.49999   0.79373   0.68513   0.00000  Uiso   1.00
C1131  C     0.49999   0.83339   0.66464   0.00000  Uiso   1.00
C1132  C     0.50000   0.83339   0.83535   0.00000  Uiso   1.00
Cu1133 Cu    0.50000   0.88022   0.75000   0.00000  Uiso   1.00
Cu1134 Cu    0.50000   0.78645   0.75000   0.00000  Uiso   1.00
C1135  C     0.53703   0.83119   0.90939   0.00000  Uiso   1.00
C1136  C     0.46297   0.83123   0.59060   0.00000  Uiso   1.00
C1137  C     0.50021   0.83396   0.88374   0.00000  Uiso   1.00
C1138  C     0.49980   0.83393   0.61625   0.00000  Uiso   1.00
C1139  C     0.46347   0.83885   0.90432   0.00000  Uiso   1.00
C1140  C     0.53656   0.83863   0.59567   0.00000  Uiso   1.00
C1141  C     0.46283   0.83466   0.95079   0.00000  Uiso   1.00
C1142  C     0.53719   0.83452   0.54919   0.00000  Uiso   1.00
C1143  C     0.49990   0.83515   0.97656   0.00000  Uiso   1.00
C1144  C     0.50010   0.83513   0.52342   0.00000  Uiso   1.00
C1145  C     0.53683   0.83651   0.95571   0.00000  Uiso   1.00
C1146  C     0.46317   0.83653   0.54427   0.00000  Uiso   1.00
C1147  C     0.42646   0.83342   0.97271   0.00000  Uiso   1.00
C1148  C     0.57355   0.83328   0.52724   0.00000  Uiso   1.00
C1149  C     0.42714   0.84215   0.51801   0.00000  Uiso   1.00
C1150  C     0.57285   0.84211   0.98195   0.00000  Uiso   1.00
C1151  C     0.35443   0.79231   0.75476   0.00000  Uiso   1.00
C1152  C     0.64554   0.87616   0.74956   0.00000  Uiso   1.00
C1153  C     0.64571   0.79223   0.74577   0.00000  Uiso   1.00
C1154  C     0.35441   0.87618   0.75021   0.00000  Uiso   1.00
C1155  C     0.62387   0.83405   0.74703   0.00000  Uiso   1.00
C1156  C     0.37615   0.83412   0.75306   0.00000  Uiso   1.00
C1157  C     0.47604   0.69131   0.71976   0.00000  Uiso   1.00
C1158  C     0.52317   0.97547   0.78111   0.00000  Uiso   1.00
C1159  C     0.52394   0.69127   0.78026   0.00000  Uiso   1.00
C1160  C     0.47684   0.97551   0.71888   0.00000  Uiso   1.00
N1161  N     0.50000   0.95069   0.75000   0.00000  Uiso   1.00
N1162  N     0.50000   0.71598   0.75000   0.00000  Uiso   1.00
N1163  N     0.57391   0.81876   0.88937   0.00000  Uiso   1.00
O1164  O     0.58383   0.83740   0.85245   0.00000  Uiso   1.00
O1165  O     0.59804   0.78840   0.90841   0.00000  Uiso   1.00
N1166  N     0.42610   0.81886   0.61064   0.00000  Uiso   1.00
O1167  O     0.41619   0.83755   0.64754   0.00000  Uiso   1.00
O1168  O     0.40199   0.78847   0.59165   0.00000  Uiso   1.00
I1169  I     0.41239   0.86511   0.86573   0.00000  Uiso   1.00
I1170  I     0.58778   0.86432   0.63437   0.00000  Uiso   1.00
I1171  I     0.37550   0.79442   0.94795   0.00000  Uiso   1.00
I1172  I     0.62454   0.79411   0.55173   0.00000  Uiso   1.00
I1173  I     0.37889   0.88241   0.54113   0.00000  Uiso   1.00
I1174  I     0.62100   0.88247   0.95885   0.00000  Uiso   1.00
N1175  N     0.37444   0.75047   0.76876   0.00000  Uiso   1.00
O1176  O     0.39290   0.74824   0.80791   0.00000  Uiso   1.00
O1177  O     0.37206   0.71376   0.74424   0.00000  Uiso   1.00
N1178  N     0.62559   0.91998   0.75139   0.00000  Uiso   1.00
O1179  O     0.60603   0.93598   0.71611   0.00000  Uiso   1.00
O1180  O     0.63692   0.94872   0.78270   0.00000  Uiso   1.00
N1181  N     0.62579   0.75012   0.73243   0.00000  Uiso   1.00
O1182  O     0.60733   0.74720   0.69331   0.00000  Uiso   1.00
O1183  O     0.62878   0.71365   0.75726   0.00000  Uiso   1.00
N1184  N     0.37429   0.92000   0.74812   0.00000  Uiso   1.00
O1185  O     0.39381   0.93621   0.78331   0.00000  Uiso   1.00
O1186  O     0.36288   0.94855   0.71667   0.00000  Uiso   1.00
I1187  I     0.43579   0.72543   0.67294   0.00000  Uiso   1.00
I1188  I     0.55877   0.94244   0.83356   0.00000  Uiso   1.00
I1189  I     0.56403   0.72534   0.82723   0.00000  Uiso   1.00
I1190  I     0.44133   0.94256   0.66635   0.00000  Uiso   1.00
O1191  O     0.77321   0.87291   0.74999   0.00000  Uiso   1.00
O1192  O     0.89345   0.79375   0.75001   0.00000  Uiso   1.00
O1193  O     0.89345   0.87291   0.75000   0.00000  Uiso   1.00
O1194  O     0.77321   0.79375   0.74999   0.00000  Uiso   1.00
C1195  C     0.75422   0.83348   0.75138   0.00000  Uiso   1.00
C1196  C     0.91245   0.83346   0.74866   0.00000  Uiso   1.00
O1197  O     0.83332   0.87293   0.68513   0.00000  Uiso   1.00
O1198  O     0.83334   0.79373   0.81487   0.00000  Uiso   1.00
O1199  O     0.83334   0.87293   0.81487   0.00000  Uiso   1.00
O1200  O     0.83332   0.79373   0.68513   0.00000  Uiso   1.00
C1201  C     0.83332   0.83339   0.66464   0.00000  Uiso   1.00
C1202  C     0.83334   0.83339   0.83535   0.00000  Uiso   1.00
Cu1203 Cu    0.83333   0.88022   0.75000   0.00000  Uiso   1.00
Cu1204 Cu    0.83333   0.78645   0.75000   0.00000  Uiso   1.00
C1205  C     0.87037   0.83119   0.90939   0.00000  Uiso   1.00
C1206  C     0.79630   0.83123   0.59060   0.00000  Uiso   1.00
C1207  C     0.83354   0.83396   0.88374   0.00000  Uiso   1.00
C1208  C     0.83313   0.83393   0.61625   0.00000  Uiso   1.00
C1209  C     0.79680   0.83885   0.90432   0.00000  Uiso   1.00
C1210  C     0.86989   0.83863   0.59567   0.00000  Uiso   1.00
C1211  C     0.79616   0.83466   0.95079   0.00000  Uiso   1.00
C1212  C     0.87052   0.83452   0.54919   0.00000  Uiso   1.00
C1213  C     0.83324   0.83515   0.97656   0.00000  Uiso   1.00
C1214  C     0.83344   0.83513   0.52342   0.00000  Uiso   1.00
C1215  C     0.87016   0.83651   0.95571   0.00000  Uiso   1.00
C1216  C     0.79650   0.83653   0.54427   0.00000  Uiso   1.00
C1217  C     0.75980   0.83342   0.97271   0.00000  Uiso   1.00
C1218  C     0.90688   0.83328   0.52724   0.00000  Uiso   1.00
C1219  C     0.76047   0.84215   0.51801   0.00000  Uiso   1.00
C1220  C     0.90618   0.84211   0.98195   0.00000  Uiso   1.00
C1221  C     0.68776   0.79231   0.75476   0.00000  Uiso   1.00
C1222  C     0.97887   0.87616   0.74956   0.00000  Uiso   1.00
C1223  C     0.97904   0.79223   0.74577   0.00000  Uiso   1.00
C1224  C     0.68775   0.87618   0.75021   0.00000  Uiso   1.00
C1225  C     0.95721   0.83405   0.74703   0.00000  Uiso   1.00
C1226  C     0.70949   0.83412   0.75306   0.00000  Uiso   1.00
C1227  C     0.80938   0.69131   0.71976   0.00000  Uiso   1.00
C1228  C     0.85650   0.97547   0.78111   0.00000  Uiso   1.00
C1229  C     0.85727   0.69127   0.78026   0.00000  Uiso   1.00
C1230  C     0.81017   0.97551   0.71888   0.00000  Uiso   1.00
N1231  N     0.83333   0.95069   0.75000   0.00000  Uiso   1.00
N1232  N     0.83333   0.71598   0.75000   0.00000  Uiso   1.00
N1233  N     0.90724   0.81876   0.88937   0.00000  Uiso   1.00
O1234  O     0.91716   0.83740   0.85245   0.00000  Uiso   1.00
O1235  O     0.93137   0.78840   0.90841   0.00000  Uiso   1.00
N1236  N     0.75943   0.81886   0.61064   0.00000  Uiso   1.00
O1237  O     0.74952   0.83755   0.64754   0.00000  Uiso   1.00
O1238  O     0.73532   0.78847   0.59165   0.00000  Uiso   1.00
I1239  I     0.74573   0.86511   0.86573   0.00000  Uiso   1.00
I1240  I     0.92111   0.86432   0.63437   0.00000  Uiso   1.00
I1241  I     0.70884   0.79442   0.94795   0.00000  Uiso   1.00
I1242  I     0.95788   0.79411   0.55173   0.00000  Uiso   1.00
I1243  I     0.71222   0.88241   0.54113   0.00000  Uiso   1.00
I1244  I     0.95433   0.88247   0.95885   0.00000  Uiso   1.00
N1245  N     0.70777   0.75047   0.76876   0.00000  Uiso   1.00
O1246  O     0.72623   0.74824   0.80791   0.00000  Uiso   1.00
O1247  O     0.70540   0.71376   0.74424   0.00000  Uiso   1.00
N1248  N     0.95893   0.91998   0.75139   0.00000  Uiso   1.00
O1249  O     0.93936   0.93598   0.71611   0.00000  Uiso   1.00
O1250  O     0.97025   0.94872   0.78270   0.00000  Uiso   1.00
N1251  N     0.95912   0.75012   0.73243   0.00000  Uiso   1.00
O1252  O     0.94066   0.74720   0.69331   0.00000  Uiso   1.00
O1253  O     0.96212   0.71365   0.75726   0.00000  Uiso   1.00
N1254  N     0.70762   0.92000   0.74812   0.00000  Uiso   1.00
O1255  O     0.72715   0.93621   0.78331   0.00000  Uiso   1.00
O1256  O     0.69622   0.94855   0.71667   0.00000  Uiso   1.00
I1257  I     0.76913   0.72543   0.67294   0.00000  Uiso   1.00
I1258  I     0.89210   0.94244   0.83356   0.00000  Uiso   1.00
I1259  I     0.89736   0.72534   0.82723   0.00000  Uiso   1.00
I1260  I     0.77467   0.94256   0.66635   0.00000  Uiso   1.00
loop_
_geom_bond_atom_site_label_1
_geom_bond_atom_site_label_2
_geom_bond_distance
_geom_bond_site_symmetry_2
_ccdc_geom_bond_type
O1     C5      1.311   .     A
O1     Cu13    2.006   .     S
O2     C6      1.318   .     A
O2     Cu14    2.006   .     S
O3     Cu13    2.005   .     S
O3     C6      1.311   .     A
O4     Cu14    2.005   .     S
O4     C5      1.318   .     A
C5     C36     1.488   .     S
C6     C35     1.488   .     S
O7     C11     1.307   .     A
O7     Cu13    1.972   .     S
O8     Cu14    1.972   .     S
O8     C12     1.309   .     A
O9     C12     1.306   .     A
O9     Cu13    1.972   .     S
O10    C11     1.309   .     A
O10    Cu14    1.972   .     S
C11    C18     1.462   .     S
C12    C17     1.462   .     S
Cu13   Cu14    2.728   .     S
Cu13   N41     2.050   .     S
Cu14   N42     2.050   .     S
C15    N43     1.442   .     S
C15    C17     1.410   .     A
C15    C25     1.409   .     A
C16    C18     1.410   .     A
C16    N46     1.442   .     S
C16    C26     1.409   .     A
C17    C19     1.408   .     A
C18    C20     1.408   .     A
C19    I49     2.140   .     S
C19    C21     1.411   .     A
C20    C22     1.411   .     A
C20    I50     2.140   .     S
C21    C27     1.410   .     A
C21    C23     1.417   .     A
C22    C28     1.411   .     A
C22    C24     1.417   .     A
C23    C25     1.411   .     A
C23    C654    1.416   .     S
C24    C26     1.411   .     A
C24    C653    1.416   1_554 S
C25    C30     1.404   .     A
C26    C29     1.404   .     A
C27    I51     2.135   .     S
C27    C659    1.391   .     S
C28    I52     2.135   .     S
C28    C660    1.391   1_554 S
C29    I53     2.133   .     S
C29    C657    1.391   1_554 S
C30    I54     2.133   .     S
C30    C658    1.391   .     S
C31    C36     1.417   .     A
C31    N55     1.438   .     S
C31    C173    1.405   1_455 S
C32    C35     1.420   .     A
C32    N58     1.439   .     S
C32    C104    1.399   .     S
C33    C35     1.417   .     A
C33    N61     1.438   .     S
C33    C101    1.405   .     S
C34    N64     1.439   .     S
C34    C36     1.420   .     A
C34    C172    1.399   1_455 S
C37    I67     2.132   .     S
C37    N42     1.377   .     A
C37    C460    1.430   1_545 S
C38    N41     1.382   .     A
C38    I68     2.147   .     S
C38    C249    1.430   .     S
C39    I69     2.132   .     S
C39    N42     1.377   .     A
C39    C458    1.430   1_545 S
C40    I70     2.146   .     S
C40    N41     1.382   .     A
C40    C247    1.430   .     S
N43    O45     1.303   .     A
N43    O44     1.300   .     A
N46    O47     1.300   .     A
N46    O48     1.303   .     A
N55    O56     1.301   .     A
N55    O57     1.300   .     A
N58    O60     1.301   .     A
N58    O59     1.301   .     A
N61    O62     1.302   .     A
N61    O63     1.300   .     A
N64    O65     1.301   .     A
N64    O66     1.301   .     A
O71    C75     1.311   .     A
O71    Cu83    2.006   .     S
O72    C76     1.318   .     A
O72    Cu84    2.006   .     S
O73    Cu83    2.005   .     S
O73    C76     1.311   .     A
O74    Cu84    2.005   .     S
O74    C75     1.318   .     A
C75    C106    1.488   .     S
C76    C105    1.488   .     S
O77    C81     1.307   .     A
O77    Cu83    1.972   .     S
O78    Cu84    1.972   .     S
O78    C82     1.309   .     A
O79    C82     1.306   .     A
O79    Cu83    1.972   .     S
O80    C81     1.309   .     A
O80    Cu84    1.972   .     S
C81    C88     1.462   .     S
C82    C87     1.462   .     S
Cu83   Cu84    2.728   .     S
Cu83   N111    2.050   .     S
Cu84   N112    2.050   .     S
C85    N113    1.442   .     S
C85    C87     1.410   .     A
C85    C95     1.409   .     A
C86    C88     1.410   .     A
C86    N116    1.442   .     S
C86    C96     1.409   .     A
C87    C89     1.408   .     A
C88    C90     1.408   .     A
C89    I119    2.140   .     S
C89    C91     1.411   .     A
C90    C92     1.411   .     A
C90    I120    2.140   .     S
C91    C97     1.410   .     A
C91    C93     1.417   .     A
C92    C98     1.411   .     A
C92    C94     1.417   .     A
C93    C95     1.411   .     A
C93    C724    1.416   .     S
C94    C96     1.411   .     A
C94    C723    1.416   1_554 S
C95    C100    1.404   .     A
C96    C99     1.404   .     A
C97    I121    2.135   .     S
C97    C729    1.391   .     S
C98    I122    2.135   .     S
C98    C730    1.391   1_554 S
C99    I123    2.133   .     S
C99    C727    1.391   1_554 S
C100   I124    2.133   .     S
C100   C728    1.391   .     S
C101   C106    1.417   .     A
C101   N125    1.438   .     S
C102   C105    1.420   .     A
C102   N128    1.439   .     S
C102   C174    1.399   .     S
C103   C105    1.417   .     A
C103   N131    1.438   .     S
C103   C171    1.405   .     S
C104   N134    1.439   .     S
C104   C106    1.420   .     A
C107   I137    2.132   .     S
C107   N112    1.377   .     A
C107   C530    1.430   1_545 S
C108   N111    1.382   .     A
C108   I138    2.147   .     S
C108   C319    1.430   .     S
C109   I139    2.132   .     S
C109   N112    1.377   .     A
C109   C528    1.430   1_545 S
C110   I140    2.146   .     S
C110   N111    1.382   .     A
C110   C317    1.430   .     S
N113   O115    1.303   .     A
N113   O114    1.300   .     A
N116   O117    1.300   .     A
N116   O118    1.303   .     A
N125   O126    1.301   .     A
N125   O127    1.300   .     A
N128   O130    1.301   .     A
N128   O129    1.301   .     A
N131   O132    1.302   .     A
N131   O133    1.300   .     A
N134   O135    1.301   .     A
N134   O136    1.301   .     A
O141   C145    1.311   .     A
O141   Cu153   2.006   .     S
O142   C146    1.318   .     A
O142   Cu154   2.006   .     S
O143   Cu153   2.005   .     S
O143   C146    1.311   .     A
O144   Cu154   2.005   .     S
O144   C145    1.318   .     A
C145   C176    1.488   .     S
C146   C175    1.488   .     S
O147   C151    1.307   .     A
O147   Cu153   1.972   .     S
O148   Cu154   1.972   .     S
O148   C152    1.309   .     A
O149   C152    1.306   .     A
O149   Cu153   1.972   .     S
O150   C151    1.309   .     A
O150   Cu154   1.972   .     S
C151   C158    1.462   .     S
C152   C157    1.462   .     S
Cu153  Cu154   2.728   .     S
Cu153  N181    2.050   .     S
Cu154  N182    2.050   .     S
C155   N183    1.442   .     S
C155   C157    1.410   .     A
C155   C165    1.409   .     A
C156   C158    1.410   .     A
C156   N186    1.442   .     S
C156   C166    1.409   .     A
C157   C159    1.408   .     A
C158   C160    1.408   .     A
C159   I189    2.140   .     S
C159   C161    1.411   .     A
C160   C162    1.411   .     A
C160   I190    2.140   .     S
C161   C167    1.410   .     A
C161   C163    1.417   .     A
C162   C168    1.411   .     A
C162   C164    1.417   .     A
C163   C165    1.411   .     A
C163   C794    1.416   .     S
C164   C166    1.411   .     A
C164   C793    1.416   1_554 S
C165   C170    1.404   .     A
C166   C169    1.404   .     A
C167   I191    2.135   .     S
C167   C799    1.391   .     S
C168   I192    2.135   .     S
C168   C800    1.391   1_554 S
C169   I193    2.133   .     S
C169   C797    1.391   1_554 S
C170   I194    2.133   .     S
C170   C798    1.391   .     S
C171   C176    1.417   .     A
C171   N195    1.438   .     S
C172   C175    1.420   .     A
C172   N198    1.439   .     S
C172   C34     1.399   1_655 S
C173   C175    1.417   .     A
C173   N201    1.438   .     S
C173   C31     1.405   1_655 S
C174   N204    1.439   .     S
C174   C176    1.420   .     A
C177   I207    2.132   .     S
C177   N182    1.377   .     A
C177   C600    1.430   1_545 S
C178   N181    1.382   .     A
C178   I208    2.147   .     S
C178   C389    1.430   .     S
C179   I209    2.132   .     S
C179   N182    1.377   .     A
C179   C598    1.430   1_545 S
C180   I210    2.146   .     S
C180   N181    1.382   .     A
C180   C387    1.430   .     S
N183   O185    1.303   .     A
N183   O184    1.300   .     A
N186   O187    1.300   .     A
N186   O188    1.303   .     A
N195   O196    1.301   .     A
N195   O197    1.300   .     A
N198   O200    1.301   .     A
N198   O199    1.301   .     A
N201   O202    1.302   .     A
N201   O203    1.300   .     A
N204   O205    1.301   .     A
N204   O206    1.301   .     A
O211   C215    1.311   .     A
O211   Cu223   2.006   .     S
O212   C216    1.318   .     A
O212   Cu224   2.006   .     S
O213   Cu223   2.005   .     S
O213   C216    1.311   .     A
O214   Cu224   2.005   .     S
O214   C215    1.318   .     A
C215   C246    1.488   .     S
C216   C245    1.488   .     S
O217   C221    1.307   .     A
O217   Cu223   1.972   .     S
O218   Cu224   1.972   .     S
O218   C222    1.309   .     A
O219   C222    1.306   .     A
O219   Cu223   1.972   .     S
O220   C221    1.309   .     A
O220   Cu224   1.972   .     S
C221   C228    1.462   .     S
C222   C227    1.462   .     S
Cu223  Cu224   2.728   .     S
Cu223  N251    2.050   .     S
Cu224  N252    2.050   .     S
C225   N253    1.442   .     S
C225   C227    1.410   .     A
C225   C235    1.409   .     A
C226   C228    1.410   .     A
C226   N256    1.442   .     S
C226   C236    1.409   .     A
C227   C229    1.408   .     A
C228   C230    1.408   .     A
C229   I259    2.140   .     S
C229   C231    1.411   .     A
C230   C232    1.411   .     A
C230   I260    2.140   .     S
C231   C237    1.410   .     A
C231   C233    1.417   .     A
C232   C238    1.411   .     A
C232   C234    1.417   .     A
C233   C235    1.411   .     A
C233   C864    1.416   .     S
C234   C236    1.411   .     A
C234   C863    1.416   1_554 S
C235   C240    1.404   .     A
C236   C239    1.404   .     A
C237   I261    2.135   .     S
C237   C869    1.391   .     S
C238   I262    2.135   .     S
C238   C870    1.391   1_554 S
C239   I263    2.133   .     S
C239   C867    1.391   1_554 S
C240   I264    2.133   .     S
C240   C868    1.391   .     S
C241   C246    1.417   .     A
C241   N265    1.438   .     S
C241   C383    1.405   1_455 S
C242   C245    1.420   .     A
C242   N268    1.439   .     S
C242   C314    1.399   .     S
C243   C245    1.417   .     A
C243   N271    1.438   .     S
C243   C311    1.405   .     S
C244   N274    1.439   .     S
C244   C246    1.420   .     A
C244   C382    1.399   1_455 S
C247   I277    2.132   .     S
C247   N252    1.377   .     A
C248   N251    1.382   .     A
C248   I278    2.147   .     S
C248   C459    1.430   .     S
C249   I279    2.132   .     S
C249   N252    1.377   .     A
C250   I280    2.146   .     S
C250   N251    1.382   .     A
C250   C457    1.430   .     S
N253   O255    1.303   .     A
N253   O254    1.300   .     A
N256   O257    1.300   .     A
N256   O258    1.303   .     A
N265   O266    1.301   .     A
N265   O267    1.300   .     A
N268   O270    1.301   .     A
N268   O269    1.301   .     A
N271   O272    1.302   .     A
N271   O273    1.300   .     A
N274   O275    1.301   .     A
N274   O276    1.301   .     A
O281   C285    1.311   .     A
O281   Cu293   2.006   .     S
O282   C286    1.318   .     A
O282   Cu294   2.006   .     S
O283   Cu293   2.005   .     S
O283   C286    1.311   .     A
O284   Cu294   2.005   .     S
O284   C285    1.318   .     A
C285   C316    1.488   .     S
C286   C315    1.488   .     S
O287   C291    1.307   .     A
O287   Cu293   1.972   .     S
O288   Cu294   1.972   .     S
O288   C292    1.309   .     A
O289   C292    1.306   .     A
O289   Cu293   1.972   .     S
O290   C291    1.309   .     A
O290   Cu294   1.972   .     S
C291   C298    1.462   .     S
C292   C297    1.462   .     S
Cu293  Cu294   2.728   .     S
Cu293  N321    2.050   .     S
Cu294  N322    2.050   .     S
C295   N323    1.442   .     S
C295   C297    1.410   .     A
C295   C305    1.409   .     A
C296   C298    1.410   .     A
C296   N326    1.442   .     S
C296   C306    1.409   .     A
C297   C299    1.408   .     A
C298   C300    1.408   .     A
C299   I329    2.140   .     S
C299   C301    1.411   .     A
C300   C302    1.411   .     A
C300   I330    2.140   .     S
C301   C307    1.410   .     A
C301   C303    1.417   .     A
C302   C308    1.411   .     A
C302   C304    1.417   .     A
C303   C305    1.411   .     A
C303   C934    1.416   .     S
C304   C306    1.411   .     A
C304   C933    1.416   1_554 S
C305   C310    1.404   .     A
C306   C309    1.404   .     A
C307   I331    2.135   .     S
C307   C939    1.391   .     S
C308   I332    2.135   .     S
C308   C940    1.391   1_554 S
C309   I333    2.133   .     S
C309   C937    1.391   1_554 S
C310   I334    2.133   .     S
C310   C938    1.391   .     S
C311   C316    1.417   .     A
C311   N335    1.438   .     S
C312   C315    1.420   .     A
C312   N338    1.439   .     S
C312   C384    1.399   .     S
C313   C315    1.417   .     A
C313   N341    1.438   .     S
C313   C381    1.405   .     S
C314   N344    1.439   .     S
C314   C316    1.420   .     A
C317   I347    2.132   .     S
C317   N322    1.377   .     A
C318   N321    1.382   .     A
C318   I348    2.147   .     S
C318   C529    1.430   .     S
C319   I349    2.132   .     S
C319   N322    1.377   .     A
C320   I350    2.146   .     S
C320   N321    1.382   .     A
C320   C527    1.430   .     S
N323   O325    1.303   .     A
N323   O324    1.300   .     A
N326   O327    1.300   .     A
N326   O328    1.303   .     A
N335   O336    1.301   .     A
N335   O337    1.300   .     A
N338   O340    1.301   .     A
N338   O339    1.301   .     A
N341   O342    1.302   .     A
N341   O343    1.300   .     A
N344   O345    1.301   .     A
N344   O346    1.301   .     A
O351   C355    1.311   .     A
O351   Cu363   2.006   .     S
O352   C356    1.318   .     A
O352   Cu364   2.006   .     S
O353   Cu363   2.005   .     S
O353   C356    1.311   .     A
O354   Cu364   2.005   .     S
O354   C355    1.318   .     A
C355   C386    1.488   .     S
C356   C385    1.488   .     S
O357   C361    1.307   .     A
O357   Cu363   1.972   .     S
O358   Cu364   1.972   .     S
O358   C362    1.309   .     A
O359   C362    1.306   .     A
O359   Cu363   1.972   .     S
O360   C361    1.309   .     A
O360   Cu364   1.972   .     S
C361   C368    1.462   .     S
C362   C367    1.462   .     S
Cu363  Cu364   2.728   .     S
Cu363  N391    2.050   .     S
Cu364  N392    2.050   .     S
C365   N393    1.442   .     S
C365   C367    1.410   .     A
C365   C375    1.409   .     A
C366   C368    1.410   .     A
C366   N396    1.442   .     S
C366   C376    1.409   .     A
C367   C369    1.408   .     A
C368   C370    1.408   .     A
C369   I399    2.140   .     S
C369   C371    1.411   .     A
C370   C372    1.411   .     A
C370   I400    2.140   .     S
C371   C377    1.410   .     A
C371   C373    1.417   .     A
C372   C378    1.411   .     A
C372   C374    1.417   .     A
C373   C375    1.411   .     A
C373   C1004   1.416   .     S
C374   C376    1.411   .     A
C374   C1003   1.416   1_554 S
C375   C380    1.404   .     A
C376   C379    1.404   .     A
C377   I401    2.135   .     S
C377   C1009   1.391   .     S
C378   I402    2.135   .     S
C378   C1010   1.391   1_554 S
C379   I403    2.133   .     S
C379   C1007   1.391   1_554 S
C380   I404    2.133   .     S
C380   C1008   1.391   .     S
C381   C386    1.417   .     A
C381   N405    1.438   .     S
C382   C385    1.420   .     A
C382   N408    1.439   .     S
C382   C244    1.399   1_655 S
C383   C385    1.417   .     A
C383   N411    1.438   .     S
C383   C241    1.405   1_655 S
C384   N414    1.439   .     S
C384   C386    1.420   .     A
C387   I417    2.132   .     S
C387   N392    1.377   .     A
C388   N391    1.382   .     A
C388   I418    2.147   .     S
C388   C599    1.430   .     S
C389   I419    2.132   .     S
C389   N392    1.377   .     A
C390   I420    2.146   .     S
C390   N391    1.382   .     A
C390   C597    1.430   .     S
N393   O395    1.303   .     A
N393   O394    1.300   .     A
N396   O397    1.300   .     A
N396   O398    1.303   .     A
N405   O406    1.301   .     A
N405   O407    1.300   .     A
N408   O410    1.301   .     A
N408   O409    1.301   .     A
N411   O412    1.302   .     A
N411   O413    1.300   .     A
N414   O415    1.301   .     A
N414   O416    1.301   .     A
O421   C425    1.311   .     A
O421   Cu433   2.006   .     S
O422   C426    1.318   .     A
O422   Cu434   2.006   .     S
O423   Cu433   2.005   .     S
O423   C426    1.311   .     A
O424   Cu434   2.005   .     S
O424   C425    1.318   .     A
C425   C456    1.488   .     S
C426   C455    1.488   .     S
O427   C431    1.307   .     A
O427   Cu433   1.972   .     S
O428   Cu434   1.972   .     S
O428   C432    1.309   .     A
O429   C432    1.306   .     A
O429   Cu433   1.972   .     S
O430   C431    1.309   .     A
O430   Cu434   1.972   .     S
C431   C438    1.462   .     S
C432   C437    1.462   .     S
Cu433  Cu434   2.728   .     S
Cu433  N461    2.050   .     S
Cu434  N462    2.050   .     S
C435   N463    1.442   .     S
C435   C437    1.410   .     A
C435   C445    1.409   .     A
C436   C438    1.410   .     A
C436   N466    1.442   .     S
C436   C446    1.409   .     A
C437   C439    1.408   .     A
C438   C440    1.408   .     A
C439   I469    2.140   .     S
C439   C441    1.411   .     A
C440   C442    1.411   .     A
C440   I470    2.140   .     S
C441   C447    1.410   .     A
C441   C443    1.417   .     A
C442   C448    1.411   .     A
C442   C444    1.417   .     A
C443   C445    1.411   .     A
C443   C1074   1.416   .     S
C444   C446    1.411   .     A
C444   C1073   1.416   1_554 S
C445   C450    1.404   .     A
C446   C449    1.404   .     A
C447   I471    2.135   .     S
C447   C1079   1.391   .     S
C448   I472    2.135   .     S
C448   C1080   1.391   1_554 S
C449   I473    2.133   .     S
C449   C1077   1.391   1_554 S
C450   I474    2.133   .     S
C450   C1078   1.391   .     S
C451   C456    1.417   .     A
C451   N475    1.438   .     S
C451   C593    1.405   1_455 S
C452   C455    1.420   .     A
C452   N478    1.439   .     S
C452   C524    1.399   .     S
C453   C455    1.417   .     A
C453   N481    1.438   .     S
C453   C521    1.405   .     S
C454   N484    1.439   .     S
C454   C456    1.420   .     A
C454   C592    1.399   1_455 S
C457   I487    2.132   .     S
C457   N462    1.377   .     A
C458   N461    1.382   .     A
C458   I488    2.147   .     S
C458   C39     1.430   1_565 S
C459   I489    2.132   .     S
C459   N462    1.377   .     A
C460   I490    2.146   .     S
C460   N461    1.382   .     A
C460   C37     1.430   1_565 S
N463   O465    1.303   .     A
N463   O464    1.300   .     A
N466   O467    1.300   .     A
N466   O468    1.303   .     A
N475   O476    1.301   .     A
N475   O477    1.300   .     A
N478   O480    1.301   .     A
N478   O479    1.301   .     A
N481   O482    1.302   .     A
N481   O483    1.300   .     A
N484   O485    1.301   .     A
N484   O486    1.301   .     A
O491   C495    1.311   .     A
O491   Cu503   2.006   .     S
O492   C496    1.318   .     A
O492   Cu504   2.006   .     S
O493   Cu503   2.005   .     S
O493   C496    1.311   .     A
O494   Cu504   2.005   .     S
O494   C495    1.318   .     A
C495   C526    1.488   .     S
C496   C525    1.488   .     S
O497   C501    1.307   .     A
O497   Cu503   1.972   .     S
O498   Cu504   1.972   .     S
O498   C502    1.309   .     A
O499   C502    1.306   .     A
O499   Cu503   1.972   .     S
O500   C501    1.309   .     A
O500   Cu504   1.972   .     S
C501   C508    1.462   .     S
C502   C507    1.462   .     S
Cu503  Cu504   2.728   .     S
Cu503  N531    2.050   .     S
Cu504  N532    2.050   .     S
C505   N533    1.442   .     S
C505   C507    1.410   .     A
C505   C515    1.409   .     A
C506   C508    1.410   .     A
C506   N536    1.442   .     S
C506   C516    1.409   .     A
C507   C509    1.408   .     A
C508   C510    1.408   .     A
C509   I539    2.140   .     S
C509   C511    1.411   .     A
C510   C512    1.411   .     A
C510   I540    2.140   .     S
C511   C517    1.410   .     A
C511   C513    1.417   .     A
C512   C518    1.411   .     A
C512   C514    1.417   .     A
C513   C515    1.411   .     A
C513   C1144   1.416   .     S
C514   C516    1.411   .     A
C514   C1143   1.416   1_554 S
C515   C520    1.404   .     A
C516   C519    1.404   .     A
C517   I541    2.135   .     S
C517   C1149   1.391   .     S
C518   I542    2.135   .     S
C518   C1150   1.391   1_554 S
C519   I543    2.133   .     S
C519   C1147   1.391   1_554 S
C520   I544    2.133   .     S
C520   C1148   1.391   .     S
C521   C526    1.417   .     A
C521   N545    1.438   .     S
C522   C525    1.420   .     A
C522   N548    1.439   .     S
C522   C594    1.399   .     S
C523   C525    1.417   .     A
C523   N551    1.438   .     S
C523   C591    1.405   .     S
C524   N554    1.439   .     S
C524   C526    1.420   .     A
C527   I557    2.132   .     S
C527   N532    1.377   .     A
C528   N531    1.382   .     A
C528   I558    2.147   .     S
C528   C109    1.430   1_565 S
C529   I559    2.132   .     S
C529   N532    1.377   .     A
C530   I560    2.146   .     S
C530   N531    1.382   .     A
C530   C107    1.430   1_565 S
N533   O535    1.303   .     A
N533   O534    1.300   .     A
N536   O537    1.300   .     A
N536   O538    1.303   .     A
N545   O546    1.301   .     A
N545   O547    1.300   .     A
N548   O550    1.301   .     A
N548   O549    1.301   .     A
N551   O552    1.302   .     A
N551   O553    1.300   .     A
N554   O555    1.301   .     A
N554   O556    1.301   .     A
O561   C565    1.311   .     A
O561   Cu573   2.006   .     S
O562   C566    1.318   .     A
O562   Cu574   2.006   .     S
O563   Cu573   2.005   .     S
O563   C566    1.311   .     A
O564   Cu574   2.005   .     S
O564   C565    1.318   .     A
C565   C596    1.488   .     S
C566   C595    1.488   .     S
O567   C571    1.307   .     A
O567   Cu573   1.972   .     S
O568   Cu574   1.972   .     S
O568   C572    1.309   .     A
O569   C572    1.306   .     A
O569   Cu573   1.972   .     S
O570   C571    1.309   .     A
O570   Cu574   1.972   .     S
C571   C578    1.462   .     S
C572   C577    1.462   .     S
Cu573  Cu574   2.728   .     S
Cu573  N601    2.050   .     S
Cu574  N602    2.050   .     S
C575   N603    1.442   .     S
C575   C577    1.410   .     A
C575   C585    1.409   .     A
C576   C578    1.410   .     A
C576   N606    1.442   .     S
C576   C586    1.409   .     A
C577   C579    1.408   .     A
C578   C580    1.408   .     A
C579   I609    2.140   .     S
C579   C581    1.411   .     A
C580   C582    1.411   .     A
C580   I610    2.140   .     S
C581   C587    1.410   .     A
C581   C583    1.417   .     A
C582   C588    1.411   .     A
C582   C584    1.417   .     A
C583   C585    1.411   .     A
C583   C1214   1.416   .     S
C584   C586    1.411   .     A
C584   C1213   1.416   1_554 S
C585   C590    1.404   .     A
C586   C589    1.404   .     A
C587   I611    2.135   .     S
C587   C1219   1.391   .     S
C588   I612    2.135   .     S
C588   C1220   1.391   1_554 S
C589   I613    2.133   .     S
C589   C1217   1.391   1_554 S
C590   I614    2.133   .     S
C590   C1218   1.391   .     S
C591   C596    1.417   .     A
C591   N615    1.438   .     S
C592   C595    1.420   .     A
C592   N618    1.439   .     S
C592   C454    1.399   1_655 S
C593   C595    1.417   .     A
C593   N621    1.438   .     S
C593   C451    1.405   1_655 S
C594   N624    1.439   .     S
C594   C596    1.420   .     A
C597   I627    2.132   .     S
C597   N602    1.377   .     A
C598   N601    1.382   .     A
C598   I628    2.147   .     S
C598   C179    1.430   1_565 S
C599   I629    2.132   .     S
C599   N602    1.377   .     A
C600   I630    2.146   .     S
C600   N601    1.382   .     A
C600   C177    1.430   1_565 S
N603   O605    1.303   .     A
N603   O604    1.300   .     A
N606   O607    1.300   .     A
N606   O608    1.303   .     A
N615   O616    1.301   .     A
N615   O617    1.300   .     A
N618   O620    1.301   .     A
N618   O619    1.301   .     A
N621   O622    1.302   .     A
N621   O623    1.300   .     A
N624   O625    1.301   .     A
N624   O626    1.301   .     A
O631   C635    1.311   .     A
O631   Cu643   2.006   .     S
O632   C636    1.318   .     A
O632   Cu644   2.006   .     S
O633   Cu643   2.005   .     S
O633   C636    1.311   .     A
O634   Cu644   2.005   .     S
O634   C635    1.318   .     A
C635   C666    1.488   .     S
C636   C665    1.488   .     S
O637   C641    1.307   .     A
O637   Cu643   1.972   .     S
O638   Cu644   1.972   .     S
O638   C642    1.309   .     A
O639   C642    1.306   .     A
O639   Cu643   1.972   .     S
O640   C641    1.309   .     A
O640   Cu644   1.972   .     S
C641   C648    1.462   .     S
C642   C647    1.462   .     S
Cu643  Cu644   2.728   .     S
Cu643  N671    2.050   .     S
Cu644  N672    2.050   .     S
C645   N673    1.442   .     S
C645   C647    1.410   .     A
C645   C655    1.409   .     A
C646   C648    1.410   .     A
C646   N676    1.442   .     S
C646   C656    1.409   .     A
C647   C649    1.408   .     A
C648   C650    1.408   .     A
C649   I679    2.140   .     S
C649   C651    1.411   .     A
C650   C652    1.411   .     A
C650   I680    2.140   .     S
C651   C657    1.410   .     A
C651   C653    1.417   .     A
C652   C658    1.411   .     A
C652   C654    1.417   .     A
C653   C655    1.411   .     A
C653   C24     1.416   1_556 S
C654   C656    1.411   .     A
C655   C660    1.404   .     A
C656   C659    1.404   .     A
C657   I681    2.135   .     S
C657   C29     1.391   1_556 S
C658   I682    2.135   .     S
C659   I683    2.133   .     S
C660   I684    2.133   .     S
C660   C28     1.391   1_556 S
C661   C666    1.417   .     A
C661   N685    1.438   .     S
C661   C803    1.405   1_455 S
C662   C665    1.420   .     A
C662   N688    1.439   .     S
C662   C734    1.399   .     S
C663   C665    1.417   .     A
C663   N691    1.438   .     S
C663   C731    1.405   .     S
C664   N694    1.439   .     S
C664   C666    1.420   .     A
C664   C802    1.399   1_455 S
C667   I697    2.132   .     S
C667   N672    1.377   .     A
C667   C1090   1.430   1_545 S
C668   N671    1.382   .     A
C668   I698    2.147   .     S
C668   C879    1.430   .     S
C669   I699    2.132   .     S
C669   N672    1.377   .     A
C669   C1088   1.430   1_545 S
C670   I700    2.146   .     S
C670   N671    1.382   .     A
C670   C877    1.430   .     S
N673   O675    1.303   .     A
N673   O674    1.300   .     A
N676   O677    1.300   .     A
N676   O678    1.303   .     A
N685   O686    1.301   .     A
N685   O687    1.300   .     A
N688   O690    1.301   .     A
N688   O689    1.301   .     A
N691   O692    1.302   .     A
N691   O693    1.300   .     A
N694   O695    1.301   .     A
N694   O696    1.301   .     A
O701   C705    1.311   .     A
O701   Cu713   2.006   .     S
O702   C706    1.318   .     A
O702   Cu714   2.006   .     S
O703   Cu713   2.005   .     S
O703   C706    1.311   .     A
O704   Cu714   2.005   .     S
O704   C705    1.318   .     A
C705   C736    1.488   .     S
C706   C735    1.488   .     S
O707   C711    1.307   .     A
O707   Cu713   1.972   .     S
O708   Cu714   1.972   .     S
O708   C712    1.309   .     A
O709   C712    1.306   .     A
O709   Cu713   1.972   .     S
O710   C711    1.309   .     A
O710   Cu714   1.972   .     S
C711   C718    1.462   .     S
C712   C717    1.462   .     S
Cu713  Cu714   2.728   .     S
Cu713  N741    2.050   .     S
Cu714  N742    2.050   .     S
C715   N743    1.442   .     S
C715   C717    1.410   .     A
C715   C725    1.409   .     A
C716   C718    1.410   .     A
C716   N746    1.442   .     S
C716   C726    1.409   .     A
C717   C719    1.408   .     A
C718   C720    1.408   .     A
C719   I749    2.140   .     S
C719   C721    1.411   .     A
C720   C722    1.411   .     A
C720   I750    2.140   .     S
C721   C727    1.410   .     A
C721   C723    1.417   .     A
C722   C728    1.411   .     A
C722   C724    1.417   .     A
C723   C725    1.411   .     A
C723   C94     1.416   1_556 S
C724   C726    1.411   .     A
C725   C730    1.404   .     A
C726   C729    1.404   .     A
C727   I751    2.135   .     S
C727   C99     1.391   1_556 S
C728   I752    2.135   .     S
C729   I753    2.133   .     S
C730   I754    2.133   .     S
C730   C98     1.391   1_556 S
C731   C736    1.417   .     A
C731   N755    1.438   .     S
C732   C735    1.420   .     A
C732   N758    1.439   .     S
C732   C804    1.399   .     S
C733   C735    1.417   .     A
C733   N761    1.438   .     S
C733   C801    1.405   .     S
C734   N764    1.439   .     S
C734   C736    1.420   .     A
C737   I767    2.132   .     S
C737   N742    1.377   .     A
C737   C1160   1.430   1_545 S
C738   N741    1.382   .     A
C738   I768    2.147   .     S
C738   C949    1.430   .     S
C739   I769    2.132   .     S
C739   N742    1.377   .     A
C739   C1158   1.430   1_545 S
C740   I770    2.146   .     S
C740   N741    1.382   .     A
C740   C947    1.430   .     S
N743   O745    1.303   .     A
N743   O744    1.300   .     A
N746   O747    1.300   .     A
N746   O748    1.303   .     A
N755   O756    1.301   .     A
N755   O757    1.300   .     A
N758   O760    1.301   .     A
N758   O759    1.301   .     A
N761   O762    1.302   .     A
N761   O763    1.300   .     A
N764   O765    1.301   .     A
N764   O766    1.301   .     A
O771   C775    1.311   .     A
O771   Cu783   2.006   .     S
O772   C776    1.318   .     A
O772   Cu784   2.006   .     S
O773   Cu783   2.005   .     S
O773   C776    1.311   .     A
O774   Cu784   2.005   .     S
O774   C775    1.318   .     A
C775   C806    1.488   .     S
C776   C805    1.488   .     S
O777   C781    1.307   .     A
O777   Cu783   1.972   .     S
O778   Cu784   1.972   .     S
O778   C782    1.309   .     A
O779   C782    1.306   .     A
O779   Cu783   1.972   .     S
O780   C781    1.309   .     A
O780   Cu784   1.972   .     S
C781   C788    1.462   .     S
C782   C787    1.462   .     S
Cu783  Cu784   2.728   .     S
Cu783  N811    2.050   .     S
Cu784  N812    2.050   .     S
C785   N813    1.442   .     S
C785   C787    1.410   .     A
C785   C795    1.409   .     A
C786   C788    1.410   .     A
C786   N816    1.442   .     S
C786   C796    1.409   .     A
C787   C789    1.408   .     A
C788   C790    1.408   .     A
C789   I819    2.140   .     S
C789   C791    1.411   .     A
C790   C792    1.411   .     A
C790   I820    2.140   .     S
C791   C797    1.410   .     A
C791   C793    1.417   .     A
C792   C798    1.411   .     A
C792   C794    1.417   .     A
C793   C795    1.411   .     A
C793   C164    1.416   1_556 S
C794   C796    1.411   .     A
C795   C800    1.404   .     A
C796   C799    1.404   .     A
C797   I821    2.135   .     S
C797   C169    1.391   1_556 S
C798   I822    2.135   .     S
C799   I823    2.133   .     S
C800   I824    2.133   .     S
C800   C168    1.391   1_556 S
C801   C806    1.417   .     A
C801   N825    1.438   .     S
C802   C805    1.420   .     A
C802   N828    1.439   .     S
C802   C664    1.399   1_655 S
C803   C805    1.417   .     A
C803   N831    1.438   .     S
C803   C661    1.405   1_655 S
C804   N834    1.439   .     S
C804   C806    1.420   .     A
C807   I837    2.132   .     S
C807   N812    1.377   .     A
C807   C1230   1.430   1_545 S
C808   N811    1.382   .     A
C808   I838    2.147   .     S
C808   C1019   1.430   .     S
C809   I839    2.132   .     S
C809   N812    1.377   .     A
C809   C1228   1.430   1_545 S
C810   I840    2.146   .     S
C810   N811    1.382   .     A
C810   C1017   1.430   .     S
N813   O815    1.303   .     A
N813   O814    1.300   .     A
N816   O817    1.300   .     A
N816   O818    1.303   .     A
N825   O826    1.301   .     A
N825   O827    1.300   .     A
N828   O830    1.301   .     A
N828   O829    1.301   .     A
N831   O832    1.302   .     A
N831   O833    1.300   .     A
N834   O835    1.301   .     A
N834   O836    1.301   .     A
O841   C845    1.311   .     A
O841   Cu853   2.006   .     S
O842   C846    1.318   .     A
O842   Cu854   2.006   .     S
O843   Cu853   2.005   .     S
O843   C846    1.311   .     A
O844   Cu854   2.005   .     S
O844   C845    1.318   .     A
C845   C876    1.488   .     S
C846   C875    1.488   .     S
O847   C851    1.307   .     A
O847   Cu853   1.972   .     S
O848   Cu854   1.972   .     S
O848   C852    1.309   .     A
O849   C852    1.306   .     A
O849   Cu853   1.972   .     S
O850   C851    1.309   .     A
O850   Cu854   1.972   .     S
C851   C858    1.462   .     S
C852   C857    1.462   .     S
Cu853  Cu854   2.728   .     S
Cu853  N881    2.050   .     S
Cu854  N882    2.050   .     S
C855   N883    1.442   .     S
C855   C857    1.410   .     A
C855   C865    1.409   .     A
C856   C858    1.410   .     A
C856   N886    1.442   .     S
C856   C866    1.409   .     A
C857   C859    1.408   .     A
C858   C860    1.408   .     A
C859   I889    2.140   .     S
C859   C861    1.411   .     A
C860   C862    1.411   .     A
C860   I890    2.140   .     S
C861   C867    1.410   .     A
C861   C863    1.417   .     A
C862   C868    1.411   .     A
C862   C864    1.417   .     A
C863   C865    1.411   .     A
C863   C234    1.416   1_556 S
C864   C866    1.411   .     A
C865   C870    1.404   .     A
C866   C869    1.404   .     A
C867   I891    2.135   .     S
C867   C239    1.391   1_556 S
C868   I892    2.135   .     S
C869   I893    2.133   .     S
C870   I894    2.133   .     S
C870   C238    1.391   1_556 S
C871   C876    1.417   .     A
C871   N895    1.438   .     S
C871   C1013   1.405   1_455 S
C872   C875    1.420   .     A
C872   N898    1.439   .     S
C872   C944    1.399   .     S
C873   C875    1.417   .     A
C873   N901    1.438   .     S
C873   C941    1.405   .     S
C874   N904    1.439   .     S
C874   C876    1.420   .     A
C874   C1012   1.399   1_455 S
C877   I907    2.132   .     S
C877   N882    1.377   .     A
C878   N881    1.382   .     A
C878   I908    2.147   .     S
C878   C1089   1.430   .     S
C879   I909    2.132   .     S
C879   N882    1.377   .     A
C880   I910    2.146   .     S
C880   N881    1.382   .     A
C880   C1087   1.430   .     S
N883   O885    1.303   .     A
N883   O884    1.300   .     A
N886   O887    1.300   .     A
N886   O888    1.303   .     A
N895   O896    1.301   .     A
N895   O897    1.300   .     A
N898   O900    1.301   .     A
N898   O899    1.301   .     A
N901   O902    1.302   .     A
N901   O903    1.300   .     A
N904   O905    1.301   .     A
N904   O906    1.301   .     A
O911   C915    1.311   .     A
O911   Cu923   2.006   .     S
O912   C916    1.318   .     A
O912   Cu924   2.006   .     S
O913   Cu923   2.005   .     S
O913   C916    1.311   .     A
O914   Cu924   2.005   .     S
O914   C915    1.318   .     A
C915   C946    1.488   .     S
C916   C945    1.488   .     S
O917   C921    1.307   .     A
O917   Cu923   1.972   .     S
O918   Cu924   1.972   .     S
O918   C922    1.309   .     A
O919   C922    1.306   .     A
O919   Cu923   1.972   .     S
O920   C921    1.309   .     A
O920   Cu924   1.972   .     S
C921   C928    1.462   .     S
C922   C927    1.462   .     S
Cu923  Cu924   2.728   .     S
Cu923  N951    2.050   .     S
Cu924  N952    2.050   .     S
C925   N953    1.442   .     S
C925   C927    1.410   .     A
C925   C935    1.409   .     A
C926   C928    1.410   .     A
C926   N956    1.442   .     S
C926   C936    1.409   .     A
C927   C929    1.408   .     A
C928   C930    1.408   .     A
C929   I959    2.140   .     S
C929   C931    1.411   .     A
C930   C932    1.411   .     A
C930   I960    2.140   .     S
C931   C937    1.410   .     A
C931   C933    1.417   .     A
C932   C938    1.411   .     A
C932   C934    1.417   .     A
C933   C935    1.411   .     A
C933   C304    1.416   1_556 S
C934   C936    1.411   .     A
C935   C940    1.404   .     A
C936   C939    1.404   .     A
C937   I961    2.135   .     S
C937   C309    1.391   1_556 S
C938   I962    2.135   .     S
C939   I963    2.133   .     S
C940   I964    2.133   .     S
C940   C308    1.391   1_556 S
C941   C946    1.417   .     A
C941   N965    1.438   .     S
C942   C945    1.420   .     A
C942   N968    1.439   .     S
C942   C1014   1.399   .     S
C943   C945    1.417   .     A
C943   N971    1.438   .     S
C943   C1011   1.405   .     S
C944   N974    1.439   .     S
C944   C946    1.420   .     A
C947   I977    2.132   .     S
C947   N952    1.377   .     A
C948   N951    1.382   .     A
C948   I978    2.147   .     S
C948   C1159   1.430   .     S
C949   I979    2.132   .     S
C949   N952    1.377   .     A
C950   I980    2.146   .     S
C950   N951    1.382   .     A
C950   C1157   1.430   .     S
N953   O955    1.303   .     A
N953   O954    1.300   .     A
N956   O957    1.300   .     A
N956   O958    1.303   .     A
N965   O966    1.301   .     A
N965   O967    1.300   .     A
N968   O970    1.301   .     A
N968   O969    1.301   .     A
N971   O972    1.302   .     A
N971   O973    1.300   .     A
N974   O975    1.301   .     A
N974   O976    1.301   .     A
O981   C985    1.311   .     A
O981   Cu993   2.006   .     S
O982   C986    1.318   .     A
O982   Cu994   2.006   .     S
O983   Cu993   2.005   .     S
O983   C986    1.311   .     A
O984   Cu994   2.005   .     S
O984   C985    1.318   .     A
C985   C1016   1.488   .     S
C986   C1015   1.488   .     S
O987   C991    1.307   .     A
O987   Cu993   1.972   .     S
O988   Cu994   1.972   .     S
O988   C992    1.309   .     A
O989   C992    1.306   .     A
O989   Cu993   1.972   .     S
O990   C991    1.309   .     A
O990   Cu994   1.972   .     S
C991   C998    1.462   .     S
C992   C997    1.462   .     S
Cu993  Cu994   2.728   .     S
Cu993  N1021   2.050   .     S
Cu994  N1022   2.050   .     S
C995   N1023   1.442   .     S
C995   C997    1.410   .     A
C995   C1005   1.409   .     A
C996   C998    1.410   .     A
C996   N1026   1.442   .     S
C996   C1006   1.409   .     A
C997   C999    1.408   .     A
C998   C1000   1.408   .     A
C999   I1029   2.140   .     S
C999   C1001   1.411   .     A
C1000  C1002   1.411   .     A
C1000  I1030   2.140   .     S
C1001  C1007   1.410   .     A
C1001  C1003   1.417   .     A
C1002  C1008   1.411   .     A
C1002  C1004   1.417   .     A
C1003  C1005   1.411   .     A
C1003  C374    1.416   1_556 S
C1004  C1006   1.411   .     A
C1005  C1010   1.404   .     A
C1006  C1009   1.404   .     A
C1007  I1031   2.135   .     S
C1007  C379    1.391   1_556 S
C1008  I1032   2.135   .     S
C1009  I1033   2.133   .     S
C1010  I1034   2.133   .     S
C1010  C378    1.391   1_556 S
C1011  C1016   1.417   .     A
C1011  N1035   1.438   .     S
C1012  C1015   1.420   .     A
C1012  N1038   1.439   .     S
C1012  C874    1.399   1_655 S
C1013  C1015   1.417   .     A
C1013  N1041   1.438   .     S
C1013  C871    1.405   1_655 S
C1014  N1044   1.439   .     S
C1014  C1016   1.420   .     A
C1017  I1047   2.132   .     S
C1017  N1022   1.377   .     A
C1018  N1021   1.382   .     A
C1018  I1048   2.147   .     S
C1018  C1229   1.430   .     S
C1019  I1049   2.132   .     S
C1019  N1022   1.377   .     A
C1020  I1050   2.146   .     S
C1020  N1021   1.382   .     A
C1020  C1227   1.430   .     S
N1023  O1025   1.303   .     A
N1023  O1024   1.300   .     A
N1026  O1027   1.300   .     A
N1026  O1028   1.303   .     A
N1035  O1036   1.301   .     A
N1035  O1037   1.300   .     A
N1038  O1040   1.301   .     A
N1038  O1039   1.301   .     A
N1041  O1042   1.302   .     A
N1041  O1043   1.300   .     A
N1044  O1045   1.301   .     A
N1044  O1046   1.301   .     A
O1051  C1055   1.311   .     A
O1051  Cu1063  2.006   .     S
O1052  C1056   1.318   .     A
O1052  Cu1064  2.006   .     S
O1053  Cu1063  2.005   .     S
O1053  C1056   1.311   .     A
O1054  Cu1064  2.005   .     S
O1054  C1055   1.318   .     A
C1055  C1086   1.488   .     S
C1056  C1085   1.488   .     S
O1057  C1061   1.307   .     A
O1057  Cu1063  1.972   .     S
O1058  Cu1064  1.972   .     S
O1058  C1062   1.309   .     A
O1059  C1062   1.306   .     A
O1059  Cu1063  1.972   .     S
O1060  C1061   1.309   .     A
O1060  Cu1064  1.972   .     S
C1061  C1068   1.462   .     S
C1062  C1067   1.462   .     S
Cu1063 Cu1064  2.728   .     S
Cu1063 N1091   2.050   .     S
Cu1064 N1092   2.050   .     S
C1065  N1093   1.442   .     S
C1065  C1067   1.410   .     A
C1065  C1075   1.409   .     A
C1066  C1068   1.410   .     A
C1066  N1096   1.442   .     S
C1066  C1076   1.409   .     A
C1067  C1069   1.408   .     A
C1068  C1070   1.408   .     A
C1069  I1099   2.140   .     S
C1069  C1071   1.411   .     A
C1070  C1072   1.411   .     A
C1070  I1100   2.140   .     S
C1071  C1077   1.410   .     A
C1071  C1073   1.417   .     A
C1072  C1078   1.411   .     A
C1072  C1074   1.417   .     A
C1073  C1075   1.411   .     A
C1073  C444    1.416   1_556 S
C1074  C1076   1.411   .     A
C1075  C1080   1.404   .     A
C1076  C1079   1.404   .     A
C1077  I1101   2.135   .     S
C1077  C449    1.391   1_556 S
C1078  I1102   2.135   .     S
C1079  I1103   2.133   .     S
C1080  I1104   2.133   .     S
C1080  C448    1.391   1_556 S
C1081  C1086   1.417   .     A
C1081  N1105   1.438   .     S
C1081  C1223   1.405   1_455 S
C1082  C1085   1.420   .     A
C1082  N1108   1.439   .     S
C1082  C1154   1.399   .     S
C1083  C1085   1.417   .     A
C1083  N1111   1.438   .     S
C1083  C1151   1.405   .     S
C1084  N1114   1.439   .     S
C1084  C1086   1.420   .     A
C1084  C1222   1.399   1_455 S
C1087  I1117   2.132   .     S
C1087  N1092   1.377   .     A
C1088  N1091   1.382   .     A
C1088  I1118   2.147   .     S
C1088  C669    1.430   1_565 S
C1089  I1119   2.132   .     S
C1089  N1092   1.377   .     A
C1090  I1120   2.146   .     S
C1090  N1091   1.382   .     A
C1090  C667    1.430   1_565 S
N1093  O1095   1.303   .     A
N1093  O1094   1.300   .     A
N1096  O1097   1.300   .     A
N1096  O1098   1.303   .     A
N1105  O1106   1.301   .     A
N1105  O1107   1.300   .     A
N1108  O1110   1.301   .     A
N1108  O1109   1.301   .     A
N1111  O1112   1.302   .     A
N1111  O1113   1.300   .     A
N1114  O1115   1.301   .     A
N1114  O1116   1.301   .     A
O1121  C1125   1.311   .     A
O1121  Cu1133  2.006   .     S
O1122  C1126   1.318   .     A
O1122  Cu1134  2.006   .     S
O1123  Cu1133  2.005   .     S
O1123  C1126   1.311   .     A
O1124  Cu1134  2.005   .     S
O1124  C1125   1.318   .     A
C1125  C1156   1.488   .     S
C1126  C1155   1.488   .     S
O1127  C1131   1.307   .     A
O1127  Cu1133  1.972   .     S
O1128  Cu1134  1.972   .     S
O1128  C1132   1.309   .     A
O1129  C1132   1.306   .     A
O1129  Cu1133  1.972   .     S
O1130  C1131   1.309   .     A
O1130  Cu1134  1.972   .     S
C1131  C1138   1.462   .     S
C1132  C1137   1.462   .     S
Cu1133 Cu1134  2.728   .     S
Cu1133 N1161   2.050   .     S
Cu1134 N1162   2.050   .     S
C1135  N1163   1.442   .     S
C1135  C1137   1.410   .     A
C1135  C1145   1.409   .     A
C1136  C1138   1.410   .     A
C1136  N1166   1.442   .     S
C1136  C1146   1.409   .     A
C1137  C1139   1.408   .     A
C1138  C1140   1.408   .     A
C1139  I1169   2.140   .     S
C1139  C1141   1.411   .     A
C1140  C1142   1.411   .     A
C1140  I1170   2.140   .     S
C1141  C1147   1.410   .     A
C1141  C1143   1.417   .     A
C1142  C1148   1.411   .     A
C1142  C1144   1.417   .     A
C1143  C1145   1.411   .     A
C1143  C514    1.416   1_556 S
C1144  C1146   1.411   .     A
C1145  C1150   1.404   .     A
C1146  C1149   1.404   .     A
C1147  I1171   2.135   .     S
C1147  C519    1.391   1_556 S
C1148  I1172   2.135   .     S
C1149  I1173   2.133   .     S
C1150  I1174   2.133   .     S
C1150  C518    1.391   1_556 S
C1151  C1156   1.417   .     A
C1151  N1175   1.438   .     S
C1152  C1155   1.420   .     A
C1152  N1178   1.439   .     S
C1152  C1224   1.399   .     S
C1153  C1155   1.417   .     A
C1153  N1181   1.438   .     S
C1153  C1221   1.405   .     S
C1154  N1184   1.439   .     S
C1154  C1156   1.420   .     A
C1157  I1187   2.132   .     S
C1157  N1162   1.377   .     A
C1158  N1161   1.382   .     A
C1158  I1188   2.147   .     S
C1158  C739    1.430   1_565 S
C1159  I1189   2.132   .     S
C1159  N1162   1.377   .     A
C1160  I1190   2.146   .     S
C1160  N1161   1.382   .     A
C1160  C737    1.430   1_565 S
N1163  O1165   1.303   .     A
N1163  O1164   1.300   .     A
N1166  O1167   1.300   .     A
N1166  O1168   1.303   .     A
N1175  O1176   1.301   .     A
N1175  O1177   1.300   .     A
N1178  O1180   1.301   .     A
N1178  O1179   1.301   .     A
N1181  O1182   1.302   .     A
N1181  O1183   1.300   .     A
N1184  O1185   1.301   .     A
N1184  O1186   1.301   .     A
O1191  C1195   1.311   .     A
O1191  Cu1203  2.006   .     S
O1192  C1196   1.318   .     A
O1192  Cu1204  2.006   .     S
O1193  Cu1203  2.005   .     S
O1193  C1196   1.311   .     A
O1194  Cu1204  2.005   .     S
O1194  C1195   1.318   .     A
C1195  C1226   1.488   .     S
C1196  C1225   1.488   .     S
O1197  C1201   1.307   .     A
O1197  Cu1203  1.972   .     S
O1198  Cu1204  1.972   .     S
O1198  C1202   1.309   .     A
O1199  C1202   1.306   .     A
O1199  Cu1203  1.972   .     S
O1200  C1201   1.309   .     A
O1200  Cu1204  1.972   .     S
C1201  C1208   1.462   .     S
C1202  C1207   1.462   .     S
Cu1203 Cu1204  2.728   .     S
Cu1203 N1231   2.050   .     S
Cu1204 N1232   2.050   .     S
C1205  N1233   1.442   .     S
C1205  C1207   1.410   .     A
C1205  C1215   1.409   .     A
C1206  C1208   1.410   .     A
C1206  N1236   1.442   .     S
C1206  C1216   1.409   .     A
C1207  C1209   1.408   .     A
C1208  C1210   1.408   .     A
C1209  I1239   2.140   .     S
C1209  C1211   1.411   .     A
C1210  C1212   1.411   .     A
C1210  I1240   2.140   .     S
C1211  C1217   1.410   .     A
C1211  C1213   1.417   .     A
C1212  C1218   1.411   .     A
C1212  C1214   1.417   .     A
C1213  C1215   1.411   .     A
C1213  C584    1.416   1_556 S
C1214  C1216   1.411   .     A
C1215  C1220   1.404   .     A
C1216  C1219   1.404   .     A
C1217  I1241   2.135   .     S
C1217  C589    1.391   1_556 S
C1218  I1242   2.135   .     S
C1219  I1243   2.133   .     S
C1220  I1244   2.133   .     S
C1220  C588    1.391   1_556 S
C1221  C1226   1.417   .     A
C1221  N1245   1.438   .     S
C1222  C1225   1.420   .     A
C1222  N1248   1.439   .     S
C1222  C1084   1.399   1_655 S
C1223  C1225   1.417   .     A
C1223  N1251   1.438   .     S
C1223  C1081   1.405   1_655 S
C1224  N1254   1.439   .     S
C1224  C1226   1.420   .     A
C1227  I1257   2.132   .     S
C1227  N1232   1.377   .     A
C1228  N1231   1.382   .     A
C1228  I1258   2.147   .     S
C1228  C809    1.430   1_565 S
C1229  I1259   2.132   .     S
C1229  N1232   1.377   .     A
C1230  I1260   2.146   .     S
C1230  N1231   1.382   .     A
C1230  C807    1.430   1_565 S
N1233  O1235   1.303   .     A
N1233  O1234   1.300   .     A
N1236  O1237   1.300   .     A
N1236  O1238   1.303   .     A
N1245  O1246   1.301   .     A
N1245  O1247   1.300   .     A
N1248  O1250   1.301   .     A
N1248  O1249   1.301   .     A
N1251  O1252   1.302   .     A
N1251  O1253   1.300   .     A
N1254  O1255   1.301   .     A
N1254  O1256   1.301   .     A
