data_str_m3_o1_o18_pcu_sym.138
_audit_creation_date              2020-01-03
_audit_creation_method            'Materials Studio'
_symmetry_space_group_name_H-M    'P1'
_symmetry_Int_Tables_number       1
_symmetry_cell_setting            triclinic
loop_
_symmetry_equiv_pos_as_xyz
  x,y,z
_cell_length_a                    29.5243
_cell_length_b                    32.0746
_cell_length_c                    30.5533
_cell_angle_alpha                 90.1942
_cell_angle_beta                  68.4280
_cell_angle_gamma                 90.1486
loop_
_atom_site_label
_atom_site_type_symbol
_atom_site_fract_x
_atom_site_fract_y
_atom_site_fract_z
_atom_site_U_iso_or_equiv
_atom_site_adp_type
_atom_site_occupancy
C1     C     0.16660   0.24668   0.25044   0.00000  Uiso   1.00
C2     C     0.16671   0.08666   0.24963   0.00000  Uiso   1.00
C3     C     0.12728   0.10140   0.03975   0.00000  Uiso   1.00
C4     C     0.23465   0.14040   0.44138   0.00000  Uiso   1.00
C5     C     0.09357   0.09700   0.01761   0.00000  Uiso   1.00
C6     C     0.26775   0.14612   0.46397   0.00000  Uiso   1.00
C7     C     0.19452   0.31247   0.27166   0.00000  Uiso   1.00
C8     C     0.13860   0.02089   0.22865   0.00000  Uiso   1.00
C9     C     0.19446   0.02188   0.27103   0.00000  Uiso   1.00
C10    C     0.13871   0.31149   0.22922   0.00000  Uiso   1.00
C11    C     0.16656   0.04255   0.24961   0.00000  Uiso   1.00
C12    C     0.16666   0.29081   0.25058   0.00000  Uiso   1.00
C13    C     0.32042   0.14073   0.22070   0.00000  Uiso   1.00
C14    C     0.01288   0.19252   0.27937   0.00000  Uiso   1.00
C15    C     0.03503   0.14072   0.22074   0.00000  Uiso   1.00
C16    C     0.29826   0.19252   0.27935   0.00000  Uiso   1.00
C17    C     0.13643   0.16594   0.33832   0.00000  Uiso   1.00
C18    C     0.19695   0.16588   0.16159   0.00000  Uiso   1.00
C19    C     0.11902   0.15558   0.38830   0.00000  Uiso   1.00
C20    C     0.21605   0.15986   0.11040   0.00000  Uiso   1.00
C21    C     0.06716   0.11352   0.45311   0.00000  Uiso   1.00
C22    C     0.28350   0.15859   0.03537   0.00000  Uiso   1.00
C23    C     0.07649   0.13204   0.40935   0.00000  Uiso   1.00
C24    C     0.26603   0.16377   0.08404   0.00000  Uiso   1.00
C25    C     0.15146   0.16085   0.41149   0.00000  Uiso   1.00
C26    C     0.18416   0.14825   0.08792   0.00000  Uiso   1.00
C27    C     0.14680   0.13658   0.45083   0.00000  Uiso   1.00
C28    C     0.20218   0.13829   0.03989   0.00000  Uiso   1.00
C29    C     0.10214   0.11573   0.47413   0.00000  Uiso   1.00
C30    C     0.25152   0.14727   0.01295   0.00000  Uiso   1.00
C31    C     0.18432   0.13434   0.46903   0.00000  Uiso   1.00
C32    C     0.17096   0.12456   0.01705   0.00000  Uiso   1.00
H33    H     0.06031   0.07946   0.03475   0.00000  Uiso   1.00
H34    H     0.30580   0.15156   0.44318   0.00000  Uiso   1.00
H35    H     0.29130   0.17241   0.10077   0.00000  Uiso   1.00
H36    H     0.05148   0.12687   0.39136   0.00000  Uiso   1.00
H37    H     0.03362   0.09624   0.46960   0.00000  Uiso   1.00
H38    H     0.32167   0.16439   0.01522   0.00000  Uiso   1.00
H39    H     0.21554   0.03879   0.28783   0.00000  Uiso   1.00
H40    H     0.11759   0.29460   0.21247   0.00000  Uiso   1.00
H41    H     0.31111   0.12002   0.19727   0.00000  Uiso   1.00
H42    H     0.02215   0.21316   0.30289   0.00000  Uiso   1.00
H43    H     0.06203   0.11995   0.19735   0.00000  Uiso   1.00
H44    H     0.27121   0.21316   0.30288   0.00000  Uiso   1.00
N45    N     0.04759   0.16668   0.25001   0.00000  Uiso   1.00
N46    N     0.28574   0.16666   0.24999   0.00000  Uiso   1.00
O47    O     0.12846   0.22775   0.25000   0.00000  Uiso   1.00
O48    O     0.20488   0.10558   0.24999   0.00000  Uiso   1.00
O49    O     0.20490   0.22774   0.25000   0.00000  Uiso   1.00
O50    O     0.12843   0.10559   0.25000   0.00000  Uiso   1.00
O51    O     0.10661   0.16667   0.31612   0.00000  Uiso   1.00
O52    O     0.22672   0.16666   0.18387   0.00000  Uiso   1.00
O53    O     0.18305   0.16666   0.31612   0.00000  Uiso   1.00
O54    O     0.15028   0.16667   0.18388   0.00000  Uiso   1.00
Zn55   Zn    0.11562   0.16667   0.25000   0.00000  Uiso   1.00
Zn56   Zn    0.21771   0.16666   0.25000   0.00000  Uiso   1.00
F57    F     0.13525   0.15102   0.11154   0.00000  Uiso   1.00
F58    F     0.18658   0.19070   0.39614   0.00000  Uiso   1.00
N59    N     0.11863   0.07956   0.08272   0.00000  Uiso   1.00
H60    H     0.08294   0.07142   0.10168   0.00000  Uiso   1.00
C61    C     0.15384   0.04799   0.08238   0.00000  Uiso   1.00
H62    H     0.16608   0.05378   0.11213   0.00000  Uiso   1.00
H63    H     0.18632   0.04807   0.04911   0.00000  Uiso   1.00
H64    H     0.13676   0.01662   0.08670   0.00000  Uiso   1.00
N65    N     0.25302   0.13768   0.39125   0.00000  Uiso   1.00
H66    H     0.28625   0.15208   0.37487   0.00000  Uiso   1.00
C67    C     0.25149   0.09643   0.37253   0.00000  Uiso   1.00
H68    H     0.26442   0.09797   0.33353   0.00000  Uiso   1.00
H69    H     0.21374   0.08398   0.38571   0.00000  Uiso   1.00
H70    H     0.27549   0.07494   0.38256   0.00000  Uiso   1.00
F71    F     0.22065   0.29249   0.29369   0.00000  Uiso   1.00
F72    F     0.11221   0.04086   0.20688   0.00000  Uiso   1.00
C73    C     0.49993   0.24668   0.25044   0.00000  Uiso   1.00
C74    C     0.50004   0.08666   0.24963   0.00000  Uiso   1.00
C75    C     0.46062   0.10140   0.03975   0.00000  Uiso   1.00
C76    C     0.56798   0.14040   0.44138   0.00000  Uiso   1.00
C77    C     0.42690   0.09700   0.01761   0.00000  Uiso   1.00
C78    C     0.60109   0.14612   0.46397   0.00000  Uiso   1.00
C79    C     0.52786   0.31247   0.27166   0.00000  Uiso   1.00
C80    C     0.47193   0.02089   0.22865   0.00000  Uiso   1.00
C81    C     0.52780   0.02188   0.27103   0.00000  Uiso   1.00
C82    C     0.47204   0.31149   0.22922   0.00000  Uiso   1.00
C83    C     0.49990   0.04255   0.24961   0.00000  Uiso   1.00
C84    C     0.49999   0.29081   0.25058   0.00000  Uiso   1.00
C85    C     0.65376   0.14073   0.22070   0.00000  Uiso   1.00
C86    C     0.34621   0.19252   0.27937   0.00000  Uiso   1.00
C87    C     0.36837   0.14072   0.22074   0.00000  Uiso   1.00
C88    C     0.63159   0.19252   0.27935   0.00000  Uiso   1.00
C89    C     0.46977   0.16594   0.33832   0.00000  Uiso   1.00
C90    C     0.53028   0.16588   0.16159   0.00000  Uiso   1.00
C91    C     0.45235   0.15558   0.38830   0.00000  Uiso   1.00
C92    C     0.54938   0.15986   0.11040   0.00000  Uiso   1.00
C93    C     0.40050   0.11352   0.45311   0.00000  Uiso   1.00
C94    C     0.61683   0.15859   0.03537   0.00000  Uiso   1.00
C95    C     0.40982   0.13204   0.40935   0.00000  Uiso   1.00
C96    C     0.59937   0.16377   0.08404   0.00000  Uiso   1.00
C97    C     0.48480   0.16085   0.41149   0.00000  Uiso   1.00
C98    C     0.51750   0.14825   0.08792   0.00000  Uiso   1.00
C99    C     0.48013   0.13658   0.45083   0.00000  Uiso   1.00
C100   C     0.53552   0.13829   0.03989   0.00000  Uiso   1.00
C101   C     0.43548   0.11573   0.47413   0.00000  Uiso   1.00
C102   C     0.58486   0.14727   0.01295   0.00000  Uiso   1.00
C103   C     0.51765   0.13434   0.46903   0.00000  Uiso   1.00
C104   C     0.50429   0.12456   0.01705   0.00000  Uiso   1.00
H105   H     0.39365   0.07946   0.03475   0.00000  Uiso   1.00
H106   H     0.63914   0.15156   0.44318   0.00000  Uiso   1.00
H107   H     0.62464   0.17241   0.10077   0.00000  Uiso   1.00
H108   H     0.38481   0.12687   0.39136   0.00000  Uiso   1.00
H109   H     0.36695   0.09624   0.46960   0.00000  Uiso   1.00
H110   H     0.65500   0.16439   0.01522   0.00000  Uiso   1.00
H111   H     0.54887   0.03879   0.28783   0.00000  Uiso   1.00
H112   H     0.45092   0.29460   0.21247   0.00000  Uiso   1.00
H113   H     0.64444   0.12002   0.19727   0.00000  Uiso   1.00
H114   H     0.35549   0.21316   0.30289   0.00000  Uiso   1.00
H115   H     0.39536   0.11995   0.19735   0.00000  Uiso   1.00
H116   H     0.60454   0.21316   0.30288   0.00000  Uiso   1.00
N117   N     0.38093   0.16668   0.25001   0.00000  Uiso   1.00
N118   N     0.61907   0.16666   0.24999   0.00000  Uiso   1.00
O119   O     0.46179   0.22775   0.25000   0.00000  Uiso   1.00
O120   O     0.53821   0.10558   0.24999   0.00000  Uiso   1.00
O121   O     0.53823   0.22774   0.25000   0.00000  Uiso   1.00
O122   O     0.46177   0.10559   0.25000   0.00000  Uiso   1.00
O123   O     0.43994   0.16667   0.31612   0.00000  Uiso   1.00
O124   O     0.56006   0.16666   0.18387   0.00000  Uiso   1.00
O125   O     0.51639   0.16666   0.31612   0.00000  Uiso   1.00
O126   O     0.48361   0.16667   0.18388   0.00000  Uiso   1.00
Zn127  Zn    0.44896   0.16667   0.25000   0.00000  Uiso   1.00
Zn128  Zn    0.55104   0.16666   0.25000   0.00000  Uiso   1.00
F129   F     0.46859   0.15102   0.11154   0.00000  Uiso   1.00
F130   F     0.51991   0.19070   0.39614   0.00000  Uiso   1.00
N131   N     0.45196   0.07956   0.08272   0.00000  Uiso   1.00
H132   H     0.41627   0.07142   0.10168   0.00000  Uiso   1.00
C133   C     0.48717   0.04799   0.08238   0.00000  Uiso   1.00
H134   H     0.49942   0.05378   0.11213   0.00000  Uiso   1.00
H135   H     0.51966   0.04807   0.04911   0.00000  Uiso   1.00
H136   H     0.47009   0.01662   0.08670   0.00000  Uiso   1.00
N137   N     0.58635   0.13768   0.39125   0.00000  Uiso   1.00
H138   H     0.61958   0.15208   0.37487   0.00000  Uiso   1.00
C139   C     0.58482   0.09643   0.37253   0.00000  Uiso   1.00
H140   H     0.59775   0.09797   0.33353   0.00000  Uiso   1.00
H141   H     0.54707   0.08398   0.38571   0.00000  Uiso   1.00
H142   H     0.60882   0.07494   0.38256   0.00000  Uiso   1.00
F143   F     0.55398   0.29249   0.29369   0.00000  Uiso   1.00
F144   F     0.44554   0.04086   0.20688   0.00000  Uiso   1.00
C145   C     0.83326   0.24668   0.25044   0.00000  Uiso   1.00
C146   C     0.83337   0.08666   0.24963   0.00000  Uiso   1.00
C147   C     0.79395   0.10140   0.03975   0.00000  Uiso   1.00
C148   C     0.90131   0.14040   0.44138   0.00000  Uiso   1.00
C149   C     0.76023   0.09700   0.01761   0.00000  Uiso   1.00
C150   C     0.93442   0.14612   0.46397   0.00000  Uiso   1.00
C151   C     0.86119   0.31247   0.27166   0.00000  Uiso   1.00
C152   C     0.80526   0.02089   0.22865   0.00000  Uiso   1.00
C153   C     0.86113   0.02188   0.27103   0.00000  Uiso   1.00
C154   C     0.80537   0.31149   0.22922   0.00000  Uiso   1.00
C155   C     0.83323   0.04255   0.24961   0.00000  Uiso   1.00
C156   C     0.83333   0.29081   0.25058   0.00000  Uiso   1.00
C157   C     0.98709   0.14073   0.22070   0.00000  Uiso   1.00
C158   C     0.67954   0.19252   0.27937   0.00000  Uiso   1.00
C159   C     0.70170   0.14072   0.22074   0.00000  Uiso   1.00
C160   C     0.96493   0.19252   0.27935   0.00000  Uiso   1.00
C161   C     0.80310   0.16594   0.33832   0.00000  Uiso   1.00
C162   C     0.86361   0.16588   0.16159   0.00000  Uiso   1.00
C163   C     0.78568   0.15558   0.38830   0.00000  Uiso   1.00
C164   C     0.88272   0.15986   0.11040   0.00000  Uiso   1.00
C165   C     0.73383   0.11352   0.45311   0.00000  Uiso   1.00
C166   C     0.95016   0.15859   0.03537   0.00000  Uiso   1.00
C167   C     0.74316   0.13204   0.40935   0.00000  Uiso   1.00
C168   C     0.93270   0.16377   0.08404   0.00000  Uiso   1.00
C169   C     0.81813   0.16085   0.41149   0.00000  Uiso   1.00
C170   C     0.85083   0.14825   0.08792   0.00000  Uiso   1.00
C171   C     0.81347   0.13658   0.45083   0.00000  Uiso   1.00
C172   C     0.86885   0.13829   0.03989   0.00000  Uiso   1.00
C173   C     0.76881   0.11573   0.47413   0.00000  Uiso   1.00
C174   C     0.91819   0.14727   0.01295   0.00000  Uiso   1.00
C175   C     0.85099   0.13434   0.46903   0.00000  Uiso   1.00
C176   C     0.83763   0.12456   0.01705   0.00000  Uiso   1.00
H177   H     0.72698   0.07946   0.03475   0.00000  Uiso   1.00
H178   H     0.97247   0.15156   0.44318   0.00000  Uiso   1.00
H179   H     0.95797   0.17241   0.10077   0.00000  Uiso   1.00
H180   H     0.71815   0.12687   0.39136   0.00000  Uiso   1.00
H181   H     0.70028   0.09624   0.46960   0.00000  Uiso   1.00
H182   H     0.98833   0.16439   0.01522   0.00000  Uiso   1.00
H183   H     0.88220   0.03879   0.28783   0.00000  Uiso   1.00
H184   H     0.78425   0.29460   0.21247   0.00000  Uiso   1.00
H185   H     0.97777   0.12002   0.19727   0.00000  Uiso   1.00
H186   H     0.68882   0.21316   0.30289   0.00000  Uiso   1.00
H187   H     0.72870   0.11995   0.19735   0.00000  Uiso   1.00
H188   H     0.93787   0.21316   0.30288   0.00000  Uiso   1.00
N189   N     0.71426   0.16668   0.25001   0.00000  Uiso   1.00
N190   N     0.95241   0.16666   0.24999   0.00000  Uiso   1.00
O191   O     0.79512   0.22775   0.25000   0.00000  Uiso   1.00
O192   O     0.87154   0.10558   0.24999   0.00000  Uiso   1.00
O193   O     0.87157   0.22774   0.25000   0.00000  Uiso   1.00
O194   O     0.79510   0.10559   0.25000   0.00000  Uiso   1.00
O195   O     0.77328   0.16667   0.31612   0.00000  Uiso   1.00
O196   O     0.89339   0.16666   0.18387   0.00000  Uiso   1.00
O197   O     0.84972   0.16666   0.31612   0.00000  Uiso   1.00
O198   O     0.81695   0.16667   0.18388   0.00000  Uiso   1.00
Zn199  Zn    0.78229   0.16667   0.25000   0.00000  Uiso   1.00
Zn200  Zn    0.88438   0.16666   0.25000   0.00000  Uiso   1.00
F201   F     0.80192   0.15102   0.11154   0.00000  Uiso   1.00
F202   F     0.85324   0.19070   0.39614   0.00000  Uiso   1.00
N203   N     0.78530   0.07956   0.08272   0.00000  Uiso   1.00
H204   H     0.74960   0.07142   0.10168   0.00000  Uiso   1.00
C205   C     0.82051   0.04799   0.08238   0.00000  Uiso   1.00
H206   H     0.83275   0.05378   0.11213   0.00000  Uiso   1.00
H207   H     0.85299   0.04807   0.04911   0.00000  Uiso   1.00
H208   H     0.80342   0.01662   0.08670   0.00000  Uiso   1.00
N209   N     0.91968   0.13768   0.39125   0.00000  Uiso   1.00
H210   H     0.95292   0.15208   0.37487   0.00000  Uiso   1.00
C211   C     0.91815   0.09643   0.37253   0.00000  Uiso   1.00
H212   H     0.93109   0.09797   0.33353   0.00000  Uiso   1.00
H213   H     0.88040   0.08398   0.38571   0.00000  Uiso   1.00
H214   H     0.94216   0.07494   0.38256   0.00000  Uiso   1.00
F215   F     0.88732   0.29249   0.29369   0.00000  Uiso   1.00
F216   F     0.77888   0.04086   0.20688   0.00000  Uiso   1.00
C217   C     0.16660   0.58001   0.25044   0.00000  Uiso   1.00
C218   C     0.16671   0.41999   0.24963   0.00000  Uiso   1.00
C219   C     0.12728   0.43474   0.03975   0.00000  Uiso   1.00
C220   C     0.23465   0.47374   0.44138   0.00000  Uiso   1.00
C221   C     0.09357   0.43033   0.01761   0.00000  Uiso   1.00
C222   C     0.26775   0.47945   0.46397   0.00000  Uiso   1.00
C223   C     0.19452   0.64581   0.27166   0.00000  Uiso   1.00
C224   C     0.13860   0.35422   0.22865   0.00000  Uiso   1.00
C225   C     0.19446   0.35522   0.27103   0.00000  Uiso   1.00
C226   C     0.13871   0.64482   0.22922   0.00000  Uiso   1.00
C227   C     0.16656   0.37588   0.24961   0.00000  Uiso   1.00
C228   C     0.16666   0.62414   0.25058   0.00000  Uiso   1.00
C229   C     0.32042   0.47407   0.22070   0.00000  Uiso   1.00
C230   C     0.01288   0.52586   0.27937   0.00000  Uiso   1.00
C231   C     0.03503   0.47405   0.22074   0.00000  Uiso   1.00
C232   C     0.29826   0.52586   0.27935   0.00000  Uiso   1.00
C233   C     0.13643   0.49927   0.33832   0.00000  Uiso   1.00
C234   C     0.19695   0.49922   0.16159   0.00000  Uiso   1.00
C235   C     0.11902   0.48891   0.38830   0.00000  Uiso   1.00
C236   C     0.21605   0.49320   0.11040   0.00000  Uiso   1.00
C237   C     0.06716   0.44686   0.45311   0.00000  Uiso   1.00
C238   C     0.28350   0.49192   0.03537   0.00000  Uiso   1.00
C239   C     0.07649   0.46538   0.40935   0.00000  Uiso   1.00
C240   C     0.26603   0.49710   0.08404   0.00000  Uiso   1.00
C241   C     0.15146   0.49418   0.41149   0.00000  Uiso   1.00
C242   C     0.18416   0.48159   0.08792   0.00000  Uiso   1.00
C243   C     0.14680   0.46991   0.45083   0.00000  Uiso   1.00
C244   C     0.20218   0.47162   0.03989   0.00000  Uiso   1.00
C245   C     0.10214   0.44906   0.47413   0.00000  Uiso   1.00
C246   C     0.25152   0.48061   0.01295   0.00000  Uiso   1.00
C247   C     0.18432   0.46767   0.46903   0.00000  Uiso   1.00
C248   C     0.17096   0.45790   0.01705   0.00000  Uiso   1.00
H249   H     0.06031   0.41279   0.03475   0.00000  Uiso   1.00
H250   H     0.30580   0.48489   0.44318   0.00000  Uiso   1.00
H251   H     0.29130   0.50574   0.10077   0.00000  Uiso   1.00
H252   H     0.05148   0.46020   0.39136   0.00000  Uiso   1.00
H253   H     0.03362   0.42958   0.46960   0.00000  Uiso   1.00
H254   H     0.32167   0.49772   0.01522   0.00000  Uiso   1.00
H255   H     0.21554   0.37213   0.28783   0.00000  Uiso   1.00
H256   H     0.11759   0.62793   0.21247   0.00000  Uiso   1.00
H257   H     0.31111   0.45336   0.19727   0.00000  Uiso   1.00
H258   H     0.02215   0.54649   0.30289   0.00000  Uiso   1.00
H259   H     0.06203   0.45328   0.19735   0.00000  Uiso   1.00
H260   H     0.27121   0.54649   0.30288   0.00000  Uiso   1.00
N261   N     0.04759   0.50001   0.25001   0.00000  Uiso   1.00
N262   N     0.28574   0.49999   0.24999   0.00000  Uiso   1.00
O263   O     0.12846   0.56108   0.25000   0.00000  Uiso   1.00
O264   O     0.20488   0.43892   0.24999   0.00000  Uiso   1.00
O265   O     0.20490   0.56107   0.25000   0.00000  Uiso   1.00
O266   O     0.12843   0.43893   0.25000   0.00000  Uiso   1.00
O267   O     0.10661   0.50001   0.31612   0.00000  Uiso   1.00
O268   O     0.22672   0.49999   0.18387   0.00000  Uiso   1.00
O269   O     0.18305   0.50000   0.31612   0.00000  Uiso   1.00
O270   O     0.15028   0.50000   0.18388   0.00000  Uiso   1.00
Zn271  Zn    0.11562   0.50001   0.25000   0.00000  Uiso   1.00
Zn272  Zn    0.21771   0.49999   0.25000   0.00000  Uiso   1.00
F273   F     0.13525   0.48435   0.11154   0.00000  Uiso   1.00
F274   F     0.18658   0.52403   0.39614   0.00000  Uiso   1.00
N275   N     0.11863   0.41290   0.08272   0.00000  Uiso   1.00
H276   H     0.08294   0.40476   0.10168   0.00000  Uiso   1.00
C277   C     0.15384   0.38133   0.08238   0.00000  Uiso   1.00
H278   H     0.16608   0.38712   0.11213   0.00000  Uiso   1.00
H279   H     0.18632   0.38141   0.04911   0.00000  Uiso   1.00
H280   H     0.13676   0.34995   0.08670   0.00000  Uiso   1.00
N281   N     0.25302   0.47101   0.39125   0.00000  Uiso   1.00
H282   H     0.28625   0.48541   0.37487   0.00000  Uiso   1.00
C283   C     0.25149   0.42976   0.37253   0.00000  Uiso   1.00
H284   H     0.26442   0.43131   0.33353   0.00000  Uiso   1.00
H285   H     0.21374   0.41731   0.38571   0.00000  Uiso   1.00
H286   H     0.27549   0.40827   0.38256   0.00000  Uiso   1.00
F287   F     0.22065   0.62582   0.29369   0.00000  Uiso   1.00
F288   F     0.11221   0.37419   0.20688   0.00000  Uiso   1.00
C289   C     0.49993   0.58001   0.25044   0.00000  Uiso   1.00
C290   C     0.50004   0.41999   0.24963   0.00000  Uiso   1.00
C291   C     0.46062   0.43474   0.03975   0.00000  Uiso   1.00
C292   C     0.56798   0.47374   0.44138   0.00000  Uiso   1.00
C293   C     0.42690   0.43033   0.01761   0.00000  Uiso   1.00
C294   C     0.60109   0.47945   0.46397   0.00000  Uiso   1.00
C295   C     0.52786   0.64581   0.27166   0.00000  Uiso   1.00
C296   C     0.47193   0.35422   0.22865   0.00000  Uiso   1.00
C297   C     0.52780   0.35522   0.27103   0.00000  Uiso   1.00
C298   C     0.47204   0.64482   0.22922   0.00000  Uiso   1.00
C299   C     0.49990   0.37588   0.24961   0.00000  Uiso   1.00
C300   C     0.49999   0.62414   0.25058   0.00000  Uiso   1.00
C301   C     0.65376   0.47407   0.22070   0.00000  Uiso   1.00
C302   C     0.34621   0.52586   0.27937   0.00000  Uiso   1.00
C303   C     0.36837   0.47405   0.22074   0.00000  Uiso   1.00
C304   C     0.63159   0.52586   0.27935   0.00000  Uiso   1.00
C305   C     0.46977   0.49927   0.33832   0.00000  Uiso   1.00
C306   C     0.53028   0.49922   0.16159   0.00000  Uiso   1.00
C307   C     0.45235   0.48891   0.38830   0.00000  Uiso   1.00
C308   C     0.54938   0.49320   0.11040   0.00000  Uiso   1.00
C309   C     0.40050   0.44686   0.45311   0.00000  Uiso   1.00
C310   C     0.61683   0.49192   0.03537   0.00000  Uiso   1.00
C311   C     0.40982   0.46538   0.40935   0.00000  Uiso   1.00
C312   C     0.59937   0.49710   0.08404   0.00000  Uiso   1.00
C313   C     0.48480   0.49418   0.41149   0.00000  Uiso   1.00
C314   C     0.51750   0.48159   0.08792   0.00000  Uiso   1.00
C315   C     0.48013   0.46991   0.45083   0.00000  Uiso   1.00
C316   C     0.53552   0.47162   0.03989   0.00000  Uiso   1.00
C317   C     0.43548   0.44906   0.47413   0.00000  Uiso   1.00
C318   C     0.58486   0.48061   0.01295   0.00000  Uiso   1.00
C319   C     0.51765   0.46767   0.46903   0.00000  Uiso   1.00
C320   C     0.50429   0.45790   0.01705   0.00000  Uiso   1.00
H321   H     0.39365   0.41279   0.03475   0.00000  Uiso   1.00
H322   H     0.63914   0.48489   0.44318   0.00000  Uiso   1.00
H323   H     0.62464   0.50574   0.10077   0.00000  Uiso   1.00
H324   H     0.38481   0.46020   0.39136   0.00000  Uiso   1.00
H325   H     0.36695   0.42958   0.46960   0.00000  Uiso   1.00
H326   H     0.65500   0.49772   0.01522   0.00000  Uiso   1.00
H327   H     0.54887   0.37213   0.28783   0.00000  Uiso   1.00
H328   H     0.45092   0.62793   0.21247   0.00000  Uiso   1.00
H329   H     0.64444   0.45336   0.19727   0.00000  Uiso   1.00
H330   H     0.35549   0.54649   0.30289   0.00000  Uiso   1.00
H331   H     0.39536   0.45328   0.19735   0.00000  Uiso   1.00
H332   H     0.60454   0.54649   0.30288   0.00000  Uiso   1.00
N333   N     0.38093   0.50001   0.25001   0.00000  Uiso   1.00
N334   N     0.61907   0.49999   0.24999   0.00000  Uiso   1.00
O335   O     0.46179   0.56108   0.25000   0.00000  Uiso   1.00
O336   O     0.53821   0.43892   0.24999   0.00000  Uiso   1.00
O337   O     0.53823   0.56107   0.25000   0.00000  Uiso   1.00
O338   O     0.46177   0.43893   0.25000   0.00000  Uiso   1.00
O339   O     0.43994   0.50001   0.31612   0.00000  Uiso   1.00
O340   O     0.56006   0.49999   0.18387   0.00000  Uiso   1.00
O341   O     0.51639   0.50000   0.31612   0.00000  Uiso   1.00
O342   O     0.48361   0.50000   0.18388   0.00000  Uiso   1.00
Zn343  Zn    0.44896   0.50001   0.25000   0.00000  Uiso   1.00
Zn344  Zn    0.55104   0.49999   0.25000   0.00000  Uiso   1.00
F345   F     0.46859   0.48435   0.11154   0.00000  Uiso   1.00
F346   F     0.51991   0.52403   0.39614   0.00000  Uiso   1.00
N347   N     0.45196   0.41290   0.08272   0.00000  Uiso   1.00
H348   H     0.41627   0.40476   0.10168   0.00000  Uiso   1.00
C349   C     0.48717   0.38133   0.08238   0.00000  Uiso   1.00
H350   H     0.49942   0.38712   0.11213   0.00000  Uiso   1.00
H351   H     0.51966   0.38141   0.04911   0.00000  Uiso   1.00
H352   H     0.47009   0.34995   0.08670   0.00000  Uiso   1.00
N353   N     0.58635   0.47101   0.39125   0.00000  Uiso   1.00
H354   H     0.61958   0.48541   0.37487   0.00000  Uiso   1.00
C355   C     0.58482   0.42976   0.37253   0.00000  Uiso   1.00
H356   H     0.59775   0.43131   0.33353   0.00000  Uiso   1.00
H357   H     0.54707   0.41731   0.38571   0.00000  Uiso   1.00
H358   H     0.60882   0.40827   0.38256   0.00000  Uiso   1.00
F359   F     0.55398   0.62582   0.29369   0.00000  Uiso   1.00
F360   F     0.44554   0.37419   0.20688   0.00000  Uiso   1.00
C361   C     0.83326   0.58001   0.25044   0.00000  Uiso   1.00
C362   C     0.83337   0.41999   0.24963   0.00000  Uiso   1.00
C363   C     0.79395   0.43474   0.03975   0.00000  Uiso   1.00
C364   C     0.90131   0.47374   0.44138   0.00000  Uiso   1.00
C365   C     0.76023   0.43033   0.01761   0.00000  Uiso   1.00
C366   C     0.93442   0.47945   0.46397   0.00000  Uiso   1.00
C367   C     0.86119   0.64581   0.27166   0.00000  Uiso   1.00
C368   C     0.80526   0.35422   0.22865   0.00000  Uiso   1.00
C369   C     0.86113   0.35522   0.27103   0.00000  Uiso   1.00
C370   C     0.80537   0.64482   0.22922   0.00000  Uiso   1.00
C371   C     0.83323   0.37588   0.24961   0.00000  Uiso   1.00
C372   C     0.83333   0.62414   0.25058   0.00000  Uiso   1.00
C373   C     0.98709   0.47407   0.22070   0.00000  Uiso   1.00
C374   C     0.67954   0.52586   0.27937   0.00000  Uiso   1.00
C375   C     0.70170   0.47405   0.22074   0.00000  Uiso   1.00
C376   C     0.96493   0.52586   0.27935   0.00000  Uiso   1.00
C377   C     0.80310   0.49927   0.33832   0.00000  Uiso   1.00
C378   C     0.86361   0.49922   0.16159   0.00000  Uiso   1.00
C379   C     0.78568   0.48891   0.38830   0.00000  Uiso   1.00
C380   C     0.88272   0.49320   0.11040   0.00000  Uiso   1.00
C381   C     0.73383   0.44686   0.45311   0.00000  Uiso   1.00
C382   C     0.95016   0.49192   0.03537   0.00000  Uiso   1.00
C383   C     0.74316   0.46538   0.40935   0.00000  Uiso   1.00
C384   C     0.93270   0.49710   0.08404   0.00000  Uiso   1.00
C385   C     0.81813   0.49418   0.41149   0.00000  Uiso   1.00
C386   C     0.85083   0.48159   0.08792   0.00000  Uiso   1.00
C387   C     0.81347   0.46991   0.45083   0.00000  Uiso   1.00
C388   C     0.86885   0.47162   0.03989   0.00000  Uiso   1.00
C389   C     0.76881   0.44906   0.47413   0.00000  Uiso   1.00
C390   C     0.91819   0.48061   0.01295   0.00000  Uiso   1.00
C391   C     0.85099   0.46767   0.46903   0.00000  Uiso   1.00
C392   C     0.83763   0.45790   0.01705   0.00000  Uiso   1.00
H393   H     0.72698   0.41279   0.03475   0.00000  Uiso   1.00
H394   H     0.97247   0.48489   0.44318   0.00000  Uiso   1.00
H395   H     0.95797   0.50574   0.10077   0.00000  Uiso   1.00
H396   H     0.71815   0.46020   0.39136   0.00000  Uiso   1.00
H397   H     0.70028   0.42958   0.46960   0.00000  Uiso   1.00
H398   H     0.98833   0.49772   0.01522   0.00000  Uiso   1.00
H399   H     0.88220   0.37213   0.28783   0.00000  Uiso   1.00
H400   H     0.78425   0.62793   0.21247   0.00000  Uiso   1.00
H401   H     0.97777   0.45336   0.19727   0.00000  Uiso   1.00
H402   H     0.68882   0.54649   0.30289   0.00000  Uiso   1.00
H403   H     0.72870   0.45328   0.19735   0.00000  Uiso   1.00
H404   H     0.93787   0.54649   0.30288   0.00000  Uiso   1.00
N405   N     0.71426   0.50001   0.25001   0.00000  Uiso   1.00
N406   N     0.95241   0.49999   0.24999   0.00000  Uiso   1.00
O407   O     0.79512   0.56108   0.25000   0.00000  Uiso   1.00
O408   O     0.87154   0.43892   0.24999   0.00000  Uiso   1.00
O409   O     0.87157   0.56107   0.25000   0.00000  Uiso   1.00
O410   O     0.79510   0.43893   0.25000   0.00000  Uiso   1.00
O411   O     0.77328   0.50001   0.31612   0.00000  Uiso   1.00
O412   O     0.89339   0.49999   0.18387   0.00000  Uiso   1.00
O413   O     0.84972   0.50000   0.31612   0.00000  Uiso   1.00
O414   O     0.81695   0.50000   0.18388   0.00000  Uiso   1.00
Zn415  Zn    0.78229   0.50001   0.25000   0.00000  Uiso   1.00
Zn416  Zn    0.88438   0.49999   0.25000   0.00000  Uiso   1.00
F417   F     0.80192   0.48435   0.11154   0.00000  Uiso   1.00
F418   F     0.85324   0.52403   0.39614   0.00000  Uiso   1.00
N419   N     0.78530   0.41290   0.08272   0.00000  Uiso   1.00
H420   H     0.74960   0.40476   0.10168   0.00000  Uiso   1.00
C421   C     0.82051   0.38133   0.08238   0.00000  Uiso   1.00
H422   H     0.83275   0.38712   0.11213   0.00000  Uiso   1.00
H423   H     0.85299   0.38141   0.04911   0.00000  Uiso   1.00
H424   H     0.80342   0.34995   0.08670   0.00000  Uiso   1.00
N425   N     0.91968   0.47101   0.39125   0.00000  Uiso   1.00
H426   H     0.95292   0.48541   0.37487   0.00000  Uiso   1.00
C427   C     0.91815   0.42976   0.37253   0.00000  Uiso   1.00
H428   H     0.93109   0.43131   0.33353   0.00000  Uiso   1.00
H429   H     0.88040   0.41731   0.38571   0.00000  Uiso   1.00
H430   H     0.94216   0.40827   0.38256   0.00000  Uiso   1.00
F431   F     0.88732   0.62582   0.29369   0.00000  Uiso   1.00
F432   F     0.77888   0.37419   0.20688   0.00000  Uiso   1.00
C433   C     0.16660   0.91335   0.25044   0.00000  Uiso   1.00
C434   C     0.16671   0.75333   0.24963   0.00000  Uiso   1.00
C435   C     0.12728   0.76807   0.03975   0.00000  Uiso   1.00
C436   C     0.23465   0.80707   0.44138   0.00000  Uiso   1.00
C437   C     0.09357   0.76366   0.01761   0.00000  Uiso   1.00
C438   C     0.26775   0.81279   0.46397   0.00000  Uiso   1.00
C439   C     0.19452   0.97914   0.27166   0.00000  Uiso   1.00
C440   C     0.13860   0.68756   0.22865   0.00000  Uiso   1.00
C441   C     0.19446   0.68855   0.27103   0.00000  Uiso   1.00
C442   C     0.13871   0.97815   0.22922   0.00000  Uiso   1.00
C443   C     0.16656   0.70921   0.24961   0.00000  Uiso   1.00
C444   C     0.16666   0.95748   0.25058   0.00000  Uiso   1.00
C445   C     0.32042   0.80740   0.22070   0.00000  Uiso   1.00
C446   C     0.01288   0.85919   0.27937   0.00000  Uiso   1.00
C447   C     0.03503   0.80738   0.22074   0.00000  Uiso   1.00
C448   C     0.29826   0.85919   0.27935   0.00000  Uiso   1.00
C449   C     0.13643   0.83261   0.33832   0.00000  Uiso   1.00
C450   C     0.19695   0.83255   0.16159   0.00000  Uiso   1.00
C451   C     0.11902   0.82225   0.38830   0.00000  Uiso   1.00
C452   C     0.21605   0.82653   0.11040   0.00000  Uiso   1.00
C453   C     0.06716   0.78019   0.45311   0.00000  Uiso   1.00
C454   C     0.28350   0.82525   0.03537   0.00000  Uiso   1.00
C455   C     0.07649   0.79871   0.40935   0.00000  Uiso   1.00
C456   C     0.26603   0.83044   0.08404   0.00000  Uiso   1.00
C457   C     0.15146   0.82752   0.41149   0.00000  Uiso   1.00
C458   C     0.18416   0.81492   0.08792   0.00000  Uiso   1.00
C459   C     0.14680   0.80324   0.45083   0.00000  Uiso   1.00
C460   C     0.20218   0.80496   0.03989   0.00000  Uiso   1.00
C461   C     0.10214   0.78240   0.47413   0.00000  Uiso   1.00
C462   C     0.25152   0.81394   0.01295   0.00000  Uiso   1.00
C463   C     0.18432   0.80101   0.46903   0.00000  Uiso   1.00
C464   C     0.17096   0.79123   0.01705   0.00000  Uiso   1.00
H465   H     0.06031   0.74613   0.03475   0.00000  Uiso   1.00
H466   H     0.30580   0.81822   0.44318   0.00000  Uiso   1.00
H467   H     0.29130   0.83907   0.10077   0.00000  Uiso   1.00
H468   H     0.05148   0.79353   0.39136   0.00000  Uiso   1.00
H469   H     0.03362   0.76291   0.46960   0.00000  Uiso   1.00
H470   H     0.32167   0.83106   0.01522   0.00000  Uiso   1.00
H471   H     0.21554   0.70546   0.28783   0.00000  Uiso   1.00
H472   H     0.11759   0.96126   0.21247   0.00000  Uiso   1.00
H473   H     0.31111   0.78669   0.19727   0.00000  Uiso   1.00
H474   H     0.02215   0.87983   0.30289   0.00000  Uiso   1.00
H475   H     0.06203   0.78661   0.19735   0.00000  Uiso   1.00
H476   H     0.27121   0.87983   0.30288   0.00000  Uiso   1.00
N477   N     0.04759   0.83334   0.25001   0.00000  Uiso   1.00
N478   N     0.28574   0.83332   0.24999   0.00000  Uiso   1.00
O479   O     0.12846   0.89442   0.25000   0.00000  Uiso   1.00
O480   O     0.20488   0.77225   0.24999   0.00000  Uiso   1.00
O481   O     0.20490   0.89441   0.25000   0.00000  Uiso   1.00
O482   O     0.12843   0.77226   0.25000   0.00000  Uiso   1.00
O483   O     0.10661   0.83334   0.31612   0.00000  Uiso   1.00
O484   O     0.22672   0.83333   0.18387   0.00000  Uiso   1.00
O485   O     0.18305   0.83333   0.31612   0.00000  Uiso   1.00
O486   O     0.15028   0.83334   0.18388   0.00000  Uiso   1.00
Zn487  Zn    0.11562   0.83334   0.25000   0.00000  Uiso   1.00
Zn488  Zn    0.21771   0.83333   0.25000   0.00000  Uiso   1.00
F489   F     0.13525   0.81769   0.11154   0.00000  Uiso   1.00
F490   F     0.18658   0.85736   0.39614   0.00000  Uiso   1.00
N491   N     0.11863   0.74623   0.08272   0.00000  Uiso   1.00
H492   H     0.08294   0.73809   0.10168   0.00000  Uiso   1.00
C493   C     0.15384   0.71466   0.08238   0.00000  Uiso   1.00
H494   H     0.16608   0.72045   0.11213   0.00000  Uiso   1.00
H495   H     0.18632   0.71474   0.04911   0.00000  Uiso   1.00
H496   H     0.13676   0.68328   0.08670   0.00000  Uiso   1.00
N497   N     0.25302   0.80435   0.39125   0.00000  Uiso   1.00
H498   H     0.28625   0.81875   0.37487   0.00000  Uiso   1.00
C499   C     0.25149   0.76310   0.37253   0.00000  Uiso   1.00
H500   H     0.26442   0.76464   0.33353   0.00000  Uiso   1.00
H501   H     0.21374   0.75064   0.38571   0.00000  Uiso   1.00
H502   H     0.27549   0.74161   0.38256   0.00000  Uiso   1.00
F503   F     0.22065   0.95915   0.29369   0.00000  Uiso   1.00
F504   F     0.11221   0.70753   0.20688   0.00000  Uiso   1.00
C505   C     0.49993   0.91335   0.25044   0.00000  Uiso   1.00
C506   C     0.50004   0.75333   0.24963   0.00000  Uiso   1.00
C507   C     0.46062   0.76807   0.03975   0.00000  Uiso   1.00
C508   C     0.56798   0.80707   0.44138   0.00000  Uiso   1.00
C509   C     0.42690   0.76366   0.01761   0.00000  Uiso   1.00
C510   C     0.60109   0.81279   0.46397   0.00000  Uiso   1.00
C511   C     0.52786   0.97914   0.27166   0.00000  Uiso   1.00
C512   C     0.47193   0.68756   0.22865   0.00000  Uiso   1.00
C513   C     0.52780   0.68855   0.27103   0.00000  Uiso   1.00
C514   C     0.47204   0.97815   0.22922   0.00000  Uiso   1.00
C515   C     0.49990   0.70921   0.24961   0.00000  Uiso   1.00
C516   C     0.49999   0.95748   0.25058   0.00000  Uiso   1.00
C517   C     0.65376   0.80740   0.22070   0.00000  Uiso   1.00
C518   C     0.34621   0.85919   0.27937   0.00000  Uiso   1.00
C519   C     0.36837   0.80738   0.22074   0.00000  Uiso   1.00
C520   C     0.63159   0.85919   0.27935   0.00000  Uiso   1.00
C521   C     0.46977   0.83261   0.33832   0.00000  Uiso   1.00
C522   C     0.53028   0.83255   0.16159   0.00000  Uiso   1.00
C523   C     0.45235   0.82225   0.38830   0.00000  Uiso   1.00
C524   C     0.54938   0.82653   0.11040   0.00000  Uiso   1.00
C525   C     0.40050   0.78019   0.45311   0.00000  Uiso   1.00
C526   C     0.61683   0.82525   0.03537   0.00000  Uiso   1.00
C527   C     0.40982   0.79871   0.40935   0.00000  Uiso   1.00
C528   C     0.59937   0.83044   0.08404   0.00000  Uiso   1.00
C529   C     0.48480   0.82752   0.41149   0.00000  Uiso   1.00
C530   C     0.51750   0.81492   0.08792   0.00000  Uiso   1.00
C531   C     0.48013   0.80324   0.45083   0.00000  Uiso   1.00
C532   C     0.53552   0.80496   0.03989   0.00000  Uiso   1.00
C533   C     0.43548   0.78240   0.47413   0.00000  Uiso   1.00
C534   C     0.58486   0.81394   0.01295   0.00000  Uiso   1.00
C535   C     0.51765   0.80101   0.46903   0.00000  Uiso   1.00
C536   C     0.50429   0.79123   0.01705   0.00000  Uiso   1.00
H537   H     0.39365   0.74613   0.03475   0.00000  Uiso   1.00
H538   H     0.63914   0.81822   0.44318   0.00000  Uiso   1.00
H539   H     0.62464   0.83907   0.10077   0.00000  Uiso   1.00
H540   H     0.38481   0.79353   0.39136   0.00000  Uiso   1.00
H541   H     0.36695   0.76291   0.46960   0.00000  Uiso   1.00
H542   H     0.65500   0.83106   0.01522   0.00000  Uiso   1.00
H543   H     0.54887   0.70546   0.28783   0.00000  Uiso   1.00
H544   H     0.45092   0.96126   0.21247   0.00000  Uiso   1.00
H545   H     0.64444   0.78669   0.19727   0.00000  Uiso   1.00
H546   H     0.35549   0.87983   0.30289   0.00000  Uiso   1.00
H547   H     0.39536   0.78661   0.19735   0.00000  Uiso   1.00
H548   H     0.60454   0.87983   0.30288   0.00000  Uiso   1.00
N549   N     0.38093   0.83334   0.25001   0.00000  Uiso   1.00
N550   N     0.61907   0.83332   0.24999   0.00000  Uiso   1.00
O551   O     0.46179   0.89442   0.25000   0.00000  Uiso   1.00
O552   O     0.53821   0.77225   0.24999   0.00000  Uiso   1.00
O553   O     0.53823   0.89441   0.25000   0.00000  Uiso   1.00
O554   O     0.46177   0.77226   0.25000   0.00000  Uiso   1.00
O555   O     0.43994   0.83334   0.31612   0.00000  Uiso   1.00
O556   O     0.56006   0.83333   0.18387   0.00000  Uiso   1.00
O557   O     0.51639   0.83333   0.31612   0.00000  Uiso   1.00
O558   O     0.48361   0.83334   0.18388   0.00000  Uiso   1.00
Zn559  Zn    0.44896   0.83334   0.25000   0.00000  Uiso   1.00
Zn560  Zn    0.55104   0.83333   0.25000   0.00000  Uiso   1.00
F561   F     0.46859   0.81769   0.11154   0.00000  Uiso   1.00
F562   F     0.51991   0.85736   0.39614   0.00000  Uiso   1.00
N563   N     0.45196   0.74623   0.08272   0.00000  Uiso   1.00
H564   H     0.41627   0.73809   0.10168   0.00000  Uiso   1.00
C565   C     0.48717   0.71466   0.08238   0.00000  Uiso   1.00
H566   H     0.49942   0.72045   0.11213   0.00000  Uiso   1.00
H567   H     0.51966   0.71474   0.04911   0.00000  Uiso   1.00
H568   H     0.47009   0.68328   0.08670   0.00000  Uiso   1.00
N569   N     0.58635   0.80435   0.39125   0.00000  Uiso   1.00
H570   H     0.61958   0.81875   0.37487   0.00000  Uiso   1.00
C571   C     0.58482   0.76310   0.37253   0.00000  Uiso   1.00
H572   H     0.59775   0.76464   0.33353   0.00000  Uiso   1.00
H573   H     0.54707   0.75064   0.38571   0.00000  Uiso   1.00
H574   H     0.60882   0.74161   0.38256   0.00000  Uiso   1.00
F575   F     0.55398   0.95915   0.29369   0.00000  Uiso   1.00
F576   F     0.44554   0.70753   0.20688   0.00000  Uiso   1.00
C577   C     0.83326   0.91335   0.25044   0.00000  Uiso   1.00
C578   C     0.83337   0.75333   0.24963   0.00000  Uiso   1.00
C579   C     0.79395   0.76807   0.03975   0.00000  Uiso   1.00
C580   C     0.90131   0.80707   0.44138   0.00000  Uiso   1.00
C581   C     0.76023   0.76366   0.01761   0.00000  Uiso   1.00
C582   C     0.93442   0.81279   0.46397   0.00000  Uiso   1.00
C583   C     0.86119   0.97914   0.27166   0.00000  Uiso   1.00
C584   C     0.80526   0.68756   0.22865   0.00000  Uiso   1.00
C585   C     0.86113   0.68855   0.27103   0.00000  Uiso   1.00
C586   C     0.80537   0.97815   0.22922   0.00000  Uiso   1.00
C587   C     0.83323   0.70921   0.24961   0.00000  Uiso   1.00
C588   C     0.83333   0.95748   0.25058   0.00000  Uiso   1.00
C589   C     0.98709   0.80740   0.22070   0.00000  Uiso   1.00
C590   C     0.67954   0.85919   0.27937   0.00000  Uiso   1.00
C591   C     0.70170   0.80738   0.22074   0.00000  Uiso   1.00
C592   C     0.96493   0.85919   0.27935   0.00000  Uiso   1.00
C593   C     0.80310   0.83261   0.33832   0.00000  Uiso   1.00
C594   C     0.86361   0.83255   0.16159   0.00000  Uiso   1.00
C595   C     0.78568   0.82225   0.38830   0.00000  Uiso   1.00
C596   C     0.88272   0.82653   0.11040   0.00000  Uiso   1.00
C597   C     0.73383   0.78019   0.45311   0.00000  Uiso   1.00
C598   C     0.95016   0.82525   0.03537   0.00000  Uiso   1.00
C599   C     0.74316   0.79871   0.40935   0.00000  Uiso   1.00
C600   C     0.93270   0.83044   0.08404   0.00000  Uiso   1.00
C601   C     0.81813   0.82752   0.41149   0.00000  Uiso   1.00
C602   C     0.85083   0.81492   0.08792   0.00000  Uiso   1.00
C603   C     0.81347   0.80324   0.45083   0.00000  Uiso   1.00
C604   C     0.86885   0.80496   0.03989   0.00000  Uiso   1.00
C605   C     0.76881   0.78240   0.47413   0.00000  Uiso   1.00
C606   C     0.91819   0.81394   0.01295   0.00000  Uiso   1.00
C607   C     0.85099   0.80101   0.46903   0.00000  Uiso   1.00
C608   C     0.83763   0.79123   0.01705   0.00000  Uiso   1.00
H609   H     0.72698   0.74613   0.03475   0.00000  Uiso   1.00
H610   H     0.97247   0.81822   0.44318   0.00000  Uiso   1.00
H611   H     0.95797   0.83907   0.10077   0.00000  Uiso   1.00
H612   H     0.71815   0.79353   0.39136   0.00000  Uiso   1.00
H613   H     0.70028   0.76291   0.46960   0.00000  Uiso   1.00
H614   H     0.98833   0.83106   0.01522   0.00000  Uiso   1.00
H615   H     0.88220   0.70546   0.28783   0.00000  Uiso   1.00
H616   H     0.78425   0.96126   0.21247   0.00000  Uiso   1.00
H617   H     0.97777   0.78669   0.19727   0.00000  Uiso   1.00
H618   H     0.68882   0.87983   0.30289   0.00000  Uiso   1.00
H619   H     0.72870   0.78661   0.19735   0.00000  Uiso   1.00
H620   H     0.93787   0.87983   0.30288   0.00000  Uiso   1.00
N621   N     0.71426   0.83334   0.25001   0.00000  Uiso   1.00
N622   N     0.95241   0.83332   0.24999   0.00000  Uiso   1.00
O623   O     0.79512   0.89442   0.25000   0.00000  Uiso   1.00
O624   O     0.87154   0.77225   0.24999   0.00000  Uiso   1.00
O625   O     0.87157   0.89441   0.25000   0.00000  Uiso   1.00
O626   O     0.79510   0.77226   0.25000   0.00000  Uiso   1.00
O627   O     0.77328   0.83334   0.31612   0.00000  Uiso   1.00
O628   O     0.89339   0.83333   0.18387   0.00000  Uiso   1.00
O629   O     0.84972   0.83333   0.31612   0.00000  Uiso   1.00
O630   O     0.81695   0.83334   0.18388   0.00000  Uiso   1.00
Zn631  Zn    0.78229   0.83334   0.25000   0.00000  Uiso   1.00
Zn632  Zn    0.88438   0.83333   0.25000   0.00000  Uiso   1.00
F633   F     0.80192   0.81769   0.11154   0.00000  Uiso   1.00
F634   F     0.85324   0.85736   0.39614   0.00000  Uiso   1.00
N635   N     0.78530   0.74623   0.08272   0.00000  Uiso   1.00
H636   H     0.74960   0.73809   0.10168   0.00000  Uiso   1.00
C637   C     0.82051   0.71466   0.08238   0.00000  Uiso   1.00
H638   H     0.83275   0.72045   0.11213   0.00000  Uiso   1.00
H639   H     0.85299   0.71474   0.04911   0.00000  Uiso   1.00
H640   H     0.80342   0.68328   0.08670   0.00000  Uiso   1.00
N641   N     0.91968   0.80435   0.39125   0.00000  Uiso   1.00
H642   H     0.95292   0.81875   0.37487   0.00000  Uiso   1.00
C643   C     0.91815   0.76310   0.37253   0.00000  Uiso   1.00
H644   H     0.93109   0.76464   0.33353   0.00000  Uiso   1.00
H645   H     0.88040   0.75064   0.38571   0.00000  Uiso   1.00
H646   H     0.94216   0.74161   0.38256   0.00000  Uiso   1.00
F647   F     0.88732   0.95915   0.29369   0.00000  Uiso   1.00
F648   F     0.77888   0.70753   0.20688   0.00000  Uiso   1.00
C649   C     0.16660   0.24668   0.75044   0.00000  Uiso   1.00
C650   C     0.16671   0.08666   0.74963   0.00000  Uiso   1.00
C651   C     0.12728   0.10140   0.53975   0.00000  Uiso   1.00
C652   C     0.23465   0.14040   0.94138   0.00000  Uiso   1.00
C653   C     0.09357   0.09700   0.51761   0.00000  Uiso   1.00
C654   C     0.26775   0.14612   0.96397   0.00000  Uiso   1.00
C655   C     0.19452   0.31247   0.77166   0.00000  Uiso   1.00
C656   C     0.13860   0.02089   0.72865   0.00000  Uiso   1.00
C657   C     0.19446   0.02188   0.77103   0.00000  Uiso   1.00
C658   C     0.13871   0.31149   0.72922   0.00000  Uiso   1.00
C659   C     0.16656   0.04255   0.74961   0.00000  Uiso   1.00
C660   C     0.16666   0.29081   0.75058   0.00000  Uiso   1.00
C661   C     0.32042   0.14073   0.72070   0.00000  Uiso   1.00
C662   C     0.01288   0.19252   0.77937   0.00000  Uiso   1.00
C663   C     0.03503   0.14072   0.72074   0.00000  Uiso   1.00
C664   C     0.29826   0.19252   0.77935   0.00000  Uiso   1.00
C665   C     0.13643   0.16594   0.83832   0.00000  Uiso   1.00
C666   C     0.19695   0.16588   0.66159   0.00000  Uiso   1.00
C667   C     0.11902   0.15558   0.88830   0.00000  Uiso   1.00
C668   C     0.21605   0.15986   0.61040   0.00000  Uiso   1.00
C669   C     0.06716   0.11352   0.95311   0.00000  Uiso   1.00
C670   C     0.28350   0.15859   0.53537   0.00000  Uiso   1.00
C671   C     0.07649   0.13204   0.90935   0.00000  Uiso   1.00
C672   C     0.26603   0.16377   0.58404   0.00000  Uiso   1.00
C673   C     0.15146   0.16085   0.91149   0.00000  Uiso   1.00
C674   C     0.18416   0.14825   0.58792   0.00000  Uiso   1.00
C675   C     0.14680   0.13658   0.95083   0.00000  Uiso   1.00
C676   C     0.20218   0.13829   0.53989   0.00000  Uiso   1.00
C677   C     0.10214   0.11573   0.97413   0.00000  Uiso   1.00
C678   C     0.25152   0.14727   0.51295   0.00000  Uiso   1.00
C679   C     0.18432   0.13434   0.96903   0.00000  Uiso   1.00
C680   C     0.17096   0.12456   0.51705   0.00000  Uiso   1.00
H681   H     0.06031   0.07946   0.53475   0.00000  Uiso   1.00
H682   H     0.30580   0.15156   0.94318   0.00000  Uiso   1.00
H683   H     0.29130   0.17241   0.60077   0.00000  Uiso   1.00
H684   H     0.05148   0.12687   0.89136   0.00000  Uiso   1.00
H685   H     0.03362   0.09624   0.96960   0.00000  Uiso   1.00
H686   H     0.32167   0.16439   0.51522   0.00000  Uiso   1.00
H687   H     0.21554   0.03879   0.78783   0.00000  Uiso   1.00
H688   H     0.11759   0.29460   0.71247   0.00000  Uiso   1.00
H689   H     0.31111   0.12002   0.69727   0.00000  Uiso   1.00
H690   H     0.02215   0.21316   0.80289   0.00000  Uiso   1.00
H691   H     0.06203   0.11995   0.69735   0.00000  Uiso   1.00
H692   H     0.27121   0.21316   0.80288   0.00000  Uiso   1.00
N693   N     0.04759   0.16668   0.75001   0.00000  Uiso   1.00
N694   N     0.28574   0.16666   0.74999   0.00000  Uiso   1.00
O695   O     0.12846   0.22775   0.75000   0.00000  Uiso   1.00
O696   O     0.20488   0.10558   0.74999   0.00000  Uiso   1.00
O697   O     0.20490   0.22774   0.75000   0.00000  Uiso   1.00
O698   O     0.12843   0.10559   0.75000   0.00000  Uiso   1.00
O699   O     0.10661   0.16667   0.81612   0.00000  Uiso   1.00
O700   O     0.22672   0.16666   0.68387   0.00000  Uiso   1.00
O701   O     0.18305   0.16666   0.81612   0.00000  Uiso   1.00
O702   O     0.15028   0.16667   0.68388   0.00000  Uiso   1.00
Zn703  Zn    0.11562   0.16667   0.75000   0.00000  Uiso   1.00
Zn704  Zn    0.21771   0.16666   0.75000   0.00000  Uiso   1.00
F705   F     0.13525   0.15102   0.61154   0.00000  Uiso   1.00
F706   F     0.18658   0.19070   0.89614   0.00000  Uiso   1.00
N707   N     0.11863   0.07956   0.58272   0.00000  Uiso   1.00
H708   H     0.08294   0.07142   0.60168   0.00000  Uiso   1.00
C709   C     0.15384   0.04799   0.58238   0.00000  Uiso   1.00
H710   H     0.16608   0.05378   0.61213   0.00000  Uiso   1.00
H711   H     0.18632   0.04807   0.54911   0.00000  Uiso   1.00
H712   H     0.13676   0.01662   0.58670   0.00000  Uiso   1.00
N713   N     0.25302   0.13768   0.89125   0.00000  Uiso   1.00
H714   H     0.28625   0.15208   0.87487   0.00000  Uiso   1.00
C715   C     0.25149   0.09643   0.87253   0.00000  Uiso   1.00
H716   H     0.26442   0.09797   0.83353   0.00000  Uiso   1.00
H717   H     0.21374   0.08398   0.88571   0.00000  Uiso   1.00
H718   H     0.27549   0.07494   0.88256   0.00000  Uiso   1.00
F719   F     0.22065   0.29249   0.79369   0.00000  Uiso   1.00
F720   F     0.11221   0.04086   0.70688   0.00000  Uiso   1.00
C721   C     0.49993   0.24668   0.75044   0.00000  Uiso   1.00
C722   C     0.50004   0.08666   0.74963   0.00000  Uiso   1.00
C723   C     0.46062   0.10140   0.53975   0.00000  Uiso   1.00
C724   C     0.56798   0.14040   0.94138   0.00000  Uiso   1.00
C725   C     0.42690   0.09700   0.51761   0.00000  Uiso   1.00
C726   C     0.60109   0.14612   0.96397   0.00000  Uiso   1.00
C727   C     0.52786   0.31247   0.77166   0.00000  Uiso   1.00
C728   C     0.47193   0.02089   0.72865   0.00000  Uiso   1.00
C729   C     0.52780   0.02188   0.77103   0.00000  Uiso   1.00
C730   C     0.47204   0.31149   0.72922   0.00000  Uiso   1.00
C731   C     0.49990   0.04255   0.74961   0.00000  Uiso   1.00
C732   C     0.49999   0.29081   0.75058   0.00000  Uiso   1.00
C733   C     0.65376   0.14073   0.72070   0.00000  Uiso   1.00
C734   C     0.34621   0.19252   0.77937   0.00000  Uiso   1.00
C735   C     0.36837   0.14072   0.72074   0.00000  Uiso   1.00
C736   C     0.63159   0.19252   0.77935   0.00000  Uiso   1.00
C737   C     0.46977   0.16594   0.83832   0.00000  Uiso   1.00
C738   C     0.53028   0.16588   0.66159   0.00000  Uiso   1.00
C739   C     0.45235   0.15558   0.88830   0.00000  Uiso   1.00
C740   C     0.54938   0.15986   0.61040   0.00000  Uiso   1.00
C741   C     0.40050   0.11352   0.95311   0.00000  Uiso   1.00
C742   C     0.61683   0.15859   0.53537   0.00000  Uiso   1.00
C743   C     0.40982   0.13204   0.90935   0.00000  Uiso   1.00
C744   C     0.59937   0.16377   0.58404   0.00000  Uiso   1.00
C745   C     0.48480   0.16085   0.91149   0.00000  Uiso   1.00
C746   C     0.51750   0.14825   0.58792   0.00000  Uiso   1.00
C747   C     0.48013   0.13658   0.95083   0.00000  Uiso   1.00
C748   C     0.53552   0.13829   0.53989   0.00000  Uiso   1.00
C749   C     0.43548   0.11573   0.97413   0.00000  Uiso   1.00
C750   C     0.58486   0.14727   0.51295   0.00000  Uiso   1.00
C751   C     0.51765   0.13434   0.96903   0.00000  Uiso   1.00
C752   C     0.50429   0.12456   0.51705   0.00000  Uiso   1.00
H753   H     0.39365   0.07946   0.53475   0.00000  Uiso   1.00
H754   H     0.63914   0.15156   0.94318   0.00000  Uiso   1.00
H755   H     0.62464   0.17241   0.60077   0.00000  Uiso   1.00
H756   H     0.38481   0.12687   0.89136   0.00000  Uiso   1.00
H757   H     0.36695   0.09624   0.96960   0.00000  Uiso   1.00
H758   H     0.65500   0.16439   0.51522   0.00000  Uiso   1.00
H759   H     0.54887   0.03879   0.78783   0.00000  Uiso   1.00
H760   H     0.45092   0.29460   0.71247   0.00000  Uiso   1.00
H761   H     0.64444   0.12002   0.69727   0.00000  Uiso   1.00
H762   H     0.35549   0.21316   0.80289   0.00000  Uiso   1.00
H763   H     0.39536   0.11995   0.69735   0.00000  Uiso   1.00
H764   H     0.60454   0.21316   0.80288   0.00000  Uiso   1.00
N765   N     0.38093   0.16668   0.75001   0.00000  Uiso   1.00
N766   N     0.61907   0.16666   0.74999   0.00000  Uiso   1.00
O767   O     0.46179   0.22775   0.75000   0.00000  Uiso   1.00
O768   O     0.53821   0.10558   0.74999   0.00000  Uiso   1.00
O769   O     0.53823   0.22774   0.75000   0.00000  Uiso   1.00
O770   O     0.46177   0.10559   0.75000   0.00000  Uiso   1.00
O771   O     0.43994   0.16667   0.81612   0.00000  Uiso   1.00
O772   O     0.56006   0.16666   0.68387   0.00000  Uiso   1.00
O773   O     0.51639   0.16666   0.81612   0.00000  Uiso   1.00
O774   O     0.48361   0.16667   0.68388   0.00000  Uiso   1.00
Zn775  Zn    0.44896   0.16667   0.75000   0.00000  Uiso   1.00
Zn776  Zn    0.55104   0.16666   0.75000   0.00000  Uiso   1.00
F777   F     0.46859   0.15102   0.61154   0.00000  Uiso   1.00
F778   F     0.51991   0.19070   0.89614   0.00000  Uiso   1.00
N779   N     0.45196   0.07956   0.58272   0.00000  Uiso   1.00
H780   H     0.41627   0.07142   0.60168   0.00000  Uiso   1.00
C781   C     0.48717   0.04799   0.58238   0.00000  Uiso   1.00
H782   H     0.49942   0.05378   0.61213   0.00000  Uiso   1.00
H783   H     0.51966   0.04807   0.54911   0.00000  Uiso   1.00
H784   H     0.47009   0.01662   0.58670   0.00000  Uiso   1.00
N785   N     0.58635   0.13768   0.89125   0.00000  Uiso   1.00
H786   H     0.61958   0.15208   0.87487   0.00000  Uiso   1.00
C787   C     0.58482   0.09643   0.87253   0.00000  Uiso   1.00
H788   H     0.59775   0.09797   0.83353   0.00000  Uiso   1.00
H789   H     0.54707   0.08398   0.88571   0.00000  Uiso   1.00
H790   H     0.60882   0.07494   0.88256   0.00000  Uiso   1.00
F791   F     0.55398   0.29249   0.79369   0.00000  Uiso   1.00
F792   F     0.44554   0.04086   0.70688   0.00000  Uiso   1.00
C793   C     0.83326   0.24668   0.75044   0.00000  Uiso   1.00
C794   C     0.83337   0.08666   0.74963   0.00000  Uiso   1.00
C795   C     0.79395   0.10140   0.53975   0.00000  Uiso   1.00
C796   C     0.90131   0.14040   0.94138   0.00000  Uiso   1.00
C797   C     0.76023   0.09700   0.51761   0.00000  Uiso   1.00
C798   C     0.93442   0.14612   0.96397   0.00000  Uiso   1.00
C799   C     0.86119   0.31247   0.77166   0.00000  Uiso   1.00
C800   C     0.80526   0.02089   0.72865   0.00000  Uiso   1.00
C801   C     0.86113   0.02188   0.77103   0.00000  Uiso   1.00
C802   C     0.80537   0.31149   0.72922   0.00000  Uiso   1.00
C803   C     0.83323   0.04255   0.74961   0.00000  Uiso   1.00
C804   C     0.83333   0.29081   0.75058   0.00000  Uiso   1.00
C805   C     0.98709   0.14073   0.72070   0.00000  Uiso   1.00
C806   C     0.67954   0.19252   0.77937   0.00000  Uiso   1.00
C807   C     0.70170   0.14072   0.72074   0.00000  Uiso   1.00
C808   C     0.96493   0.19252   0.77935   0.00000  Uiso   1.00
C809   C     0.80310   0.16594   0.83832   0.00000  Uiso   1.00
C810   C     0.86361   0.16588   0.66159   0.00000  Uiso   1.00
C811   C     0.78568   0.15558   0.88830   0.00000  Uiso   1.00
C812   C     0.88272   0.15986   0.61040   0.00000  Uiso   1.00
C813   C     0.73383   0.11352   0.95311   0.00000  Uiso   1.00
C814   C     0.95016   0.15859   0.53537   0.00000  Uiso   1.00
C815   C     0.74316   0.13204   0.90935   0.00000  Uiso   1.00
C816   C     0.93270   0.16377   0.58404   0.00000  Uiso   1.00
C817   C     0.81813   0.16085   0.91149   0.00000  Uiso   1.00
C818   C     0.85083   0.14825   0.58792   0.00000  Uiso   1.00
C819   C     0.81347   0.13658   0.95083   0.00000  Uiso   1.00
C820   C     0.86885   0.13829   0.53989   0.00000  Uiso   1.00
C821   C     0.76881   0.11573   0.97413   0.00000  Uiso   1.00
C822   C     0.91819   0.14727   0.51295   0.00000  Uiso   1.00
C823   C     0.85099   0.13434   0.96903   0.00000  Uiso   1.00
C824   C     0.83763   0.12456   0.51705   0.00000  Uiso   1.00
H825   H     0.72698   0.07946   0.53475   0.00000  Uiso   1.00
H826   H     0.97247   0.15156   0.94318   0.00000  Uiso   1.00
H827   H     0.95797   0.17241   0.60077   0.00000  Uiso   1.00
H828   H     0.71815   0.12687   0.89136   0.00000  Uiso   1.00
H829   H     0.70028   0.09624   0.96960   0.00000  Uiso   1.00
H830   H     0.98833   0.16439   0.51522   0.00000  Uiso   1.00
H831   H     0.88220   0.03879   0.78783   0.00000  Uiso   1.00
H832   H     0.78425   0.29460   0.71247   0.00000  Uiso   1.00
H833   H     0.97777   0.12002   0.69727   0.00000  Uiso   1.00
H834   H     0.68882   0.21316   0.80289   0.00000  Uiso   1.00
H835   H     0.72870   0.11995   0.69735   0.00000  Uiso   1.00
H836   H     0.93787   0.21316   0.80288   0.00000  Uiso   1.00
N837   N     0.71426   0.16668   0.75001   0.00000  Uiso   1.00
N838   N     0.95241   0.16666   0.74999   0.00000  Uiso   1.00
O839   O     0.79512   0.22775   0.75000   0.00000  Uiso   1.00
O840   O     0.87154   0.10558   0.74999   0.00000  Uiso   1.00
O841   O     0.87157   0.22774   0.75000   0.00000  Uiso   1.00
O842   O     0.79510   0.10559   0.75000   0.00000  Uiso   1.00
O843   O     0.77328   0.16667   0.81612   0.00000  Uiso   1.00
O844   O     0.89339   0.16666   0.68387   0.00000  Uiso   1.00
O845   O     0.84972   0.16666   0.81612   0.00000  Uiso   1.00
O846   O     0.81695   0.16667   0.68388   0.00000  Uiso   1.00
Zn847  Zn    0.78229   0.16667   0.75000   0.00000  Uiso   1.00
Zn848  Zn    0.88438   0.16666   0.75000   0.00000  Uiso   1.00
F849   F     0.80192   0.15102   0.61154   0.00000  Uiso   1.00
F850   F     0.85324   0.19070   0.89614   0.00000  Uiso   1.00
N851   N     0.78530   0.07956   0.58272   0.00000  Uiso   1.00
H852   H     0.74960   0.07142   0.60168   0.00000  Uiso   1.00
C853   C     0.82051   0.04799   0.58238   0.00000  Uiso   1.00
H854   H     0.83275   0.05378   0.61213   0.00000  Uiso   1.00
H855   H     0.85299   0.04807   0.54911   0.00000  Uiso   1.00
H856   H     0.80342   0.01662   0.58670   0.00000  Uiso   1.00
N857   N     0.91968   0.13768   0.89125   0.00000  Uiso   1.00
H858   H     0.95292   0.15208   0.87487   0.00000  Uiso   1.00
C859   C     0.91815   0.09643   0.87253   0.00000  Uiso   1.00
H860   H     0.93109   0.09797   0.83353   0.00000  Uiso   1.00
H861   H     0.88040   0.08398   0.88571   0.00000  Uiso   1.00
H862   H     0.94216   0.07494   0.88256   0.00000  Uiso   1.00
F863   F     0.88732   0.29249   0.79369   0.00000  Uiso   1.00
F864   F     0.77888   0.04086   0.70688   0.00000  Uiso   1.00
C865   C     0.16660   0.58001   0.75044   0.00000  Uiso   1.00
C866   C     0.16671   0.41999   0.74963   0.00000  Uiso   1.00
C867   C     0.12728   0.43474   0.53975   0.00000  Uiso   1.00
C868   C     0.23465   0.47374   0.94138   0.00000  Uiso   1.00
C869   C     0.09357   0.43033   0.51761   0.00000  Uiso   1.00
C870   C     0.26775   0.47945   0.96397   0.00000  Uiso   1.00
C871   C     0.19452   0.64581   0.77166   0.00000  Uiso   1.00
C872   C     0.13860   0.35422   0.72865   0.00000  Uiso   1.00
C873   C     0.19446   0.35522   0.77103   0.00000  Uiso   1.00
C874   C     0.13871   0.64482   0.72922   0.00000  Uiso   1.00
C875   C     0.16656   0.37588   0.74961   0.00000  Uiso   1.00
C876   C     0.16666   0.62414   0.75058   0.00000  Uiso   1.00
C877   C     0.32042   0.47407   0.72070   0.00000  Uiso   1.00
C878   C     0.01288   0.52586   0.77937   0.00000  Uiso   1.00
C879   C     0.03503   0.47405   0.72074   0.00000  Uiso   1.00
C880   C     0.29826   0.52586   0.77935   0.00000  Uiso   1.00
C881   C     0.13643   0.49927   0.83832   0.00000  Uiso   1.00
C882   C     0.19695   0.49922   0.66159   0.00000  Uiso   1.00
C883   C     0.11902   0.48891   0.88830   0.00000  Uiso   1.00
C884   C     0.21605   0.49320   0.61040   0.00000  Uiso   1.00
C885   C     0.06716   0.44686   0.95311   0.00000  Uiso   1.00
C886   C     0.28350   0.49192   0.53537   0.00000  Uiso   1.00
C887   C     0.07649   0.46538   0.90935   0.00000  Uiso   1.00
C888   C     0.26603   0.49710   0.58404   0.00000  Uiso   1.00
C889   C     0.15146   0.49418   0.91149   0.00000  Uiso   1.00
C890   C     0.18416   0.48159   0.58792   0.00000  Uiso   1.00
C891   C     0.14680   0.46991   0.95083   0.00000  Uiso   1.00
C892   C     0.20218   0.47162   0.53989   0.00000  Uiso   1.00
C893   C     0.10214   0.44906   0.97413   0.00000  Uiso   1.00
C894   C     0.25152   0.48061   0.51295   0.00000  Uiso   1.00
C895   C     0.18432   0.46767   0.96903   0.00000  Uiso   1.00
C896   C     0.17096   0.45790   0.51705   0.00000  Uiso   1.00
H897   H     0.06031   0.41279   0.53475   0.00000  Uiso   1.00
H898   H     0.30580   0.48489   0.94318   0.00000  Uiso   1.00
H899   H     0.29130   0.50574   0.60077   0.00000  Uiso   1.00
H900   H     0.05148   0.46020   0.89136   0.00000  Uiso   1.00
H901   H     0.03362   0.42958   0.96960   0.00000  Uiso   1.00
H902   H     0.32167   0.49772   0.51522   0.00000  Uiso   1.00
H903   H     0.21554   0.37213   0.78783   0.00000  Uiso   1.00
H904   H     0.11759   0.62793   0.71247   0.00000  Uiso   1.00
H905   H     0.31111   0.45336   0.69727   0.00000  Uiso   1.00
H906   H     0.02215   0.54649   0.80289   0.00000  Uiso   1.00
H907   H     0.06203   0.45328   0.69735   0.00000  Uiso   1.00
H908   H     0.27121   0.54649   0.80288   0.00000  Uiso   1.00
N909   N     0.04759   0.50001   0.75001   0.00000  Uiso   1.00
N910   N     0.28574   0.49999   0.74999   0.00000  Uiso   1.00
O911   O     0.12846   0.56108   0.75000   0.00000  Uiso   1.00
O912   O     0.20488   0.43892   0.74999   0.00000  Uiso   1.00
O913   O     0.20490   0.56107   0.75000   0.00000  Uiso   1.00
O914   O     0.12843   0.43893   0.75000   0.00000  Uiso   1.00
O915   O     0.10661   0.50001   0.81612   0.00000  Uiso   1.00
O916   O     0.22672   0.49999   0.68387   0.00000  Uiso   1.00
O917   O     0.18305   0.50000   0.81612   0.00000  Uiso   1.00
O918   O     0.15028   0.50000   0.68388   0.00000  Uiso   1.00
Zn919  Zn    0.11562   0.50001   0.75000   0.00000  Uiso   1.00
Zn920  Zn    0.21771   0.49999   0.75000   0.00000  Uiso   1.00
F921   F     0.13525   0.48435   0.61154   0.00000  Uiso   1.00
F922   F     0.18658   0.52403   0.89614   0.00000  Uiso   1.00
N923   N     0.11863   0.41290   0.58272   0.00000  Uiso   1.00
H924   H     0.08294   0.40476   0.60168   0.00000  Uiso   1.00
C925   C     0.15384   0.38133   0.58238   0.00000  Uiso   1.00
H926   H     0.16608   0.38712   0.61213   0.00000  Uiso   1.00
H927   H     0.18632   0.38141   0.54911   0.00000  Uiso   1.00
H928   H     0.13676   0.34995   0.58670   0.00000  Uiso   1.00
N929   N     0.25302   0.47101   0.89125   0.00000  Uiso   1.00
H930   H     0.28625   0.48541   0.87487   0.00000  Uiso   1.00
C931   C     0.25149   0.42976   0.87253   0.00000  Uiso   1.00
H932   H     0.26442   0.43131   0.83353   0.00000  Uiso   1.00
H933   H     0.21374   0.41731   0.88571   0.00000  Uiso   1.00
H934   H     0.27549   0.40827   0.88256   0.00000  Uiso   1.00
F935   F     0.22065   0.62582   0.79369   0.00000  Uiso   1.00
F936   F     0.11221   0.37419   0.70688   0.00000  Uiso   1.00
C937   C     0.49993   0.58001   0.75044   0.00000  Uiso   1.00
C938   C     0.50004   0.41999   0.74963   0.00000  Uiso   1.00
C939   C     0.46062   0.43474   0.53975   0.00000  Uiso   1.00
C940   C     0.56798   0.47374   0.94138   0.00000  Uiso   1.00
C941   C     0.42690   0.43033   0.51761   0.00000  Uiso   1.00
C942   C     0.60109   0.47945   0.96397   0.00000  Uiso   1.00
C943   C     0.52786   0.64581   0.77166   0.00000  Uiso   1.00
C944   C     0.47193   0.35422   0.72865   0.00000  Uiso   1.00
C945   C     0.52780   0.35522   0.77103   0.00000  Uiso   1.00
C946   C     0.47204   0.64482   0.72922   0.00000  Uiso   1.00
C947   C     0.49990   0.37588   0.74961   0.00000  Uiso   1.00
C948   C     0.49999   0.62414   0.75058   0.00000  Uiso   1.00
C949   C     0.65376   0.47407   0.72070   0.00000  Uiso   1.00
C950   C     0.34621   0.52586   0.77937   0.00000  Uiso   1.00
C951   C     0.36837   0.47405   0.72074   0.00000  Uiso   1.00
C952   C     0.63159   0.52586   0.77935   0.00000  Uiso   1.00
C953   C     0.46977   0.49927   0.83832   0.00000  Uiso   1.00
C954   C     0.53028   0.49922   0.66159   0.00000  Uiso   1.00
C955   C     0.45235   0.48891   0.88830   0.00000  Uiso   1.00
C956   C     0.54938   0.49320   0.61040   0.00000  Uiso   1.00
C957   C     0.40050   0.44686   0.95311   0.00000  Uiso   1.00
C958   C     0.61683   0.49192   0.53537   0.00000  Uiso   1.00
C959   C     0.40982   0.46538   0.90935   0.00000  Uiso   1.00
C960   C     0.59937   0.49710   0.58404   0.00000  Uiso   1.00
C961   C     0.48480   0.49418   0.91149   0.00000  Uiso   1.00
C962   C     0.51750   0.48159   0.58792   0.00000  Uiso   1.00
C963   C     0.48013   0.46991   0.95083   0.00000  Uiso   1.00
C964   C     0.53552   0.47162   0.53989   0.00000  Uiso   1.00
C965   C     0.43548   0.44906   0.97413   0.00000  Uiso   1.00
C966   C     0.58486   0.48061   0.51295   0.00000  Uiso   1.00
C967   C     0.51765   0.46767   0.96903   0.00000  Uiso   1.00
C968   C     0.50429   0.45790   0.51705   0.00000  Uiso   1.00
H969   H     0.39365   0.41279   0.53475   0.00000  Uiso   1.00
H970   H     0.63914   0.48489   0.94318   0.00000  Uiso   1.00
H971   H     0.62464   0.50574   0.60077   0.00000  Uiso   1.00
H972   H     0.38481   0.46020   0.89136   0.00000  Uiso   1.00
H973   H     0.36695   0.42958   0.96960   0.00000  Uiso   1.00
H974   H     0.65500   0.49772   0.51522   0.00000  Uiso   1.00
H975   H     0.54887   0.37213   0.78783   0.00000  Uiso   1.00
H976   H     0.45092   0.62793   0.71247   0.00000  Uiso   1.00
H977   H     0.64444   0.45336   0.69727   0.00000  Uiso   1.00
H978   H     0.35549   0.54649   0.80289   0.00000  Uiso   1.00
H979   H     0.39536   0.45328   0.69735   0.00000  Uiso   1.00
H980   H     0.60454   0.54649   0.80288   0.00000  Uiso   1.00
N981   N     0.38093   0.50001   0.75001   0.00000  Uiso   1.00
N982   N     0.61907   0.49999   0.74999   0.00000  Uiso   1.00
O983   O     0.46179   0.56108   0.75000   0.00000  Uiso   1.00
O984   O     0.53821   0.43892   0.74999   0.00000  Uiso   1.00
O985   O     0.53823   0.56107   0.75000   0.00000  Uiso   1.00
O986   O     0.46177   0.43893   0.75000   0.00000  Uiso   1.00
O987   O     0.43994   0.50001   0.81612   0.00000  Uiso   1.00
O988   O     0.56006   0.49999   0.68387   0.00000  Uiso   1.00
O989   O     0.51639   0.50000   0.81612   0.00000  Uiso   1.00
O990   O     0.48361   0.50000   0.68388   0.00000  Uiso   1.00
Zn991  Zn    0.44896   0.50001   0.75000   0.00000  Uiso   1.00
Zn992  Zn    0.55104   0.49999   0.75000   0.00000  Uiso   1.00
F993   F     0.46859   0.48435   0.61154   0.00000  Uiso   1.00
F994   F     0.51991   0.52403   0.89614   0.00000  Uiso   1.00
N995   N     0.45196   0.41290   0.58272   0.00000  Uiso   1.00
H996   H     0.41627   0.40476   0.60168   0.00000  Uiso   1.00
C997   C     0.48717   0.38133   0.58238   0.00000  Uiso   1.00
H998   H     0.49942   0.38712   0.61213   0.00000  Uiso   1.00
H999   H     0.51966   0.38141   0.54911   0.00000  Uiso   1.00
H1000  H     0.47009   0.34995   0.58670   0.00000  Uiso   1.00
N1001  N     0.58635   0.47101   0.89125   0.00000  Uiso   1.00
H1002  H     0.61958   0.48541   0.87487   0.00000  Uiso   1.00
C1003  C     0.58482   0.42976   0.87253   0.00000  Uiso   1.00
H1004  H     0.59775   0.43131   0.83353   0.00000  Uiso   1.00
H1005  H     0.54707   0.41731   0.88571   0.00000  Uiso   1.00
H1006  H     0.60882   0.40827   0.88256   0.00000  Uiso   1.00
F1007  F     0.55398   0.62582   0.79369   0.00000  Uiso   1.00
F1008  F     0.44554   0.37419   0.70688   0.00000  Uiso   1.00
C1009  C     0.83326   0.58001   0.75044   0.00000  Uiso   1.00
C1010  C     0.83337   0.41999   0.74963   0.00000  Uiso   1.00
C1011  C     0.79395   0.43474   0.53975   0.00000  Uiso   1.00
C1012  C     0.90131   0.47374   0.94138   0.00000  Uiso   1.00
C1013  C     0.76023   0.43033   0.51761   0.00000  Uiso   1.00
C1014  C     0.93442   0.47945   0.96397   0.00000  Uiso   1.00
C1015  C     0.86119   0.64581   0.77166   0.00000  Uiso   1.00
C1016  C     0.80526   0.35422   0.72865   0.00000  Uiso   1.00
C1017  C     0.86113   0.35522   0.77103   0.00000  Uiso   1.00
C1018  C     0.80537   0.64482   0.72922   0.00000  Uiso   1.00
C1019  C     0.83323   0.37588   0.74961   0.00000  Uiso   1.00
C1020  C     0.83333   0.62414   0.75058   0.00000  Uiso   1.00
C1021  C     0.98709   0.47407   0.72070   0.00000  Uiso   1.00
C1022  C     0.67954   0.52586   0.77937   0.00000  Uiso   1.00
C1023  C     0.70170   0.47405   0.72074   0.00000  Uiso   1.00
C1024  C     0.96493   0.52586   0.77935   0.00000  Uiso   1.00
C1025  C     0.80310   0.49927   0.83832   0.00000  Uiso   1.00
C1026  C     0.86361   0.49922   0.66159   0.00000  Uiso   1.00
C1027  C     0.78568   0.48891   0.88830   0.00000  Uiso   1.00
C1028  C     0.88272   0.49320   0.61040   0.00000  Uiso   1.00
C1029  C     0.73383   0.44686   0.95311   0.00000  Uiso   1.00
C1030  C     0.95016   0.49192   0.53537   0.00000  Uiso   1.00
C1031  C     0.74316   0.46538   0.90935   0.00000  Uiso   1.00
C1032  C     0.93270   0.49710   0.58404   0.00000  Uiso   1.00
C1033  C     0.81813   0.49418   0.91149   0.00000  Uiso   1.00
C1034  C     0.85083   0.48159   0.58792   0.00000  Uiso   1.00
C1035  C     0.81347   0.46991   0.95083   0.00000  Uiso   1.00
C1036  C     0.86885   0.47162   0.53989   0.00000  Uiso   1.00
C1037  C     0.76881   0.44906   0.97413   0.00000  Uiso   1.00
C1038  C     0.91819   0.48061   0.51295   0.00000  Uiso   1.00
C1039  C     0.85099   0.46767   0.96903   0.00000  Uiso   1.00
C1040  C     0.83763   0.45790   0.51705   0.00000  Uiso   1.00
H1041  H     0.72698   0.41279   0.53475   0.00000  Uiso   1.00
H1042  H     0.97247   0.48489   0.94318   0.00000  Uiso   1.00
H1043  H     0.95797   0.50574   0.60077   0.00000  Uiso   1.00
H1044  H     0.71815   0.46020   0.89136   0.00000  Uiso   1.00
H1045  H     0.70028   0.42958   0.96960   0.00000  Uiso   1.00
H1046  H     0.98833   0.49772   0.51522   0.00000  Uiso   1.00
H1047  H     0.88220   0.37213   0.78783   0.00000  Uiso   1.00
H1048  H     0.78425   0.62793   0.71247   0.00000  Uiso   1.00
H1049  H     0.97777   0.45336   0.69727   0.00000  Uiso   1.00
H1050  H     0.68882   0.54649   0.80289   0.00000  Uiso   1.00
H1051  H     0.72870   0.45328   0.69735   0.00000  Uiso   1.00
H1052  H     0.93787   0.54649   0.80288   0.00000  Uiso   1.00
N1053  N     0.71426   0.50001   0.75001   0.00000  Uiso   1.00
N1054  N     0.95241   0.49999   0.74999   0.00000  Uiso   1.00
O1055  O     0.79512   0.56108   0.75000   0.00000  Uiso   1.00
O1056  O     0.87154   0.43892   0.74999   0.00000  Uiso   1.00
O1057  O     0.87157   0.56107   0.75000   0.00000  Uiso   1.00
O1058  O     0.79510   0.43893   0.75000   0.00000  Uiso   1.00
O1059  O     0.77328   0.50001   0.81612   0.00000  Uiso   1.00
O1060  O     0.89339   0.49999   0.68387   0.00000  Uiso   1.00
O1061  O     0.84972   0.50000   0.81612   0.00000  Uiso   1.00
O1062  O     0.81695   0.50000   0.68388   0.00000  Uiso   1.00
Zn1063 Zn    0.78229   0.50001   0.75000   0.00000  Uiso   1.00
Zn1064 Zn    0.88438   0.49999   0.75000   0.00000  Uiso   1.00
F1065  F     0.80192   0.48435   0.61154   0.00000  Uiso   1.00
F1066  F     0.85324   0.52403   0.89614   0.00000  Uiso   1.00
N1067  N     0.78530   0.41290   0.58272   0.00000  Uiso   1.00
H1068  H     0.74960   0.40476   0.60168   0.00000  Uiso   1.00
C1069  C     0.82051   0.38133   0.58238   0.00000  Uiso   1.00
H1070  H     0.83275   0.38712   0.61213   0.00000  Uiso   1.00
H1071  H     0.85299   0.38141   0.54911   0.00000  Uiso   1.00
H1072  H     0.80342   0.34995   0.58670   0.00000  Uiso   1.00
N1073  N     0.91968   0.47101   0.89125   0.00000  Uiso   1.00
H1074  H     0.95292   0.48541   0.87487   0.00000  Uiso   1.00
C1075  C     0.91815   0.42976   0.87253   0.00000  Uiso   1.00
H1076  H     0.93109   0.43131   0.83353   0.00000  Uiso   1.00
H1077  H     0.88040   0.41731   0.88571   0.00000  Uiso   1.00
H1078  H     0.94216   0.40827   0.88256   0.00000  Uiso   1.00
F1079  F     0.88732   0.62582   0.79369   0.00000  Uiso   1.00
F1080  F     0.77888   0.37419   0.70688   0.00000  Uiso   1.00
C1081  C     0.16660   0.91335   0.75044   0.00000  Uiso   1.00
C1082  C     0.16671   0.75333   0.74963   0.00000  Uiso   1.00
C1083  C     0.12728   0.76807   0.53975   0.00000  Uiso   1.00
C1084  C     0.23465   0.80707   0.94138   0.00000  Uiso   1.00
C1085  C     0.09357   0.76366   0.51761   0.00000  Uiso   1.00
C1086  C     0.26775   0.81279   0.96397   0.00000  Uiso   1.00
C1087  C     0.19452   0.97914   0.77166   0.00000  Uiso   1.00
C1088  C     0.13860   0.68756   0.72865   0.00000  Uiso   1.00
C1089  C     0.19446   0.68855   0.77103   0.00000  Uiso   1.00
C1090  C     0.13871   0.97815   0.72922   0.00000  Uiso   1.00
C1091  C     0.16656   0.70921   0.74961   0.00000  Uiso   1.00
C1092  C     0.16666   0.95748   0.75058   0.00000  Uiso   1.00
C1093  C     0.32042   0.80740   0.72070   0.00000  Uiso   1.00
C1094  C     0.01288   0.85919   0.77937   0.00000  Uiso   1.00
C1095  C     0.03503   0.80738   0.72074   0.00000  Uiso   1.00
C1096  C     0.29826   0.85919   0.77935   0.00000  Uiso   1.00
C1097  C     0.13643   0.83261   0.83832   0.00000  Uiso   1.00
C1098  C     0.19695   0.83255   0.66159   0.00000  Uiso   1.00
C1099  C     0.11902   0.82225   0.88830   0.00000  Uiso   1.00
C1100  C     0.21605   0.82653   0.61040   0.00000  Uiso   1.00
C1101  C     0.06716   0.78019   0.95311   0.00000  Uiso   1.00
C1102  C     0.28350   0.82525   0.53537   0.00000  Uiso   1.00
C1103  C     0.07649   0.79871   0.90935   0.00000  Uiso   1.00
C1104  C     0.26603   0.83044   0.58404   0.00000  Uiso   1.00
C1105  C     0.15146   0.82752   0.91149   0.00000  Uiso   1.00
C1106  C     0.18416   0.81492   0.58792   0.00000  Uiso   1.00
C1107  C     0.14680   0.80324   0.95083   0.00000  Uiso   1.00
C1108  C     0.20218   0.80496   0.53989   0.00000  Uiso   1.00
C1109  C     0.10214   0.78240   0.97413   0.00000  Uiso   1.00
C1110  C     0.25152   0.81394   0.51295   0.00000  Uiso   1.00
C1111  C     0.18432   0.80101   0.96903   0.00000  Uiso   1.00
C1112  C     0.17096   0.79123   0.51705   0.00000  Uiso   1.00
H1113  H     0.06031   0.74613   0.53475   0.00000  Uiso   1.00
H1114  H     0.30580   0.81822   0.94318   0.00000  Uiso   1.00
H1115  H     0.29130   0.83907   0.60077   0.00000  Uiso   1.00
H1116  H     0.05148   0.79353   0.89136   0.00000  Uiso   1.00
H1117  H     0.03362   0.76291   0.96960   0.00000  Uiso   1.00
H1118  H     0.32167   0.83106   0.51522   0.00000  Uiso   1.00
H1119  H     0.21554   0.70546   0.78783   0.00000  Uiso   1.00
H1120  H     0.11759   0.96126   0.71247   0.00000  Uiso   1.00
H1121  H     0.31111   0.78669   0.69727   0.00000  Uiso   1.00
H1122  H     0.02215   0.87983   0.80289   0.00000  Uiso   1.00
H1123  H     0.06203   0.78661   0.69735   0.00000  Uiso   1.00
H1124  H     0.27121   0.87983   0.80288   0.00000  Uiso   1.00
N1125  N     0.04759   0.83334   0.75001   0.00000  Uiso   1.00
N1126  N     0.28574   0.83332   0.74999   0.00000  Uiso   1.00
O1127  O     0.12846   0.89442   0.75000   0.00000  Uiso   1.00
O1128  O     0.20488   0.77225   0.74999   0.00000  Uiso   1.00
O1129  O     0.20490   0.89441   0.75000   0.00000  Uiso   1.00
O1130  O     0.12843   0.77226   0.75000   0.00000  Uiso   1.00
O1131  O     0.10661   0.83334   0.81612   0.00000  Uiso   1.00
O1132  O     0.22672   0.83333   0.68387   0.00000  Uiso   1.00
O1133  O     0.18305   0.83333   0.81612   0.00000  Uiso   1.00
O1134  O     0.15028   0.83334   0.68388   0.00000  Uiso   1.00
Zn1135 Zn    0.11562   0.83334   0.75000   0.00000  Uiso   1.00
Zn1136 Zn    0.21771   0.83333   0.75000   0.00000  Uiso   1.00
F1137  F     0.13525   0.81769   0.61154   0.00000  Uiso   1.00
F1138  F     0.18658   0.85736   0.89614   0.00000  Uiso   1.00
N1139  N     0.11863   0.74623   0.58272   0.00000  Uiso   1.00
H1140  H     0.08294   0.73809   0.60168   0.00000  Uiso   1.00
C1141  C     0.15384   0.71466   0.58238   0.00000  Uiso   1.00
H1142  H     0.16608   0.72045   0.61213   0.00000  Uiso   1.00
H1143  H     0.18632   0.71474   0.54911   0.00000  Uiso   1.00
H1144  H     0.13676   0.68328   0.58670   0.00000  Uiso   1.00
N1145  N     0.25302   0.80435   0.89125   0.00000  Uiso   1.00
H1146  H     0.28625   0.81875   0.87487   0.00000  Uiso   1.00
C1147  C     0.25149   0.76310   0.87253   0.00000  Uiso   1.00
H1148  H     0.26442   0.76464   0.83353   0.00000  Uiso   1.00
H1149  H     0.21374   0.75064   0.88571   0.00000  Uiso   1.00
H1150  H     0.27549   0.74161   0.88256   0.00000  Uiso   1.00
F1151  F     0.22065   0.95915   0.79369   0.00000  Uiso   1.00
F1152  F     0.11221   0.70753   0.70688   0.00000  Uiso   1.00
C1153  C     0.49993   0.91335   0.75044   0.00000  Uiso   1.00
C1154  C     0.50004   0.75333   0.74963   0.00000  Uiso   1.00
C1155  C     0.46062   0.76807   0.53975   0.00000  Uiso   1.00
C1156  C     0.56798   0.80707   0.94138   0.00000  Uiso   1.00
C1157  C     0.42690   0.76366   0.51761   0.00000  Uiso   1.00
C1158  C     0.60109   0.81279   0.96397   0.00000  Uiso   1.00
C1159  C     0.52786   0.97914   0.77166   0.00000  Uiso   1.00
C1160  C     0.47193   0.68756   0.72865   0.00000  Uiso   1.00
C1161  C     0.52780   0.68855   0.77103   0.00000  Uiso   1.00
C1162  C     0.47204   0.97815   0.72922   0.00000  Uiso   1.00
C1163  C     0.49990   0.70921   0.74961   0.00000  Uiso   1.00
C1164  C     0.49999   0.95748   0.75058   0.00000  Uiso   1.00
C1165  C     0.65376   0.80740   0.72070   0.00000  Uiso   1.00
C1166  C     0.34621   0.85919   0.77937   0.00000  Uiso   1.00
C1167  C     0.36837   0.80738   0.72074   0.00000  Uiso   1.00
C1168  C     0.63159   0.85919   0.77935   0.00000  Uiso   1.00
C1169  C     0.46977   0.83261   0.83832   0.00000  Uiso   1.00
C1170  C     0.53028   0.83255   0.66159   0.00000  Uiso   1.00
C1171  C     0.45235   0.82225   0.88830   0.00000  Uiso   1.00
C1172  C     0.54938   0.82653   0.61040   0.00000  Uiso   1.00
C1173  C     0.40050   0.78019   0.95311   0.00000  Uiso   1.00
C1174  C     0.61683   0.82525   0.53537   0.00000  Uiso   1.00
C1175  C     0.40982   0.79871   0.90935   0.00000  Uiso   1.00
C1176  C     0.59937   0.83044   0.58404   0.00000  Uiso   1.00
C1177  C     0.48480   0.82752   0.91149   0.00000  Uiso   1.00
C1178  C     0.51750   0.81492   0.58792   0.00000  Uiso   1.00
C1179  C     0.48013   0.80324   0.95083   0.00000  Uiso   1.00
C1180  C     0.53552   0.80496   0.53989   0.00000  Uiso   1.00
C1181  C     0.43548   0.78240   0.97413   0.00000  Uiso   1.00
C1182  C     0.58486   0.81394   0.51295   0.00000  Uiso   1.00
C1183  C     0.51765   0.80101   0.96903   0.00000  Uiso   1.00
C1184  C     0.50429   0.79123   0.51705   0.00000  Uiso   1.00
H1185  H     0.39365   0.74613   0.53475   0.00000  Uiso   1.00
H1186  H     0.63914   0.81822   0.94318   0.00000  Uiso   1.00
H1187  H     0.62464   0.83907   0.60077   0.00000  Uiso   1.00
H1188  H     0.38481   0.79353   0.89136   0.00000  Uiso   1.00
H1189  H     0.36695   0.76291   0.96960   0.00000  Uiso   1.00
H1190  H     0.65500   0.83106   0.51522   0.00000  Uiso   1.00
H1191  H     0.54887   0.70546   0.78783   0.00000  Uiso   1.00
H1192  H     0.45092   0.96126   0.71247   0.00000  Uiso   1.00
H1193  H     0.64444   0.78669   0.69727   0.00000  Uiso   1.00
H1194  H     0.35549   0.87983   0.80289   0.00000  Uiso   1.00
H1195  H     0.39536   0.78661   0.69735   0.00000  Uiso   1.00
H1196  H     0.60454   0.87983   0.80288   0.00000  Uiso   1.00
N1197  N     0.38093   0.83334   0.75001   0.00000  Uiso   1.00
N1198  N     0.61907   0.83332   0.74999   0.00000  Uiso   1.00
O1199  O     0.46179   0.89442   0.75000   0.00000  Uiso   1.00
O1200  O     0.53821   0.77225   0.74999   0.00000  Uiso   1.00
O1201  O     0.53823   0.89441   0.75000   0.00000  Uiso   1.00
O1202  O     0.46177   0.77226   0.75000   0.00000  Uiso   1.00
O1203  O     0.43994   0.83334   0.81612   0.00000  Uiso   1.00
O1204  O     0.56006   0.83333   0.68387   0.00000  Uiso   1.00
O1205  O     0.51639   0.83333   0.81612   0.00000  Uiso   1.00
O1206  O     0.48361   0.83334   0.68388   0.00000  Uiso   1.00
Zn1207 Zn    0.44896   0.83334   0.75000   0.00000  Uiso   1.00
Zn1208 Zn    0.55104   0.83333   0.75000   0.00000  Uiso   1.00
F1209  F     0.46859   0.81769   0.61154   0.00000  Uiso   1.00
F1210  F     0.51991   0.85736   0.89614   0.00000  Uiso   1.00
N1211  N     0.45196   0.74623   0.58272   0.00000  Uiso   1.00
H1212  H     0.41627   0.73809   0.60168   0.00000  Uiso   1.00
C1213  C     0.48717   0.71466   0.58238   0.00000  Uiso   1.00
H1214  H     0.49942   0.72045   0.61213   0.00000  Uiso   1.00
H1215  H     0.51966   0.71474   0.54911   0.00000  Uiso   1.00
H1216  H     0.47009   0.68328   0.58670   0.00000  Uiso   1.00
N1217  N     0.58635   0.80435   0.89125   0.00000  Uiso   1.00
H1218  H     0.61958   0.81875   0.87487   0.00000  Uiso   1.00
C1219  C     0.58482   0.76310   0.87253   0.00000  Uiso   1.00
H1220  H     0.59775   0.76464   0.83353   0.00000  Uiso   1.00
H1221  H     0.54707   0.75064   0.88571   0.00000  Uiso   1.00
H1222  H     0.60882   0.74161   0.88256   0.00000  Uiso   1.00
F1223  F     0.55398   0.95915   0.79369   0.00000  Uiso   1.00
F1224  F     0.44554   0.70753   0.70688   0.00000  Uiso   1.00
C1225  C     0.83326   0.91335   0.75044   0.00000  Uiso   1.00
C1226  C     0.83337   0.75333   0.74963   0.00000  Uiso   1.00
C1227  C     0.79395   0.76807   0.53975   0.00000  Uiso   1.00
C1228  C     0.90131   0.80707   0.94138   0.00000  Uiso   1.00
C1229  C     0.76023   0.76366   0.51761   0.00000  Uiso   1.00
C1230  C     0.93442   0.81279   0.96397   0.00000  Uiso   1.00
C1231  C     0.86119   0.97914   0.77166   0.00000  Uiso   1.00
C1232  C     0.80526   0.68756   0.72865   0.00000  Uiso   1.00
C1233  C     0.86113   0.68855   0.77103   0.00000  Uiso   1.00
C1234  C     0.80537   0.97815   0.72922   0.00000  Uiso   1.00
C1235  C     0.83323   0.70921   0.74961   0.00000  Uiso   1.00
C1236  C     0.83333   0.95748   0.75058   0.00000  Uiso   1.00
C1237  C     0.98709   0.80740   0.72070   0.00000  Uiso   1.00
C1238  C     0.67954   0.85919   0.77937   0.00000  Uiso   1.00
C1239  C     0.70170   0.80738   0.72074   0.00000  Uiso   1.00
C1240  C     0.96493   0.85919   0.77935   0.00000  Uiso   1.00
C1241  C     0.80310   0.83261   0.83832   0.00000  Uiso   1.00
C1242  C     0.86361   0.83255   0.66159   0.00000  Uiso   1.00
C1243  C     0.78568   0.82225   0.88830   0.00000  Uiso   1.00
C1244  C     0.88272   0.82653   0.61040   0.00000  Uiso   1.00
C1245  C     0.73383   0.78019   0.95311   0.00000  Uiso   1.00
C1246  C     0.95016   0.82525   0.53537   0.00000  Uiso   1.00
C1247  C     0.74316   0.79871   0.90935   0.00000  Uiso   1.00
C1248  C     0.93270   0.83044   0.58404   0.00000  Uiso   1.00
C1249  C     0.81813   0.82752   0.91149   0.00000  Uiso   1.00
C1250  C     0.85083   0.81492   0.58792   0.00000  Uiso   1.00
C1251  C     0.81347   0.80324   0.95083   0.00000  Uiso   1.00
C1252  C     0.86885   0.80496   0.53989   0.00000  Uiso   1.00
C1253  C     0.76881   0.78240   0.97413   0.00000  Uiso   1.00
C1254  C     0.91819   0.81394   0.51295   0.00000  Uiso   1.00
C1255  C     0.85099   0.80101   0.96903   0.00000  Uiso   1.00
C1256  C     0.83763   0.79123   0.51705   0.00000  Uiso   1.00
H1257  H     0.72698   0.74613   0.53475   0.00000  Uiso   1.00
H1258  H     0.97247   0.81822   0.94318   0.00000  Uiso   1.00
H1259  H     0.95797   0.83907   0.60077   0.00000  Uiso   1.00
H1260  H     0.71815   0.79353   0.89136   0.00000  Uiso   1.00
H1261  H     0.70028   0.76291   0.96960   0.00000  Uiso   1.00
H1262  H     0.98833   0.83106   0.51522   0.00000  Uiso   1.00
H1263  H     0.88220   0.70546   0.78783   0.00000  Uiso   1.00
H1264  H     0.78425   0.96126   0.71247   0.00000  Uiso   1.00
H1265  H     0.97777   0.78669   0.69727   0.00000  Uiso   1.00
H1266  H     0.68882   0.87983   0.80289   0.00000  Uiso   1.00
H1267  H     0.72870   0.78661   0.69735   0.00000  Uiso   1.00
H1268  H     0.93787   0.87983   0.80288   0.00000  Uiso   1.00
N1269  N     0.71426   0.83334   0.75001   0.00000  Uiso   1.00
N1270  N     0.95241   0.83332   0.74999   0.00000  Uiso   1.00
O1271  O     0.79512   0.89442   0.75000   0.00000  Uiso   1.00
O1272  O     0.87154   0.77225   0.74999   0.00000  Uiso   1.00
O1273  O     0.87157   0.89441   0.75000   0.00000  Uiso   1.00
O1274  O     0.79510   0.77226   0.75000   0.00000  Uiso   1.00
O1275  O     0.77328   0.83334   0.81612   0.00000  Uiso   1.00
O1276  O     0.89339   0.83333   0.68387   0.00000  Uiso   1.00
O1277  O     0.84972   0.83333   0.81612   0.00000  Uiso   1.00
O1278  O     0.81695   0.83334   0.68388   0.00000  Uiso   1.00
Zn1279 Zn    0.78229   0.83334   0.75000   0.00000  Uiso   1.00
Zn1280 Zn    0.88438   0.83333   0.75000   0.00000  Uiso   1.00
F1281  F     0.80192   0.81769   0.61154   0.00000  Uiso   1.00
F1282  F     0.85324   0.85736   0.89614   0.00000  Uiso   1.00
N1283  N     0.78530   0.74623   0.58272   0.00000  Uiso   1.00
H1284  H     0.74960   0.73809   0.60168   0.00000  Uiso   1.00
C1285  C     0.82051   0.71466   0.58238   0.00000  Uiso   1.00
H1286  H     0.83275   0.72045   0.61213   0.00000  Uiso   1.00
H1287  H     0.85299   0.71474   0.54911   0.00000  Uiso   1.00
H1288  H     0.80342   0.68328   0.58670   0.00000  Uiso   1.00
N1289  N     0.91968   0.80435   0.89125   0.00000  Uiso   1.00
H1290  H     0.95292   0.81875   0.87487   0.00000  Uiso   1.00
C1291  C     0.91815   0.76310   0.87253   0.00000  Uiso   1.00
H1292  H     0.93109   0.76464   0.83353   0.00000  Uiso   1.00
H1293  H     0.88040   0.75064   0.88571   0.00000  Uiso   1.00
H1294  H     0.94216   0.74161   0.88256   0.00000  Uiso   1.00
F1295  F     0.88732   0.95915   0.79369   0.00000  Uiso   1.00
F1296  F     0.77888   0.70753   0.70688   0.00000  Uiso   1.00
loop_
_geom_bond_atom_site_label_1
_geom_bond_atom_site_label_2
_geom_bond_distance
_geom_bond_site_symmetry_2
_ccdc_geom_bond_type
C1     C12     1.415   .     S
C1     O47     1.282   .     A
C1     O49     1.281   .     A
C2     O48     1.282   .     A
C2     C11     1.415   .     S
C2     O50     1.281   .     A
C3     N59     1.428   .     S
C3     C32     1.427   .     A
C3     C5      1.401   .     A
C4     N65     1.427   .     S
C4     C31     1.427   .     A
C4     C6      1.400   .     A
C5     H33     1.084   .     S
C5     C677    1.395   1_554 S
C6     H34     1.082   .     S
C6     C678    1.394   .     S
C7     F71     1.359   .     S
C7     C12     1.399   .     A
C7     C225    1.371   .     S
C8     C11     1.399   .     A
C8     F72     1.359   .     S
C8     C442    1.371   1_545 S
C9     C11     1.396   .     A
C9     H39     1.084   .     S
C9     C439    1.371   1_545 S
C10    C12     1.396   .     A
C10    H40     1.084   .     S
C10    C224    1.371   .     S
C13    H41     1.082   .     S
C13    N46     1.366   .     A
C13    C87     1.416   .     S
C14    H42     1.082   .     S
C14    N45     1.366   .     A
C14    C160    1.416   1_455 S
C15    N45     1.367   .     A
C15    H43     1.082   .     S
C15    C157    1.416   1_455 S
C16    H44     1.082   .     S
C16    N46     1.366   .     A
C16    C86     1.416   .     S
C17    O51     1.294   .     A
C17    C19     1.460   .     S
C17    O53     1.292   .     A
C18    O52     1.295   .     A
C18    C20     1.467   .     S
C18    O54     1.293   .     A
C19    C23     1.402   .     A
C19    C25     1.395   .     A
C20    C24     1.403   .     A
C20    C26     1.403   .     A
C21    C23     1.396   .     A
C21    H37     1.084   .     S
C21    C29     1.404   .     A
C22    C30     1.401   .     A
C22    H38     1.083   .     S
C22    C24     1.393   .     A
C23    H36     1.083   .     S
C24    H35     1.083   .     S
C25    F58     1.361   .     S
C25    C27     1.398   .     A
C26    C28     1.401   .     A
C26    F57     1.359   .     S
C27    C29     1.414   .     A
C27    C31     1.413   .     A
C28    C32     1.414   .     A
C28    C30     1.414   .     A
C29    C653    1.395   .     S
C30    C654    1.394   1_554 S
C31    C680    1.408   .     S
C32    C679    1.408   1_554 S
N45    Zn55    2.008   .     S
N46    Zn56    2.008   .     S
O47    Zn55    1.994   .     S
O48    Zn56    1.994   .     S
O49    Zn56    1.996   .     S
O50    Zn55    1.996   .     S
O51    Zn55    1.938   .     S
O52    Zn56    1.938   .     S
O53    Zn56    1.900   .     S
O54    Zn55    1.900   .     S
N59    H60     1.032   .     S
N59    C61     1.450   .     S
C61    H64     1.111   .     S
C61    H63     1.112   .     S
C61    H62     1.110   .     S
N65    C67     1.447   .     S
N65    H66     1.032   .     S
C67    H70     1.111   .     S
C67    H68     1.111   .     S
C67    H69     1.110   .     S
C73    C84     1.415   .     S
C73    O119    1.282   .     A
C73    O121    1.281   .     A
C74    O120    1.282   .     A
C74    C83     1.415   .     S
C74    O122    1.281   .     A
C75    N131    1.428   .     S
C75    C104    1.427   .     A
C75    C77     1.401   .     A
C76    N137    1.427   .     S
C76    C103    1.427   .     A
C76    C78     1.400   .     A
C77    H105    1.084   .     S
C77    C749    1.395   1_554 S
C78    H106    1.082   .     S
C78    C750    1.394   .     S
C79    F143    1.359   .     S
C79    C84     1.399   .     A
C79    C297    1.371   .     S
C80    C83     1.399   .     A
C80    F144    1.359   .     S
C80    C514    1.371   1_545 S
C81    C83     1.396   .     A
C81    H111    1.084   .     S
C81    C511    1.371   1_545 S
C82    C84     1.396   .     A
C82    H112    1.084   .     S
C82    C296    1.371   .     S
C85    H113    1.082   .     S
C85    N118    1.366   .     A
C85    C159    1.416   .     S
C86    H114    1.082   .     S
C86    N117    1.366   .     A
C87    N117    1.367   .     A
C87    H115    1.082   .     S
C88    H116    1.082   .     S
C88    N118    1.366   .     A
C88    C158    1.416   .     S
C89    O123    1.294   .     A
C89    C91     1.460   .     S
C89    O125    1.292   .     A
C90    O124    1.295   .     A
C90    C92     1.467   .     S
C90    O126    1.293   .     A
C91    C95     1.402   .     A
C91    C97     1.395   .     A
C92    C96     1.403   .     A
C92    C98     1.403   .     A
C93    C95     1.396   .     A
C93    H109    1.084   .     S
C93    C101    1.404   .     A
C94    C102    1.401   .     A
C94    H110    1.083   .     S
C94    C96     1.393   .     A
C95    H108    1.083   .     S
C96    H107    1.083   .     S
C97    F130    1.361   .     S
C97    C99     1.398   .     A
C98    C100    1.401   .     A
C98    F129    1.359   .     S
C99    C101    1.414   .     A
C99    C103    1.413   .     A
C100   C104    1.414   .     A
C100   C102    1.414   .     A
C101   C725    1.395   .     S
C102   C726    1.394   1_554 S
C103   C752    1.408   .     S
C104   C751    1.408   1_554 S
N117   Zn127   2.008   .     S
N118   Zn128   2.008   .     S
O119   Zn127   1.994   .     S
O120   Zn128   1.994   .     S
O121   Zn128   1.996   .     S
O122   Zn127   1.996   .     S
O123   Zn127   1.938   .     S
O124   Zn128   1.938   .     S
O125   Zn128   1.900   .     S
O126   Zn127   1.900   .     S
N131   H132    1.032   .     S
N131   C133    1.450   .     S
C133   H136    1.111   .     S
C133   H135    1.112   .     S
C133   H134    1.110   .     S
N137   C139    1.447   .     S
N137   H138    1.032   .     S
C139   H142    1.111   .     S
C139   H140    1.111   .     S
C139   H141    1.110   .     S
C145   C156    1.415   .     S
C145   O191    1.282   .     A
C145   O193    1.281   .     A
C146   O192    1.282   .     A
C146   C155    1.415   .     S
C146   O194    1.281   .     A
C147   N203    1.428   .     S
C147   C176    1.427   .     A
C147   C149    1.401   .     A
C148   N209    1.427   .     S
C148   C175    1.427   .     A
C148   C150    1.400   .     A
C149   H177    1.084   .     S
C149   C821    1.395   1_554 S
C150   H178    1.082   .     S
C150   C822    1.394   .     S
C151   F215    1.359   .     S
C151   C156    1.399   .     A
C151   C369    1.371   .     S
C152   C155    1.399   .     A
C152   F216    1.359   .     S
C152   C586    1.371   1_545 S
C153   C155    1.396   .     A
C153   H183    1.084   .     S
C153   C583    1.371   1_545 S
C154   C156    1.396   .     A
C154   H184    1.084   .     S
C154   C368    1.371   .     S
C157   H185    1.082   .     S
C157   N190    1.366   .     A
C157   C15     1.416   1_655 S
C158   H186    1.082   .     S
C158   N189    1.366   .     A
C159   N189    1.367   .     A
C159   H187    1.082   .     S
C160   H188    1.082   .     S
C160   N190    1.366   .     A
C160   C14     1.416   1_655 S
C161   O195    1.294   .     A
C161   C163    1.460   .     S
C161   O197    1.292   .     A
C162   O196    1.295   .     A
C162   C164    1.467   .     S
C162   O198    1.293   .     A
C163   C167    1.402   .     A
C163   C169    1.395   .     A
C164   C168    1.403   .     A
C164   C170    1.403   .     A
C165   C167    1.396   .     A
C165   H181    1.084   .     S
C165   C173    1.404   .     A
C166   C174    1.401   .     A
C166   H182    1.083   .     S
C166   C168    1.393   .     A
C167   H180    1.083   .     S
C168   H179    1.083   .     S
C169   F202    1.361   .     S
C169   C171    1.398   .     A
C170   C172    1.401   .     A
C170   F201    1.359   .     S
C171   C173    1.414   .     A
C171   C175    1.413   .     A
C172   C176    1.414   .     A
C172   C174    1.414   .     A
C173   C797    1.395   .     S
C174   C798    1.394   1_554 S
C175   C824    1.408   .     S
C176   C823    1.408   1_554 S
N189   Zn199   2.008   .     S
N190   Zn200   2.008   .     S
O191   Zn199   1.994   .     S
O192   Zn200   1.994   .     S
O193   Zn200   1.996   .     S
O194   Zn199   1.996   .     S
O195   Zn199   1.938   .     S
O196   Zn200   1.938   .     S
O197   Zn200   1.900   .     S
O198   Zn199   1.900   .     S
N203   H204    1.032   .     S
N203   C205    1.450   .     S
C205   H208    1.111   .     S
C205   H207    1.112   .     S
C205   H206    1.110   .     S
N209   C211    1.447   .     S
N209   H210    1.032   .     S
C211   H214    1.111   .     S
C211   H212    1.111   .     S
C211   H213    1.110   .     S
C217   C228    1.415   .     S
C217   O263    1.282   .     A
C217   O265    1.281   .     A
C218   O264    1.282   .     A
C218   C227    1.415   .     S
C218   O266    1.281   .     A
C219   N275    1.428   .     S
C219   C248    1.427   .     A
C219   C221    1.401   .     A
C220   N281    1.427   .     S
C220   C247    1.427   .     A
C220   C222    1.400   .     A
C221   H249    1.084   .     S
C221   C893    1.395   1_554 S
C222   H250    1.082   .     S
C222   C894    1.394   .     S
C223   F287    1.359   .     S
C223   C228    1.399   .     A
C223   C441    1.371   .     S
C224   C227    1.399   .     A
C224   F288    1.359   .     S
C225   C227    1.396   .     A
C225   H255    1.084   .     S
C226   C228    1.396   .     A
C226   H256    1.084   .     S
C226   C440    1.371   .     S
C229   H257    1.082   .     S
C229   N262    1.366   .     A
C229   C303    1.416   .     S
C230   H258    1.082   .     S
C230   N261    1.366   .     A
C230   C376    1.416   1_455 S
C231   N261    1.367   .     A
C231   H259    1.082   .     S
C231   C373    1.416   1_455 S
C232   H260    1.082   .     S
C232   N262    1.366   .     A
C232   C302    1.416   .     S
C233   O267    1.294   .     A
C233   C235    1.460   .     S
C233   O269    1.292   .     A
C234   O268    1.295   .     A
C234   C236    1.467   .     S
C234   O270    1.293   .     A
C235   C239    1.402   .     A
C235   C241    1.395   .     A
C236   C240    1.403   .     A
C236   C242    1.403   .     A
C237   C239    1.396   .     A
C237   H253    1.084   .     S
C237   C245    1.404   .     A
C238   C246    1.401   .     A
C238   H254    1.083   .     S
C238   C240    1.393   .     A
C239   H252    1.083   .     S
C240   H251    1.083   .     S
C241   F274    1.361   .     S
C241   C243    1.398   .     A
C242   C244    1.401   .     A
C242   F273    1.359   .     S
C243   C245    1.414   .     A
C243   C247    1.413   .     A
C244   C248    1.414   .     A
C244   C246    1.414   .     A
C245   C869    1.395   .     S
C246   C870    1.394   1_554 S
C247   C896    1.408   .     S
C248   C895    1.408   1_554 S
N261   Zn271   2.008   .     S
N262   Zn272   2.008   .     S
O263   Zn271   1.994   .     S
O264   Zn272   1.994   .     S
O265   Zn272   1.996   .     S
O266   Zn271   1.996   .     S
O267   Zn271   1.938   .     S
O268   Zn272   1.938   .     S
O269   Zn272   1.900   .     S
O270   Zn271   1.900   .     S
N275   H276    1.032   .     S
N275   C277    1.450   .     S
C277   H280    1.111   .     S
C277   H279    1.112   .     S
C277   H278    1.110   .     S
N281   C283    1.447   .     S
N281   H282    1.032   .     S
C283   H286    1.111   .     S
C283   H284    1.111   .     S
C283   H285    1.110   .     S
C289   C300    1.415   .     S
C289   O335    1.282   .     A
C289   O337    1.281   .     A
C290   O336    1.282   .     A
C290   C299    1.415   .     S
C290   O338    1.281   .     A
C291   N347    1.428   .     S
C291   C320    1.427   .     A
C291   C293    1.401   .     A
C292   N353    1.427   .     S
C292   C319    1.427   .     A
C292   C294    1.400   .     A
C293   H321    1.084   .     S
C293   C965    1.395   1_554 S
C294   H322    1.082   .     S
C294   C966    1.394   .     S
C295   F359    1.359   .     S
C295   C300    1.399   .     A
C295   C513    1.371   .     S
C296   C299    1.399   .     A
C296   F360    1.359   .     S
C297   C299    1.396   .     A
C297   H327    1.084   .     S
C298   C300    1.396   .     A
C298   H328    1.084   .     S
C298   C512    1.371   .     S
C301   H329    1.082   .     S
C301   N334    1.366   .     A
C301   C375    1.416   .     S
C302   H330    1.082   .     S
C302   N333    1.366   .     A
C303   N333    1.367   .     A
C303   H331    1.082   .     S
C304   H332    1.082   .     S
C304   N334    1.366   .     A
C304   C374    1.416   .     S
C305   O339    1.294   .     A
C305   C307    1.460   .     S
C305   O341    1.292   .     A
C306   O340    1.295   .     A
C306   C308    1.467   .     S
C306   O342    1.293   .     A
C307   C311    1.402   .     A
C307   C313    1.395   .     A
C308   C312    1.403   .     A
C308   C314    1.403   .     A
C309   C311    1.396   .     A
C309   H325    1.084   .     S
C309   C317    1.404   .     A
C310   C318    1.401   .     A
C310   H326    1.083   .     S
C310   C312    1.393   .     A
C311   H324    1.083   .     S
C312   H323    1.083   .     S
C313   F346    1.361   .     S
C313   C315    1.398   .     A
C314   C316    1.401   .     A
C314   F345    1.359   .     S
C315   C317    1.414   .     A
C315   C319    1.413   .     A
C316   C320    1.414   .     A
C316   C318    1.414   .     A
C317   C941    1.395   .     S
C318   C942    1.394   1_554 S
C319   C968    1.408   .     S
C320   C967    1.408   1_554 S
N333   Zn343   2.008   .     S
N334   Zn344   2.008   .     S
O335   Zn343   1.994   .     S
O336   Zn344   1.994   .     S
O337   Zn344   1.996   .     S
O338   Zn343   1.996   .     S
O339   Zn343   1.938   .     S
O340   Zn344   1.938   .     S
O341   Zn344   1.900   .     S
O342   Zn343   1.900   .     S
N347   H348    1.032   .     S
N347   C349    1.450   .     S
C349   H352    1.111   .     S
C349   H351    1.112   .     S
C349   H350    1.110   .     S
N353   C355    1.447   .     S
N353   H354    1.032   .     S
C355   H358    1.111   .     S
C355   H356    1.111   .     S
C355   H357    1.110   .     S
C361   C372    1.415   .     S
C361   O407    1.282   .     A
C361   O409    1.281   .     A
C362   O408    1.282   .     A
C362   C371    1.415   .     S
C362   O410    1.281   .     A
C363   N419    1.428   .     S
C363   C392    1.427   .     A
C363   C365    1.401   .     A
C364   N425    1.427   .     S
C364   C391    1.427   .     A
C364   C366    1.400   .     A
C365   H393    1.084   .     S
C365   C1037   1.395   1_554 S
C366   H394    1.082   .     S
C366   C1038   1.394   .     S
C367   F431    1.359   .     S
C367   C372    1.399   .     A
C367   C585    1.371   .     S
C368   C371    1.399   .     A
C368   F432    1.359   .     S
C369   C371    1.396   .     A
C369   H399    1.084   .     S
C370   C372    1.396   .     A
C370   H400    1.084   .     S
C370   C584    1.371   .     S
C373   H401    1.082   .     S
C373   N406    1.366   .     A
C373   C231    1.416   1_655 S
C374   H402    1.082   .     S
C374   N405    1.366   .     A
C375   N405    1.367   .     A
C375   H403    1.082   .     S
C376   H404    1.082   .     S
C376   N406    1.366   .     A
C376   C230    1.416   1_655 S
C377   O411    1.294   .     A
C377   C379    1.460   .     S
C377   O413    1.292   .     A
C378   O412    1.295   .     A
C378   C380    1.467   .     S
C378   O414    1.293   .     A
C379   C383    1.402   .     A
C379   C385    1.395   .     A
C380   C384    1.403   .     A
C380   C386    1.403   .     A
C381   C383    1.396   .     A
C381   H397    1.084   .     S
C381   C389    1.404   .     A
C382   C390    1.401   .     A
C382   H398    1.083   .     S
C382   C384    1.393   .     A
C383   H396    1.083   .     S
C384   H395    1.083   .     S
C385   F418    1.361   .     S
C385   C387    1.398   .     A
C386   C388    1.401   .     A
C386   F417    1.359   .     S
C387   C389    1.414   .     A
C387   C391    1.413   .     A
C388   C392    1.414   .     A
C388   C390    1.414   .     A
C389   C1013   1.395   .     S
C390   C1014   1.394   1_554 S
C391   C1040   1.408   .     S
C392   C1039   1.408   1_554 S
N405   Zn415   2.008   .     S
N406   Zn416   2.008   .     S
O407   Zn415   1.994   .     S
O408   Zn416   1.994   .     S
O409   Zn416   1.996   .     S
O410   Zn415   1.996   .     S
O411   Zn415   1.938   .     S
O412   Zn416   1.938   .     S
O413   Zn416   1.900   .     S
O414   Zn415   1.900   .     S
N419   H420    1.032   .     S
N419   C421    1.450   .     S
C421   H424    1.111   .     S
C421   H423    1.112   .     S
C421   H422    1.110   .     S
N425   C427    1.447   .     S
N425   H426    1.032   .     S
C427   H430    1.111   .     S
C427   H428    1.111   .     S
C427   H429    1.110   .     S
C433   C444    1.415   .     S
C433   O479    1.282   .     A
C433   O481    1.281   .     A
C434   O480    1.282   .     A
C434   C443    1.415   .     S
C434   O482    1.281   .     A
C435   N491    1.428   .     S
C435   C464    1.427   .     A
C435   C437    1.401   .     A
C436   N497    1.427   .     S
C436   C463    1.427   .     A
C436   C438    1.400   .     A
C437   H465    1.084   .     S
C437   C1109   1.395   1_554 S
C438   H466    1.082   .     S
C438   C1110   1.394   .     S
C439   F503    1.359   .     S
C439   C444    1.399   .     A
C439   C9      1.371   1_565 S
C440   C443    1.399   .     A
C440   F504    1.359   .     S
C441   C443    1.396   .     A
C441   H471    1.084   .     S
C442   C444    1.396   .     A
C442   H472    1.084   .     S
C442   C8      1.371   1_565 S
C445   H473    1.082   .     S
C445   N478    1.366   .     A
C445   C519    1.416   .     S
C446   H474    1.082   .     S
C446   N477    1.366   .     A
C446   C592    1.416   1_455 S
C447   N477    1.367   .     A
C447   H475    1.082   .     S
C447   C589    1.416   1_455 S
C448   H476    1.082   .     S
C448   N478    1.366   .     A
C448   C518    1.416   .     S
C449   O483    1.294   .     A
C449   C451    1.460   .     S
C449   O485    1.292   .     A
C450   O484    1.295   .     A
C450   C452    1.467   .     S
C450   O486    1.293   .     A
C451   C455    1.402   .     A
C451   C457    1.395   .     A
C452   C456    1.403   .     A
C452   C458    1.403   .     A
C453   C455    1.396   .     A
C453   H469    1.084   .     S
C453   C461    1.404   .     A
C454   C462    1.401   .     A
C454   H470    1.083   .     S
C454   C456    1.393   .     A
C455   H468    1.083   .     S
C456   H467    1.083   .     S
C457   F490    1.361   .     S
C457   C459    1.398   .     A
C458   C460    1.401   .     A
C458   F489    1.359   .     S
C459   C461    1.414   .     A
C459   C463    1.413   .     A
C460   C464    1.414   .     A
C460   C462    1.414   .     A
C461   C1085   1.395   .     S
C462   C1086   1.394   1_554 S
C463   C1112   1.408   .     S
C464   C1111   1.408   1_554 S
N477   Zn487   2.008   .     S
N478   Zn488   2.008   .     S
O479   Zn487   1.994   .     S
O480   Zn488   1.994   .     S
O481   Zn488   1.996   .     S
O482   Zn487   1.996   .     S
O483   Zn487   1.938   .     S
O484   Zn488   1.938   .     S
O485   Zn488   1.900   .     S
O486   Zn487   1.900   .     S
N491   H492    1.032   .     S
N491   C493    1.450   .     S
C493   H496    1.111   .     S
C493   H495    1.112   .     S
C493   H494    1.110   .     S
N497   C499    1.447   .     S
N497   H498    1.032   .     S
C499   H502    1.111   .     S
C499   H500    1.111   .     S
C499   H501    1.110   .     S
C505   C516    1.415   .     S
C505   O551    1.282   .     A
C505   O553    1.281   .     A
C506   O552    1.282   .     A
C506   C515    1.415   .     S
C506   O554    1.281   .     A
C507   N563    1.428   .     S
C507   C536    1.427   .     A
C507   C509    1.401   .     A
C508   N569    1.427   .     S
C508   C535    1.427   .     A
C508   C510    1.400   .     A
C509   H537    1.084   .     S
C509   C1181   1.395   1_554 S
C510   H538    1.082   .     S
C510   C1182   1.394   .     S
C511   F575    1.359   .     S
C511   C516    1.399   .     A
C511   C81     1.371   1_565 S
C512   C515    1.399   .     A
C512   F576    1.359   .     S
C513   C515    1.396   .     A
C513   H543    1.084   .     S
C514   C516    1.396   .     A
C514   H544    1.084   .     S
C514   C80     1.371   1_565 S
C517   H545    1.082   .     S
C517   N550    1.366   .     A
C517   C591    1.416   .     S
C518   H546    1.082   .     S
C518   N549    1.366   .     A
C519   N549    1.367   .     A
C519   H547    1.082   .     S
C520   H548    1.082   .     S
C520   N550    1.366   .     A
C520   C590    1.416   .     S
C521   O555    1.294   .     A
C521   C523    1.460   .     S
C521   O557    1.292   .     A
C522   O556    1.295   .     A
C522   C524    1.467   .     S
C522   O558    1.293   .     A
C523   C527    1.402   .     A
C523   C529    1.395   .     A
C524   C528    1.403   .     A
C524   C530    1.403   .     A
C525   C527    1.396   .     A
C525   H541    1.084   .     S
C525   C533    1.404   .     A
C526   C534    1.401   .     A
C526   H542    1.083   .     S
C526   C528    1.393   .     A
C527   H540    1.083   .     S
C528   H539    1.083   .     S
C529   F562    1.361   .     S
C529   C531    1.398   .     A
C530   C532    1.401   .     A
C530   F561    1.359   .     S
C531   C533    1.414   .     A
C531   C535    1.413   .     A
C532   C536    1.414   .     A
C532   C534    1.414   .     A
C533   C1157   1.395   .     S
C534   C1158   1.394   1_554 S
C535   C1184   1.408   .     S
C536   C1183   1.408   1_554 S
N549   Zn559   2.008   .     S
N550   Zn560   2.008   .     S
O551   Zn559   1.994   .     S
O552   Zn560   1.994   .     S
O553   Zn560   1.996   .     S
O554   Zn559   1.996   .     S
O555   Zn559   1.938   .     S
O556   Zn560   1.938   .     S
O557   Zn560   1.900   .     S
O558   Zn559   1.900   .     S
N563   H564    1.032   .     S
N563   C565    1.450   .     S
C565   H568    1.111   .     S
C565   H567    1.112   .     S
C565   H566    1.110   .     S
N569   C571    1.447   .     S
N569   H570    1.032   .     S
C571   H574    1.111   .     S
C571   H572    1.111   .     S
C571   H573    1.110   .     S
C577   C588    1.415   .     S
C577   O623    1.282   .     A
C577   O625    1.281   .     A
C578   O624    1.282   .     A
C578   C587    1.415   .     S
C578   O626    1.281   .     A
C579   N635    1.428   .     S
C579   C608    1.427   .     A
C579   C581    1.401   .     A
C580   N641    1.427   .     S
C580   C607    1.427   .     A
C580   C582    1.400   .     A
C581   H609    1.084   .     S
C581   C1253   1.395   1_554 S
C582   H610    1.082   .     S
C582   C1254   1.394   .     S
C583   F647    1.359   .     S
C583   C588    1.399   .     A
C583   C153    1.371   1_565 S
C584   C587    1.399   .     A
C584   F648    1.359   .     S
C585   C587    1.396   .     A
C585   H615    1.084   .     S
C586   C588    1.396   .     A
C586   H616    1.084   .     S
C586   C152    1.371   1_565 S
C589   H617    1.082   .     S
C589   N622    1.366   .     A
C589   C447    1.416   1_655 S
C590   H618    1.082   .     S
C590   N621    1.366   .     A
C591   N621    1.367   .     A
C591   H619    1.082   .     S
C592   H620    1.082   .     S
C592   N622    1.366   .     A
C592   C446    1.416   1_655 S
C593   O627    1.294   .     A
C593   C595    1.460   .     S
C593   O629    1.292   .     A
C594   O628    1.295   .     A
C594   C596    1.467   .     S
C594   O630    1.293   .     A
C595   C599    1.402   .     A
C595   C601    1.395   .     A
C596   C600    1.403   .     A
C596   C602    1.403   .     A
C597   C599    1.396   .     A
C597   H613    1.084   .     S
C597   C605    1.404   .     A
C598   C606    1.401   .     A
C598   H614    1.083   .     S
C598   C600    1.393   .     A
C599   H612    1.083   .     S
C600   H611    1.083   .     S
C601   F634    1.361   .     S
C601   C603    1.398   .     A
C602   C604    1.401   .     A
C602   F633    1.359   .     S
C603   C605    1.414   .     A
C603   C607    1.413   .     A
C604   C608    1.414   .     A
C604   C606    1.414   .     A
C605   C1229   1.395   .     S
C606   C1230   1.394   1_554 S
C607   C1256   1.408   .     S
C608   C1255   1.408   1_554 S
N621   Zn631   2.008   .     S
N622   Zn632   2.008   .     S
O623   Zn631   1.994   .     S
O624   Zn632   1.994   .     S
O625   Zn632   1.996   .     S
O626   Zn631   1.996   .     S
O627   Zn631   1.938   .     S
O628   Zn632   1.938   .     S
O629   Zn632   1.900   .     S
O630   Zn631   1.900   .     S
N635   H636    1.032   .     S
N635   C637    1.450   .     S
C637   H640    1.111   .     S
C637   H639    1.112   .     S
C637   H638    1.110   .     S
N641   C643    1.447   .     S
N641   H642    1.032   .     S
C643   H646    1.111   .     S
C643   H644    1.111   .     S
C643   H645    1.110   .     S
C649   C660    1.415   .     S
C649   O695    1.282   .     A
C649   O697    1.281   .     A
C650   O696    1.282   .     A
C650   C659    1.415   .     S
C650   O698    1.281   .     A
C651   N707    1.428   .     S
C651   C680    1.427   .     A
C651   C653    1.401   .     A
C652   N713    1.427   .     S
C652   C679    1.427   .     A
C652   C654    1.400   .     A
C653   H681    1.084   .     S
C654   H682    1.082   .     S
C654   C30     1.394   1_556 S
C655   F719    1.359   .     S
C655   C660    1.399   .     A
C655   C873    1.371   .     S
C656   C659    1.399   .     A
C656   F720    1.359   .     S
C656   C1090   1.371   1_545 S
C657   C659    1.396   .     A
C657   H687    1.084   .     S
C657   C1087   1.371   1_545 S
C658   C660    1.396   .     A
C658   H688    1.084   .     S
C658   C872    1.371   .     S
C661   H689    1.082   .     S
C661   N694    1.366   .     A
C661   C735    1.416   .     S
C662   H690    1.082   .     S
C662   N693    1.366   .     A
C662   C808    1.416   1_455 S
C663   N693    1.367   .     A
C663   H691    1.082   .     S
C663   C805    1.416   1_455 S
C664   H692    1.082   .     S
C664   N694    1.366   .     A
C664   C734    1.416   .     S
C665   O699    1.294   .     A
C665   C667    1.460   .     S
C665   O701    1.292   .     A
C666   O700    1.295   .     A
C666   C668    1.467   .     S
C666   O702    1.293   .     A
C667   C671    1.402   .     A
C667   C673    1.395   .     A
C668   C672    1.403   .     A
C668   C674    1.403   .     A
C669   C671    1.396   .     A
C669   H685    1.084   .     S
C669   C677    1.404   .     A
C670   C678    1.401   .     A
C670   H686    1.083   .     S
C670   C672    1.393   .     A
C671   H684    1.083   .     S
C672   H683    1.083   .     S
C673   F706    1.361   .     S
C673   C675    1.398   .     A
C674   C676    1.401   .     A
C674   F705    1.359   .     S
C675   C677    1.414   .     A
C675   C679    1.413   .     A
C676   C680    1.414   .     A
C676   C678    1.414   .     A
C677   C5      1.395   1_556 S
C679   C32     1.408   1_556 S
N693   Zn703   2.008   .     S
N694   Zn704   2.008   .     S
O695   Zn703   1.994   .     S
O696   Zn704   1.994   .     S
O697   Zn704   1.996   .     S
O698   Zn703   1.996   .     S
O699   Zn703   1.938   .     S
O700   Zn704   1.938   .     S
O701   Zn704   1.900   .     S
O702   Zn703   1.900   .     S
N707   H708    1.032   .     S
N707   C709    1.450   .     S
C709   H712    1.111   .     S
C709   H711    1.112   .     S
C709   H710    1.110   .     S
N713   C715    1.447   .     S
N713   H714    1.032   .     S
C715   H718    1.111   .     S
C715   H716    1.111   .     S
C715   H717    1.110   .     S
C721   C732    1.415   .     S
C721   O767    1.282   .     A
C721   O769    1.281   .     A
C722   O768    1.282   .     A
C722   C731    1.415   .     S
C722   O770    1.281   .     A
C723   N779    1.428   .     S
C723   C752    1.427   .     A
C723   C725    1.401   .     A
C724   N785    1.427   .     S
C724   C751    1.427   .     A
C724   C726    1.400   .     A
C725   H753    1.084   .     S
C726   H754    1.082   .     S
C726   C102    1.394   1_556 S
C727   F791    1.359   .     S
C727   C732    1.399   .     A
C727   C945    1.371   .     S
C728   C731    1.399   .     A
C728   F792    1.359   .     S
C728   C1162   1.371   1_545 S
C729   C731    1.396   .     A
C729   H759    1.084   .     S
C729   C1159   1.371   1_545 S
C730   C732    1.396   .     A
C730   H760    1.084   .     S
C730   C944    1.371   .     S
C733   H761    1.082   .     S
C733   N766    1.366   .     A
C733   C807    1.416   .     S
C734   H762    1.082   .     S
C734   N765    1.366   .     A
C735   N765    1.367   .     A
C735   H763    1.082   .     S
C736   H764    1.082   .     S
C736   N766    1.366   .     A
C736   C806    1.416   .     S
C737   O771    1.294   .     A
C737   C739    1.460   .     S
C737   O773    1.292   .     A
C738   O772    1.295   .     A
C738   C740    1.467   .     S
C738   O774    1.293   .     A
C739   C743    1.402   .     A
C739   C745    1.395   .     A
C740   C744    1.403   .     A
C740   C746    1.403   .     A
C741   C743    1.396   .     A
C741   H757    1.084   .     S
C741   C749    1.404   .     A
C742   C750    1.401   .     A
C742   H758    1.083   .     S
C742   C744    1.393   .     A
C743   H756    1.083   .     S
C744   H755    1.083   .     S
C745   F778    1.361   .     S
C745   C747    1.398   .     A
C746   C748    1.401   .     A
C746   F777    1.359   .     S
C747   C749    1.414   .     A
C747   C751    1.413   .     A
C748   C752    1.414   .     A
C748   C750    1.414   .     A
C749   C77     1.395   1_556 S
C751   C104    1.408   1_556 S
N765   Zn775   2.008   .     S
N766   Zn776   2.008   .     S
O767   Zn775   1.994   .     S
O768   Zn776   1.994   .     S
O769   Zn776   1.996   .     S
O770   Zn775   1.996   .     S
O771   Zn775   1.938   .     S
O772   Zn776   1.938   .     S
O773   Zn776   1.900   .     S
O774   Zn775   1.900   .     S
N779   H780    1.032   .     S
N779   C781    1.450   .     S
C781   H784    1.111   .     S
C781   H783    1.112   .     S
C781   H782    1.110   .     S
N785   C787    1.447   .     S
N785   H786    1.032   .     S
C787   H790    1.111   .     S
C787   H788    1.111   .     S
C787   H789    1.110   .     S
C793   C804    1.415   .     S
C793   O839    1.282   .     A
C793   O841    1.281   .     A
C794   O840    1.282   .     A
C794   C803    1.415   .     S
C794   O842    1.281   .     A
C795   N851    1.428   .     S
C795   C824    1.427   .     A
C795   C797    1.401   .     A
C796   N857    1.427   .     S
C796   C823    1.427   .     A
C796   C798    1.400   .     A
C797   H825    1.084   .     S
C798   H826    1.082   .     S
C798   C174    1.394   1_556 S
C799   F863    1.359   .     S
C799   C804    1.399   .     A
C799   C1017   1.371   .     S
C800   C803    1.399   .     A
C800   F864    1.359   .     S
C800   C1234   1.371   1_545 S
C801   C803    1.396   .     A
C801   H831    1.084   .     S
C801   C1231   1.371   1_545 S
C802   C804    1.396   .     A
C802   H832    1.084   .     S
C802   C1016   1.371   .     S
C805   H833    1.082   .     S
C805   N838    1.366   .     A
C805   C663    1.416   1_655 S
C806   H834    1.082   .     S
C806   N837    1.366   .     A
C807   N837    1.367   .     A
C807   H835    1.082   .     S
C808   H836    1.082   .     S
C808   N838    1.366   .     A
C808   C662    1.416   1_655 S
C809   O843    1.294   .     A
C809   C811    1.460   .     S
C809   O845    1.292   .     A
C810   O844    1.295   .     A
C810   C812    1.467   .     S
C810   O846    1.293   .     A
C811   C815    1.402   .     A
C811   C817    1.395   .     A
C812   C816    1.403   .     A
C812   C818    1.403   .     A
C813   C815    1.396   .     A
C813   H829    1.084   .     S
C813   C821    1.404   .     A
C814   C822    1.401   .     A
C814   H830    1.083   .     S
C814   C816    1.393   .     A
C815   H828    1.083   .     S
C816   H827    1.083   .     S
C817   F850    1.361   .     S
C817   C819    1.398   .     A
C818   C820    1.401   .     A
C818   F849    1.359   .     S
C819   C821    1.414   .     A
C819   C823    1.413   .     A
C820   C824    1.414   .     A
C820   C822    1.414   .     A
C821   C149    1.395   1_556 S
C823   C176    1.408   1_556 S
N837   Zn847   2.008   .     S
N838   Zn848   2.008   .     S
O839   Zn847   1.994   .     S
O840   Zn848   1.994   .     S
O841   Zn848   1.996   .     S
O842   Zn847   1.996   .     S
O843   Zn847   1.938   .     S
O844   Zn848   1.938   .     S
O845   Zn848   1.900   .     S
O846   Zn847   1.900   .     S
N851   H852    1.032   .     S
N851   C853    1.450   .     S
C853   H856    1.111   .     S
C853   H855    1.112   .     S
C853   H854    1.110   .     S
N857   C859    1.447   .     S
N857   H858    1.032   .     S
C859   H862    1.111   .     S
C859   H860    1.111   .     S
C859   H861    1.110   .     S
C865   C876    1.415   .     S
C865   O911    1.282   .     A
C865   O913    1.281   .     A
C866   O912    1.282   .     A
C866   C875    1.415   .     S
C866   O914    1.281   .     A
C867   N923    1.428   .     S
C867   C896    1.427   .     A
C867   C869    1.401   .     A
C868   N929    1.427   .     S
C868   C895    1.427   .     A
C868   C870    1.400   .     A
C869   H897    1.084   .     S
C870   H898    1.082   .     S
C870   C246    1.394   1_556 S
C871   F935    1.359   .     S
C871   C876    1.399   .     A
C871   C1089   1.371   .     S
C872   C875    1.399   .     A
C872   F936    1.359   .     S
C873   C875    1.396   .     A
C873   H903    1.084   .     S
C874   C876    1.396   .     A
C874   H904    1.084   .     S
C874   C1088   1.371   .     S
C877   H905    1.082   .     S
C877   N910    1.366   .     A
C877   C951    1.416   .     S
C878   H906    1.082   .     S
C878   N909    1.366   .     A
C878   C1024   1.416   1_455 S
C879   N909    1.367   .     A
C879   H907    1.082   .     S
C879   C1021   1.416   1_455 S
C880   H908    1.082   .     S
C880   N910    1.366   .     A
C880   C950    1.416   .     S
C881   O915    1.294   .     A
C881   C883    1.460   .     S
C881   O917    1.292   .     A
C882   O916    1.295   .     A
C882   C884    1.467   .     S
C882   O918    1.293   .     A
C883   C887    1.402   .     A
C883   C889    1.395   .     A
C884   C888    1.403   .     A
C884   C890    1.403   .     A
C885   C887    1.396   .     A
C885   H901    1.084   .     S
C885   C893    1.404   .     A
C886   C894    1.401   .     A
C886   H902    1.083   .     S
C886   C888    1.393   .     A
C887   H900    1.083   .     S
C888   H899    1.083   .     S
C889   F922    1.361   .     S
C889   C891    1.398   .     A
C890   C892    1.401   .     A
C890   F921    1.359   .     S
C891   C893    1.414   .     A
C891   C895    1.413   .     A
C892   C896    1.414   .     A
C892   C894    1.414   .     A
C893   C221    1.395   1_556 S
C895   C248    1.408   1_556 S
N909   Zn919   2.008   .     S
N910   Zn920   2.008   .     S
O911   Zn919   1.994   .     S
O912   Zn920   1.994   .     S
O913   Zn920   1.996   .     S
O914   Zn919   1.996   .     S
O915   Zn919   1.938   .     S
O916   Zn920   1.938   .     S
O917   Zn920   1.900   .     S
O918   Zn919   1.900   .     S
N923   H924    1.032   .     S
N923   C925    1.450   .     S
C925   H928    1.111   .     S
C925   H927    1.112   .     S
C925   H926    1.110   .     S
N929   C931    1.447   .     S
N929   H930    1.032   .     S
C931   H934    1.111   .     S
C931   H932    1.111   .     S
C931   H933    1.110   .     S
C937   C948    1.415   .     S
C937   O983    1.282   .     A
C937   O985    1.281   .     A
C938   O984    1.282   .     A
C938   C947    1.415   .     S
C938   O986    1.281   .     A
C939   N995    1.428   .     S
C939   C968    1.427   .     A
C939   C941    1.401   .     A
C940   N1001   1.427   .     S
C940   C967    1.427   .     A
C940   C942    1.400   .     A
C941   H969    1.084   .     S
C942   H970    1.082   .     S
C942   C318    1.394   1_556 S
C943   F1007   1.359   .     S
C943   C948    1.399   .     A
C943   C1161   1.371   .     S
C944   C947    1.399   .     A
C944   F1008   1.359   .     S
C945   C947    1.396   .     A
C945   H975    1.084   .     S
C946   C948    1.396   .     A
C946   H976    1.084   .     S
C946   C1160   1.371   .     S
C949   H977    1.082   .     S
C949   N982    1.366   .     A
C949   C1023   1.416   .     S
C950   H978    1.082   .     S
C950   N981    1.366   .     A
C951   N981    1.367   .     A
C951   H979    1.082   .     S
C952   H980    1.082   .     S
C952   N982    1.366   .     A
C952   C1022   1.416   .     S
C953   O987    1.294   .     A
C953   C955    1.460   .     S
C953   O989    1.292   .     A
C954   O988    1.295   .     A
C954   C956    1.467   .     S
C954   O990    1.293   .     A
C955   C959    1.402   .     A
C955   C961    1.395   .     A
C956   C960    1.403   .     A
C956   C962    1.403   .     A
C957   C959    1.396   .     A
C957   H973    1.084   .     S
C957   C965    1.404   .     A
C958   C966    1.401   .     A
C958   H974    1.083   .     S
C958   C960    1.393   .     A
C959   H972    1.083   .     S
C960   H971    1.083   .     S
C961   F994    1.361   .     S
C961   C963    1.398   .     A
C962   C964    1.401   .     A
C962   F993    1.359   .     S
C963   C965    1.414   .     A
C963   C967    1.413   .     A
C964   C968    1.414   .     A
C964   C966    1.414   .     A
C965   C293    1.395   1_556 S
C967   C320    1.408   1_556 S
N981   Zn991   2.008   .     S
N982   Zn992   2.008   .     S
O983   Zn991   1.994   .     S
O984   Zn992   1.994   .     S
O985   Zn992   1.996   .     S
O986   Zn991   1.996   .     S
O987   Zn991   1.938   .     S
O988   Zn992   1.938   .     S
O989   Zn992   1.900   .     S
O990   Zn991   1.900   .     S
N995   H996    1.032   .     S
N995   C997    1.450   .     S
C997   H1000   1.111   .     S
C997   H999    1.112   .     S
C997   H998    1.110   .     S
N1001  C1003   1.447   .     S
N1001  H1002   1.032   .     S
C1003  H1006   1.111   .     S
C1003  H1004   1.111   .     S
C1003  H1005   1.110   .     S
C1009  C1020   1.415   .     S
C1009  O1055   1.282   .     A
C1009  O1057   1.281   .     A
C1010  O1056   1.282   .     A
C1010  C1019   1.415   .     S
C1010  O1058   1.281   .     A
C1011  N1067   1.428   .     S
C1011  C1040   1.427   .     A
C1011  C1013   1.401   .     A
C1012  N1073   1.427   .     S
C1012  C1039   1.427   .     A
C1012  C1014   1.400   .     A
C1013  H1041   1.084   .     S
C1014  H1042   1.082   .     S
C1014  C390    1.394   1_556 S
C1015  F1079   1.359   .     S
C1015  C1020   1.399   .     A
C1015  C1233   1.371   .     S
C1016  C1019   1.399   .     A
C1016  F1080   1.359   .     S
C1017  C1019   1.396   .     A
C1017  H1047   1.084   .     S
C1018  C1020   1.396   .     A
C1018  H1048   1.084   .     S
C1018  C1232   1.371   .     S
C1021  H1049   1.082   .     S
C1021  N1054   1.366   .     A
C1021  C879    1.416   1_655 S
C1022  H1050   1.082   .     S
C1022  N1053   1.366   .     A
C1023  N1053   1.367   .     A
C1023  H1051   1.082   .     S
C1024  H1052   1.082   .     S
C1024  N1054   1.366   .     A
C1024  C878    1.416   1_655 S
C1025  O1059   1.294   .     A
C1025  C1027   1.460   .     S
C1025  O1061   1.292   .     A
C1026  O1060   1.295   .     A
C1026  C1028   1.467   .     S
C1026  O1062   1.293   .     A
C1027  C1031   1.402   .     A
C1027  C1033   1.395   .     A
C1028  C1032   1.403   .     A
C1028  C1034   1.403   .     A
C1029  C1031   1.396   .     A
C1029  H1045   1.084   .     S
C1029  C1037   1.404   .     A
C1030  C1038   1.401   .     A
C1030  H1046   1.083   .     S
C1030  C1032   1.393   .     A
C1031  H1044   1.083   .     S
C1032  H1043   1.083   .     S
C1033  F1066   1.361   .     S
C1033  C1035   1.398   .     A
C1034  C1036   1.401   .     A
C1034  F1065   1.359   .     S
C1035  C1037   1.414   .     A
C1035  C1039   1.413   .     A
C1036  C1040   1.414   .     A
C1036  C1038   1.414   .     A
C1037  C365    1.395   1_556 S
C1039  C392    1.408   1_556 S
N1053  Zn1063  2.008   .     S
N1054  Zn1064  2.008   .     S
O1055  Zn1063  1.994   .     S
O1056  Zn1064  1.994   .     S
O1057  Zn1064  1.996   .     S
O1058  Zn1063  1.996   .     S
O1059  Zn1063  1.938   .     S
O1060  Zn1064  1.938   .     S
O1061  Zn1064  1.900   .     S
O1062  Zn1063  1.900   .     S
N1067  H1068   1.032   .     S
N1067  C1069   1.450   .     S
C1069  H1072   1.111   .     S
C1069  H1071   1.112   .     S
C1069  H1070   1.110   .     S
N1073  C1075   1.447   .     S
N1073  H1074   1.032   .     S
C1075  H1078   1.111   .     S
C1075  H1076   1.111   .     S
C1075  H1077   1.110   .     S
C1081  C1092   1.415   .     S
C1081  O1127   1.282   .     A
C1081  O1129   1.281   .     A
C1082  O1128   1.282   .     A
C1082  C1091   1.415   .     S
C1082  O1130   1.281   .     A
C1083  N1139   1.428   .     S
C1083  C1112   1.427   .     A
C1083  C1085   1.401   .     A
C1084  N1145   1.427   .     S
C1084  C1111   1.427   .     A
C1084  C1086   1.400   .     A
C1085  H1113   1.084   .     S
C1086  H1114   1.082   .     S
C1086  C462    1.394   1_556 S
C1087  F1151   1.359   .     S
C1087  C1092   1.399   .     A
C1087  C657    1.371   1_565 S
C1088  C1091   1.399   .     A
C1088  F1152   1.359   .     S
C1089  C1091   1.396   .     A
C1089  H1119   1.084   .     S
C1090  C1092   1.396   .     A
C1090  H1120   1.084   .     S
C1090  C656    1.371   1_565 S
C1093  H1121   1.082   .     S
C1093  N1126   1.366   .     A
C1093  C1167   1.416   .     S
C1094  H1122   1.082   .     S
C1094  N1125   1.366   .     A
C1094  C1240   1.416   1_455 S
C1095  N1125   1.367   .     A
C1095  H1123   1.082   .     S
C1095  C1237   1.416   1_455 S
C1096  H1124   1.082   .     S
C1096  N1126   1.366   .     A
C1096  C1166   1.416   .     S
C1097  O1131   1.294   .     A
C1097  C1099   1.460   .     S
C1097  O1133   1.292   .     A
C1098  O1132   1.295   .     A
C1098  C1100   1.467   .     S
C1098  O1134   1.293   .     A
C1099  C1103   1.402   .     A
C1099  C1105   1.395   .     A
C1100  C1104   1.403   .     A
C1100  C1106   1.403   .     A
C1101  C1103   1.396   .     A
C1101  H1117   1.084   .     S
C1101  C1109   1.404   .     A
C1102  C1110   1.401   .     A
C1102  H1118   1.083   .     S
C1102  C1104   1.393   .     A
C1103  H1116   1.083   .     S
C1104  H1115   1.083   .     S
C1105  F1138   1.361   .     S
C1105  C1107   1.398   .     A
C1106  C1108   1.401   .     A
C1106  F1137   1.359   .     S
C1107  C1109   1.414   .     A
C1107  C1111   1.413   .     A
C1108  C1112   1.414   .     A
C1108  C1110   1.414   .     A
C1109  C437    1.395   1_556 S
C1111  C464    1.408   1_556 S
N1125  Zn1135  2.008   .     S
N1126  Zn1136  2.008   .     S
O1127  Zn1135  1.994   .     S
O1128  Zn1136  1.994   .     S
O1129  Zn1136  1.996   .     S
O1130  Zn1135  1.996   .     S
O1131  Zn1135  1.938   .     S
O1132  Zn1136  1.938   .     S
O1133  Zn1136  1.900   .     S
O1134  Zn1135  1.900   .     S
N1139  H1140   1.032   .     S
N1139  C1141   1.450   .     S
C1141  H1144   1.111   .     S
C1141  H1143   1.112   .     S
C1141  H1142   1.110   .     S
N1145  C1147   1.447   .     S
N1145  H1146   1.032   .     S
C1147  H1150   1.111   .     S
C1147  H1148   1.111   .     S
C1147  H1149   1.110   .     S
C1153  C1164   1.415   .     S
C1153  O1199   1.282   .     A
C1153  O1201   1.281   .     A
C1154  O1200   1.282   .     A
C1154  C1163   1.415   .     S
C1154  O1202   1.281   .     A
C1155  N1211   1.428   .     S
C1155  C1184   1.427   .     A
C1155  C1157   1.401   .     A
C1156  N1217   1.427   .     S
C1156  C1183   1.427   .     A
C1156  C1158   1.400   .     A
C1157  H1185   1.084   .     S
C1158  H1186   1.082   .     S
C1158  C534    1.394   1_556 S
C1159  F1223   1.359   .     S
C1159  C1164   1.399   .     A
C1159  C729    1.371   1_565 S
C1160  C1163   1.399   .     A
C1160  F1224   1.359   .     S
C1161  C1163   1.396   .     A
C1161  H1191   1.084   .     S
C1162  C1164   1.396   .     A
C1162  H1192   1.084   .     S
C1162  C728    1.371   1_565 S
C1165  H1193   1.082   .     S
C1165  N1198   1.366   .     A
C1165  C1239   1.416   .     S
C1166  H1194   1.082   .     S
C1166  N1197   1.366   .     A
C1167  N1197   1.367   .     A
C1167  H1195   1.082   .     S
C1168  H1196   1.082   .     S
C1168  N1198   1.366   .     A
C1168  C1238   1.416   .     S
C1169  O1203   1.294   .     A
C1169  C1171   1.460   .     S
C1169  O1205   1.292   .     A
C1170  O1204   1.295   .     A
C1170  C1172   1.467   .     S
C1170  O1206   1.293   .     A
C1171  C1175   1.402   .     A
C1171  C1177   1.395   .     A
C1172  C1176   1.403   .     A
C1172  C1178   1.403   .     A
C1173  C1175   1.396   .     A
C1173  H1189   1.084   .     S
C1173  C1181   1.404   .     A
C1174  C1182   1.401   .     A
C1174  H1190   1.083   .     S
C1174  C1176   1.393   .     A
C1175  H1188   1.083   .     S
C1176  H1187   1.083   .     S
C1177  F1210   1.361   .     S
C1177  C1179   1.398   .     A
C1178  C1180   1.401   .     A
C1178  F1209   1.359   .     S
C1179  C1181   1.414   .     A
C1179  C1183   1.413   .     A
C1180  C1184   1.414   .     A
C1180  C1182   1.414   .     A
C1181  C509    1.395   1_556 S
C1183  C536    1.408   1_556 S
N1197  Zn1207  2.008   .     S
N1198  Zn1208  2.008   .     S
O1199  Zn1207  1.994   .     S
O1200  Zn1208  1.994   .     S
O1201  Zn1208  1.996   .     S
O1202  Zn1207  1.996   .     S
O1203  Zn1207  1.938   .     S
O1204  Zn1208  1.938   .     S
O1205  Zn1208  1.900   .     S
O1206  Zn1207  1.900   .     S
N1211  H1212   1.032   .     S
N1211  C1213   1.450   .     S
C1213  H1216   1.111   .     S
C1213  H1215   1.112   .     S
C1213  H1214   1.110   .     S
N1217  C1219   1.447   .     S
N1217  H1218   1.032   .     S
C1219  H1222   1.111   .     S
C1219  H1220   1.111   .     S
C1219  H1221   1.110   .     S
C1225  C1236   1.415   .     S
C1225  O1271   1.282   .     A
C1225  O1273   1.281   .     A
C1226  O1272   1.282   .     A
C1226  C1235   1.415   .     S
C1226  O1274   1.281   .     A
C1227  N1283   1.428   .     S
C1227  C1256   1.427   .     A
C1227  C1229   1.401   .     A
C1228  N1289   1.427   .     S
C1228  C1255   1.427   .     A
C1228  C1230   1.400   .     A
C1229  H1257   1.084   .     S
C1230  H1258   1.082   .     S
C1230  C606    1.394   1_556 S
C1231  F1295   1.359   .     S
C1231  C1236   1.399   .     A
C1231  C801    1.371   1_565 S
C1232  C1235   1.399   .     A
C1232  F1296   1.359   .     S
C1233  C1235   1.396   .     A
C1233  H1263   1.084   .     S
C1234  C1236   1.396   .     A
C1234  H1264   1.084   .     S
C1234  C800    1.371   1_565 S
C1237  H1265   1.082   .     S
C1237  N1270   1.366   .     A
C1237  C1095   1.416   1_655 S
C1238  H1266   1.082   .     S
C1238  N1269   1.366   .     A
C1239  N1269   1.367   .     A
C1239  H1267   1.082   .     S
C1240  H1268   1.082   .     S
C1240  N1270   1.366   .     A
C1240  C1094   1.416   1_655 S
C1241  O1275   1.294   .     A
C1241  C1243   1.460   .     S
C1241  O1277   1.292   .     A
C1242  O1276   1.295   .     A
C1242  C1244   1.467   .     S
C1242  O1278   1.293   .     A
C1243  C1247   1.402   .     A
C1243  C1249   1.395   .     A
C1244  C1248   1.403   .     A
C1244  C1250   1.403   .     A
C1245  C1247   1.396   .     A
C1245  H1261   1.084   .     S
C1245  C1253   1.404   .     A
C1246  C1254   1.401   .     A
C1246  H1262   1.083   .     S
C1246  C1248   1.393   .     A
C1247  H1260   1.083   .     S
C1248  H1259   1.083   .     S
C1249  F1282   1.361   .     S
C1249  C1251   1.398   .     A
C1250  C1252   1.401   .     A
C1250  F1281   1.359   .     S
C1251  C1253   1.414   .     A
C1251  C1255   1.413   .     A
C1252  C1256   1.414   .     A
C1252  C1254   1.414   .     A
C1253  C581    1.395   1_556 S
C1255  C608    1.408   1_556 S
N1269  Zn1279  2.008   .     S
N1270  Zn1280  2.008   .     S
O1271  Zn1279  1.994   .     S
O1272  Zn1280  1.994   .     S
O1273  Zn1280  1.996   .     S
O1274  Zn1279  1.996   .     S
O1275  Zn1279  1.938   .     S
O1276  Zn1280  1.938   .     S
O1277  Zn1280  1.900   .     S
O1278  Zn1279  1.900   .     S
N1283  H1284   1.032   .     S
N1283  C1285   1.450   .     S
C1285  H1288   1.111   .     S
C1285  H1287   1.112   .     S
C1285  H1286   1.110   .     S
N1289  C1291   1.447   .     S
N1289  H1290   1.032   .     S
C1291  H1294   1.111   .     S
C1291  H1292   1.111   .     S
C1291  H1293   1.110   .     S
