data_str_m2_o10_o17_pcu_sym.83
_audit_creation_date              2020-01-03
_audit_creation_method            'Materials Studio'
_symmetry_space_group_name_H-M    'P1'
_symmetry_Int_Tables_number       1
_symmetry_cell_setting            triclinic
loop_
_symmetry_equiv_pos_as_xyz
  x,y,z
_cell_length_a                    30.0027
_cell_length_b                    26.5087
_cell_length_c                    22.5205
_cell_angle_alpha                 102.5504
_cell_angle_beta                  94.8167
_cell_angle_gamma                 95.4494
loop_
_atom_site_label
_atom_site_type_symbol
_atom_site_fract_x
_atom_site_fract_y
_atom_site_fract_z
_atom_site_U_iso_or_equiv
_atom_site_adp_type
_atom_site_occupancy
C1     C     0.25027   0.06708   0.15147   0.00000  Uiso   1.00
C2     C     0.08564   0.11716   0.12658   0.00000  Uiso   1.00
C3     C     0.38413   0.17161   0.16537   0.00000  Uiso   1.00
C4     C     0.11539   0.15736   0.16657   0.00000  Uiso   1.00
C5     C     0.39971   0.12673   0.13542   0.00000  Uiso   1.00
C6     C     0.09855   0.19760   0.20500   0.00000  Uiso   1.00
C7     C     0.44559   0.12373   0.13200   0.00000  Uiso   1.00
C8     C     0.05336   0.20498   0.19636   0.00000  Uiso   1.00
C9     C     0.47651   0.16753   0.16053   0.00000  Uiso   1.00
C10    C     0.02269   0.16322   0.16187   0.00000  Uiso   1.00
C11    C     0.46114   0.21532   0.18864   0.00000  Uiso   1.00
C12    C     0.25202   0.26642   0.18199   0.00000  Uiso   1.00
C13    C     0.03844   0.11677   0.13065   0.00000  Uiso   1.00
C14    C     0.46034   0.07629   0.10367   0.00000  Uiso   1.00
C15    C     0.03927   0.25441   0.21826   0.00000  Uiso   1.00
C16    C     0.36920   0.29002   0.20646   0.00000  Uiso   1.00
C17    C     0.13446   0.04867   0.08943   0.00000  Uiso   1.00
C18    C     0.40534   0.03428   0.01764   0.00000  Uiso   1.00
C19    C     0.10218   0.31403   0.20247   0.00000  Uiso   1.00
C20    C     0.00823   0.31028   0.04823   0.00000  Uiso   1.00
C21    C     0.00301   0.02706   0.24436   0.00000  Uiso   1.00
C22    C     0.29665   0.32372   0.05674   0.00000  Uiso   1.00
C23    C     0.00712   0.07154   0.10522   0.00000  Uiso   1.00
C24    C     0.21607   0.02199   0.27948   0.00000  Uiso   1.00
C25    C     0.49289   0.26076   0.21033   0.00000  Uiso   1.00
C26    C     0.25372   0.01199   0.14321   0.00000  Uiso   1.00
C27    C     0.25460   0.32209   0.19136   0.00000  Uiso   1.00
C28    C     0.16428   0.16208   0.16627   0.00000  Uiso   1.00
C29    C     0.33563   0.16983   0.16677   0.00000  Uiso   1.00
C30    C     0.41413   0.21613   0.19330   0.00000  Uiso   1.00
Cu31   Cu    0.25500   0.17246   0.22813   0.00000  Uiso   1.00
Cu32   Cu    0.24499   0.16087   0.10521   0.00000  Uiso   1.00
H33    H     0.37507   0.09306   0.11758   0.00000  Uiso   1.00
H34    H     0.16286   0.05302   0.06195   0.00000  Uiso   1.00
H35    H     0.43255   0.33057   0.08404   0.00000  Uiso   1.00
H36    H     0.42997   0.03160   0.31694   0.00000  Uiso   1.00
H37    H     0.38986   0.07075   0.01851   0.00000  Uiso   1.00
H38    H     0.37829   0.00132   0.00320   0.00000  Uiso   1.00
H39    H     0.08818   0.29740   0.28592   0.00000  Uiso   1.00
H40    H     0.10497   0.02360   0.20920   0.00000  Uiso   1.00
H41    H     0.09047   0.29491   0.15400   0.00000  Uiso   1.00
H42    H     0.13623   0.30318   0.21207   0.00000  Uiso   1.00
H43    H     0.05281   0.01959   0.12247   0.00000  Uiso   1.00
H44    H     0.12209   0.22627   0.23694   0.00000  Uiso   1.00
H45    H     0.49374   0.27756   0.06678   0.00000  Uiso   1.00
H46    H     0.03758   0.29767   0.02474   0.00000  Uiso   1.00
H47    H     0.48305   0.31853   0.01445   0.00000  Uiso   1.00
H48    H     0.45632   0.31297   0.17704   0.00000  Uiso   1.00
H49    H     0.48028   0.05806   0.25011   0.00000  Uiso   1.00
H50    H     0.02880   0.03788   0.21601   0.00000  Uiso   1.00
H51    H     0.01931   0.02672   0.28992   0.00000  Uiso   1.00
H52    H     0.22664   0.31782   0.05326   0.00000  Uiso   1.00
H53    H     0.29527   0.29670   0.01135   0.00000  Uiso   1.00
H54    H     0.32493   0.31570   0.08700   0.00000  Uiso   1.00
H55    H     0.41788   0.27546   0.27279   0.00000  Uiso   1.00
H56    H     0.30306   0.03083   0.05076   0.00000  Uiso   1.00
H57    H     0.28400   0.04653   0.26895   0.00000  Uiso   1.00
H58    H     0.22247   0.04547   0.32675   0.00000  Uiso   1.00
H59    H     0.19932   0.31649   0.28080   0.00000  Uiso   1.00
H60    H     0.19363   0.04168   0.25246   0.00000  Uiso   1.00
H61    H     0.21103   0.12982   0.31739   0.00000  Uiso   1.00
H62    H     0.28821   0.20478   0.01625   0.00000  Uiso   1.00
H63    H     0.38742   0.32921   0.21045   0.00000  Uiso   1.00
H64    H     0.33946   0.29494   0.23207   0.00000  Uiso   1.00
H65    H     0.35788   0.27250   0.15748   0.00000  Uiso   1.00
H66    H     0.07985   0.06868   0.03783   0.00000  Uiso   1.00
H67    H     0.11907   0.00756   0.07526   0.00000  Uiso   1.00
H68    H     0.14746   0.05720   0.13859   0.00000  Uiso   1.00
N69    N     0.23744   0.15214   0.01284   0.00000  Uiso   1.00
N70    N     0.25828   0.01664   0.25367   0.00000  Uiso   1.00
N71    N     0.26255   0.18119   0.32049   0.00000  Uiso   1.00
N72    N     0.39754   0.25775   0.23331   0.00000  Uiso   1.00
N73    N     0.10191   0.08300   0.07681   0.00000  Uiso   1.00
N74    N     0.42714   0.03333   0.07722   0.00000  Uiso   1.00
N75    N     0.07211   0.29796   0.24383   0.00000  Uiso   1.00
N76    N     0.02291   0.02140   0.09821   0.00000  Uiso   1.00
N77    N     0.47709   0.31093   0.21498   0.00000  Uiso   1.00
N78    N     0.25453   0.31600   0.08224   0.00000  Uiso   1.00
O79    O     0.25325   0.09538   0.20659   0.00000  Uiso   1.00
O80    O     0.24674   0.23796   0.12674   0.00000  Uiso   1.00
O81    O     0.24480   0.08559   0.10279   0.00000  Uiso   1.00
O82    O     0.25520   0.24774   0.23055   0.00000  Uiso   1.00
O83    O     0.18935   0.17155   0.21857   0.00000  Uiso   1.00
O84    O     0.31064   0.16179   0.11476   0.00000  Uiso   1.00
O85    O     0.18090   0.16176   0.11477   0.00000  Uiso   1.00
O86    O     0.31910   0.17157   0.21857   0.00000  Uiso   1.00
C87    C     0.75027   0.06708   0.15147   0.00000  Uiso   1.00
C88    C     0.58564   0.11716   0.12658   0.00000  Uiso   1.00
C89    C     0.88413   0.17161   0.16537   0.00000  Uiso   1.00
C90    C     0.61539   0.15736   0.16657   0.00000  Uiso   1.00
C91    C     0.89971   0.12673   0.13542   0.00000  Uiso   1.00
C92    C     0.59855   0.19760   0.20500   0.00000  Uiso   1.00
C93    C     0.94559   0.12373   0.13200   0.00000  Uiso   1.00
C94    C     0.55336   0.20498   0.19636   0.00000  Uiso   1.00
C95    C     0.97651   0.16753   0.16053   0.00000  Uiso   1.00
C96    C     0.52269   0.16322   0.16187   0.00000  Uiso   1.00
C97    C     0.96114   0.21532   0.18864   0.00000  Uiso   1.00
C98    C     0.75202   0.26642   0.18199   0.00000  Uiso   1.00
C99    C     0.53844   0.11677   0.13065   0.00000  Uiso   1.00
C100   C     0.96034   0.07629   0.10367   0.00000  Uiso   1.00
C101   C     0.53927   0.25441   0.21826   0.00000  Uiso   1.00
C102   C     0.86920   0.29002   0.20646   0.00000  Uiso   1.00
C103   C     0.63446   0.04867   0.08943   0.00000  Uiso   1.00
C104   C     0.90534   0.03428   0.01764   0.00000  Uiso   1.00
C105   C     0.60218   0.31403   0.20247   0.00000  Uiso   1.00
C106   C     0.50823   0.31028   0.04823   0.00000  Uiso   1.00
C107   C     0.50301   0.02706   0.24436   0.00000  Uiso   1.00
C108   C     0.79665   0.32372   0.05674   0.00000  Uiso   1.00
C109   C     0.50712   0.07154   0.10522   0.00000  Uiso   1.00
C110   C     0.71607   0.02199   0.27948   0.00000  Uiso   1.00
C111   C     0.99289   0.26076   0.21033   0.00000  Uiso   1.00
C112   C     0.75372   0.01199   0.14321   0.00000  Uiso   1.00
C113   C     0.75460   0.32209   0.19136   0.00000  Uiso   1.00
C114   C     0.66428   0.16208   0.16627   0.00000  Uiso   1.00
C115   C     0.83563   0.16983   0.16677   0.00000  Uiso   1.00
C116   C     0.91413   0.21613   0.19330   0.00000  Uiso   1.00
Cu117  Cu    0.75500   0.17246   0.22813   0.00000  Uiso   1.00
Cu118  Cu    0.74499   0.16087   0.10521   0.00000  Uiso   1.00
H119   H     0.87507   0.09306   0.11758   0.00000  Uiso   1.00
H120   H     0.66286   0.05302   0.06195   0.00000  Uiso   1.00
H121   H     0.93255   0.33057   0.08404   0.00000  Uiso   1.00
H122   H     0.92997   0.03160   0.31694   0.00000  Uiso   1.00
H123   H     0.88986   0.07075   0.01851   0.00000  Uiso   1.00
H124   H     0.87829   0.00132   0.00320   0.00000  Uiso   1.00
H125   H     0.58818   0.29740   0.28592   0.00000  Uiso   1.00
H126   H     0.60497   0.02360   0.20920   0.00000  Uiso   1.00
H127   H     0.59047   0.29491   0.15400   0.00000  Uiso   1.00
H128   H     0.63623   0.30318   0.21207   0.00000  Uiso   1.00
H129   H     0.55281   0.01959   0.12247   0.00000  Uiso   1.00
H130   H     0.62209   0.22627   0.23694   0.00000  Uiso   1.00
H131   H     0.99374   0.27756   0.06678   0.00000  Uiso   1.00
H132   H     0.53758   0.29767   0.02474   0.00000  Uiso   1.00
H133   H     0.98305   0.31853   0.01445   0.00000  Uiso   1.00
H134   H     0.95632   0.31297   0.17704   0.00000  Uiso   1.00
H135   H     0.98028   0.05806   0.25011   0.00000  Uiso   1.00
H136   H     0.52880   0.03788   0.21601   0.00000  Uiso   1.00
H137   H     0.51931   0.02672   0.28992   0.00000  Uiso   1.00
H138   H     0.72664   0.31782   0.05326   0.00000  Uiso   1.00
H139   H     0.79527   0.29670   0.01135   0.00000  Uiso   1.00
H140   H     0.82493   0.31570   0.08700   0.00000  Uiso   1.00
H141   H     0.91788   0.27546   0.27279   0.00000  Uiso   1.00
H142   H     0.80306   0.03083   0.05076   0.00000  Uiso   1.00
H143   H     0.78400   0.04653   0.26895   0.00000  Uiso   1.00
H144   H     0.72247   0.04547   0.32675   0.00000  Uiso   1.00
H145   H     0.69932   0.31649   0.28080   0.00000  Uiso   1.00
H146   H     0.69363   0.04168   0.25246   0.00000  Uiso   1.00
H147   H     0.71103   0.12982   0.31739   0.00000  Uiso   1.00
H148   H     0.78821   0.20478   0.01625   0.00000  Uiso   1.00
H149   H     0.88742   0.32921   0.21045   0.00000  Uiso   1.00
H150   H     0.83946   0.29494   0.23207   0.00000  Uiso   1.00
H151   H     0.85788   0.27250   0.15748   0.00000  Uiso   1.00
H152   H     0.57985   0.06868   0.03783   0.00000  Uiso   1.00
H153   H     0.61907   0.00756   0.07526   0.00000  Uiso   1.00
H154   H     0.64746   0.05720   0.13859   0.00000  Uiso   1.00
N155   N     0.73744   0.15214   0.01284   0.00000  Uiso   1.00
N156   N     0.75828   0.01664   0.25367   0.00000  Uiso   1.00
N157   N     0.76255   0.18119   0.32049   0.00000  Uiso   1.00
N158   N     0.89754   0.25775   0.23331   0.00000  Uiso   1.00
N159   N     0.60191   0.08300   0.07681   0.00000  Uiso   1.00
N160   N     0.92714   0.03333   0.07722   0.00000  Uiso   1.00
N161   N     0.57211   0.29796   0.24383   0.00000  Uiso   1.00
N162   N     0.52291   0.02140   0.09821   0.00000  Uiso   1.00
N163   N     0.97709   0.31093   0.21498   0.00000  Uiso   1.00
N164   N     0.75453   0.31600   0.08224   0.00000  Uiso   1.00
O165   O     0.75325   0.09538   0.20659   0.00000  Uiso   1.00
O166   O     0.74674   0.23796   0.12674   0.00000  Uiso   1.00
O167   O     0.74480   0.08559   0.10279   0.00000  Uiso   1.00
O168   O     0.75520   0.24774   0.23055   0.00000  Uiso   1.00
O169   O     0.68935   0.17155   0.21857   0.00000  Uiso   1.00
O170   O     0.81064   0.16179   0.11476   0.00000  Uiso   1.00
O171   O     0.68090   0.16176   0.11477   0.00000  Uiso   1.00
O172   O     0.81910   0.17157   0.21857   0.00000  Uiso   1.00
C173   C     0.25027   0.40041   0.15147   0.00000  Uiso   1.00
C174   C     0.08564   0.45049   0.12658   0.00000  Uiso   1.00
C175   C     0.38413   0.50495   0.16537   0.00000  Uiso   1.00
C176   C     0.11539   0.49069   0.16657   0.00000  Uiso   1.00
C177   C     0.39971   0.46006   0.13542   0.00000  Uiso   1.00
C178   C     0.09855   0.53093   0.20500   0.00000  Uiso   1.00
C179   C     0.44559   0.45707   0.13200   0.00000  Uiso   1.00
C180   C     0.05336   0.53831   0.19636   0.00000  Uiso   1.00
C181   C     0.47651   0.50086   0.16053   0.00000  Uiso   1.00
C182   C     0.02269   0.49656   0.16187   0.00000  Uiso   1.00
C183   C     0.46114   0.54866   0.18864   0.00000  Uiso   1.00
C184   C     0.25202   0.59975   0.18199   0.00000  Uiso   1.00
C185   C     0.03844   0.45010   0.13065   0.00000  Uiso   1.00
C186   C     0.46034   0.40963   0.10367   0.00000  Uiso   1.00
C187   C     0.03927   0.58775   0.21826   0.00000  Uiso   1.00
C188   C     0.36920   0.62335   0.20646   0.00000  Uiso   1.00
C189   C     0.13446   0.38200   0.08943   0.00000  Uiso   1.00
C190   C     0.40534   0.36761   0.01764   0.00000  Uiso   1.00
C191   C     0.10218   0.64737   0.20247   0.00000  Uiso   1.00
C192   C     0.00823   0.64361   0.04823   0.00000  Uiso   1.00
C193   C     0.00301   0.36040   0.24436   0.00000  Uiso   1.00
C194   C     0.29665   0.65706   0.05674   0.00000  Uiso   1.00
C195   C     0.00712   0.40487   0.10522   0.00000  Uiso   1.00
C196   C     0.21607   0.35532   0.27948   0.00000  Uiso   1.00
C197   C     0.49289   0.59410   0.21033   0.00000  Uiso   1.00
C198   C     0.25372   0.34532   0.14321   0.00000  Uiso   1.00
C199   C     0.25460   0.65543   0.19136   0.00000  Uiso   1.00
C200   C     0.16428   0.49541   0.16627   0.00000  Uiso   1.00
C201   C     0.33563   0.50317   0.16677   0.00000  Uiso   1.00
C202   C     0.41413   0.54946   0.19330   0.00000  Uiso   1.00
Cu203  Cu    0.25500   0.50579   0.22813   0.00000  Uiso   1.00
Cu204  Cu    0.24499   0.49421   0.10521   0.00000  Uiso   1.00
H205   H     0.37507   0.42639   0.11758   0.00000  Uiso   1.00
H206   H     0.16286   0.38635   0.06195   0.00000  Uiso   1.00
H207   H     0.43255   0.66390   0.08404   0.00000  Uiso   1.00
H208   H     0.42997   0.36494   0.31694   0.00000  Uiso   1.00
H209   H     0.38986   0.40408   0.01851   0.00000  Uiso   1.00
H210   H     0.37829   0.33465   0.00320   0.00000  Uiso   1.00
H211   H     0.08818   0.63073   0.28592   0.00000  Uiso   1.00
H212   H     0.10497   0.35693   0.20920   0.00000  Uiso   1.00
H213   H     0.09047   0.62824   0.15400   0.00000  Uiso   1.00
H214   H     0.13623   0.63652   0.21207   0.00000  Uiso   1.00
H215   H     0.05281   0.35293   0.12247   0.00000  Uiso   1.00
H216   H     0.12209   0.55961   0.23694   0.00000  Uiso   1.00
H217   H     0.49374   0.61089   0.06678   0.00000  Uiso   1.00
H218   H     0.03758   0.63101   0.02474   0.00000  Uiso   1.00
H219   H     0.48305   0.65187   0.01445   0.00000  Uiso   1.00
H220   H     0.45632   0.64630   0.17704   0.00000  Uiso   1.00
H221   H     0.48028   0.39140   0.25011   0.00000  Uiso   1.00
H222   H     0.02880   0.37121   0.21601   0.00000  Uiso   1.00
H223   H     0.01931   0.36006   0.28992   0.00000  Uiso   1.00
H224   H     0.22664   0.65116   0.05326   0.00000  Uiso   1.00
H225   H     0.29527   0.63003   0.01135   0.00000  Uiso   1.00
H226   H     0.32493   0.64904   0.08700   0.00000  Uiso   1.00
H227   H     0.41788   0.60879   0.27279   0.00000  Uiso   1.00
H228   H     0.30306   0.36416   0.05076   0.00000  Uiso   1.00
H229   H     0.28400   0.37987   0.26895   0.00000  Uiso   1.00
H230   H     0.22247   0.37881   0.32675   0.00000  Uiso   1.00
H231   H     0.19932   0.64982   0.28080   0.00000  Uiso   1.00
H232   H     0.19363   0.37502   0.25246   0.00000  Uiso   1.00
H233   H     0.21103   0.46315   0.31739   0.00000  Uiso   1.00
H234   H     0.28821   0.53811   0.01625   0.00000  Uiso   1.00
H235   H     0.38742   0.66255   0.21045   0.00000  Uiso   1.00
H236   H     0.33946   0.62827   0.23207   0.00000  Uiso   1.00
H237   H     0.35788   0.60584   0.15748   0.00000  Uiso   1.00
H238   H     0.07985   0.40202   0.03783   0.00000  Uiso   1.00
H239   H     0.11907   0.34090   0.07526   0.00000  Uiso   1.00
H240   H     0.14746   0.39053   0.13859   0.00000  Uiso   1.00
N241   N     0.23744   0.48547   0.01284   0.00000  Uiso   1.00
N242   N     0.25828   0.34997   0.25367   0.00000  Uiso   1.00
N243   N     0.26255   0.51453   0.32049   0.00000  Uiso   1.00
N244   N     0.39754   0.59108   0.23331   0.00000  Uiso   1.00
N245   N     0.10191   0.41634   0.07681   0.00000  Uiso   1.00
N246   N     0.42714   0.36666   0.07722   0.00000  Uiso   1.00
N247   N     0.07211   0.63130   0.24383   0.00000  Uiso   1.00
N248   N     0.02291   0.35474   0.09821   0.00000  Uiso   1.00
N249   N     0.47709   0.64427   0.21498   0.00000  Uiso   1.00
N250   N     0.25453   0.64933   0.08224   0.00000  Uiso   1.00
O251   O     0.25325   0.42871   0.20659   0.00000  Uiso   1.00
O252   O     0.24674   0.57129   0.12674   0.00000  Uiso   1.00
O253   O     0.24480   0.41892   0.10279   0.00000  Uiso   1.00
O254   O     0.25520   0.58108   0.23055   0.00000  Uiso   1.00
O255   O     0.18935   0.50488   0.21857   0.00000  Uiso   1.00
O256   O     0.31064   0.49512   0.11476   0.00000  Uiso   1.00
O257   O     0.18090   0.49510   0.11477   0.00000  Uiso   1.00
O258   O     0.31910   0.50490   0.21857   0.00000  Uiso   1.00
C259   C     0.75027   0.40041   0.15147   0.00000  Uiso   1.00
C260   C     0.58564   0.45049   0.12658   0.00000  Uiso   1.00
C261   C     0.88413   0.50495   0.16537   0.00000  Uiso   1.00
C262   C     0.61539   0.49069   0.16657   0.00000  Uiso   1.00
C263   C     0.89971   0.46006   0.13542   0.00000  Uiso   1.00
C264   C     0.59855   0.53093   0.20500   0.00000  Uiso   1.00
C265   C     0.94559   0.45707   0.13200   0.00000  Uiso   1.00
C266   C     0.55336   0.53831   0.19636   0.00000  Uiso   1.00
C267   C     0.97651   0.50086   0.16053   0.00000  Uiso   1.00
C268   C     0.52269   0.49656   0.16187   0.00000  Uiso   1.00
C269   C     0.96114   0.54866   0.18864   0.00000  Uiso   1.00
C270   C     0.75202   0.59975   0.18199   0.00000  Uiso   1.00
C271   C     0.53844   0.45010   0.13065   0.00000  Uiso   1.00
C272   C     0.96034   0.40963   0.10367   0.00000  Uiso   1.00
C273   C     0.53927   0.58775   0.21826   0.00000  Uiso   1.00
C274   C     0.86920   0.62335   0.20646   0.00000  Uiso   1.00
C275   C     0.63446   0.38200   0.08943   0.00000  Uiso   1.00
C276   C     0.90534   0.36761   0.01764   0.00000  Uiso   1.00
C277   C     0.60218   0.64737   0.20247   0.00000  Uiso   1.00
C278   C     0.50823   0.64361   0.04823   0.00000  Uiso   1.00
C279   C     0.50301   0.36040   0.24436   0.00000  Uiso   1.00
C280   C     0.79665   0.65706   0.05674   0.00000  Uiso   1.00
C281   C     0.50712   0.40487   0.10522   0.00000  Uiso   1.00
C282   C     0.71607   0.35532   0.27948   0.00000  Uiso   1.00
C283   C     0.99289   0.59410   0.21033   0.00000  Uiso   1.00
C284   C     0.75372   0.34532   0.14321   0.00000  Uiso   1.00
C285   C     0.75460   0.65543   0.19136   0.00000  Uiso   1.00
C286   C     0.66428   0.49541   0.16627   0.00000  Uiso   1.00
C287   C     0.83563   0.50317   0.16677   0.00000  Uiso   1.00
C288   C     0.91413   0.54946   0.19330   0.00000  Uiso   1.00
Cu289  Cu    0.75500   0.50579   0.22813   0.00000  Uiso   1.00
Cu290  Cu    0.74499   0.49421   0.10521   0.00000  Uiso   1.00
H291   H     0.87507   0.42639   0.11758   0.00000  Uiso   1.00
H292   H     0.66286   0.38635   0.06195   0.00000  Uiso   1.00
H293   H     0.93255   0.66390   0.08404   0.00000  Uiso   1.00
H294   H     0.92997   0.36494   0.31694   0.00000  Uiso   1.00
H295   H     0.88986   0.40408   0.01851   0.00000  Uiso   1.00
H296   H     0.87829   0.33465   0.00320   0.00000  Uiso   1.00
H297   H     0.58818   0.63073   0.28592   0.00000  Uiso   1.00
H298   H     0.60497   0.35693   0.20920   0.00000  Uiso   1.00
H299   H     0.59047   0.62824   0.15400   0.00000  Uiso   1.00
H300   H     0.63623   0.63652   0.21207   0.00000  Uiso   1.00
H301   H     0.55281   0.35293   0.12247   0.00000  Uiso   1.00
H302   H     0.62209   0.55961   0.23694   0.00000  Uiso   1.00
H303   H     0.99374   0.61089   0.06678   0.00000  Uiso   1.00
H304   H     0.53758   0.63101   0.02474   0.00000  Uiso   1.00
H305   H     0.98305   0.65187   0.01445   0.00000  Uiso   1.00
H306   H     0.95632   0.64630   0.17704   0.00000  Uiso   1.00
H307   H     0.98028   0.39140   0.25011   0.00000  Uiso   1.00
H308   H     0.52880   0.37121   0.21601   0.00000  Uiso   1.00
H309   H     0.51931   0.36006   0.28992   0.00000  Uiso   1.00
H310   H     0.72664   0.65116   0.05326   0.00000  Uiso   1.00
H311   H     0.79527   0.63003   0.01135   0.00000  Uiso   1.00
H312   H     0.82493   0.64904   0.08700   0.00000  Uiso   1.00
H313   H     0.91788   0.60879   0.27279   0.00000  Uiso   1.00
H314   H     0.80306   0.36416   0.05076   0.00000  Uiso   1.00
H315   H     0.78400   0.37987   0.26895   0.00000  Uiso   1.00
H316   H     0.72247   0.37881   0.32675   0.00000  Uiso   1.00
H317   H     0.69932   0.64982   0.28080   0.00000  Uiso   1.00
H318   H     0.69363   0.37502   0.25246   0.00000  Uiso   1.00
H319   H     0.71103   0.46315   0.31739   0.00000  Uiso   1.00
H320   H     0.78821   0.53811   0.01625   0.00000  Uiso   1.00
H321   H     0.88742   0.66255   0.21045   0.00000  Uiso   1.00
H322   H     0.83946   0.62827   0.23207   0.00000  Uiso   1.00
H323   H     0.85788   0.60584   0.15748   0.00000  Uiso   1.00
H324   H     0.57985   0.40202   0.03783   0.00000  Uiso   1.00
H325   H     0.61907   0.34090   0.07526   0.00000  Uiso   1.00
H326   H     0.64746   0.39053   0.13859   0.00000  Uiso   1.00
N327   N     0.73744   0.48547   0.01284   0.00000  Uiso   1.00
N328   N     0.75828   0.34997   0.25367   0.00000  Uiso   1.00
N329   N     0.76255   0.51453   0.32049   0.00000  Uiso   1.00
N330   N     0.89754   0.59108   0.23331   0.00000  Uiso   1.00
N331   N     0.60191   0.41634   0.07681   0.00000  Uiso   1.00
N332   N     0.92714   0.36666   0.07722   0.00000  Uiso   1.00
N333   N     0.57211   0.63130   0.24383   0.00000  Uiso   1.00
N334   N     0.52291   0.35474   0.09821   0.00000  Uiso   1.00
N335   N     0.97709   0.64427   0.21498   0.00000  Uiso   1.00
N336   N     0.75453   0.64933   0.08224   0.00000  Uiso   1.00
O337   O     0.75325   0.42871   0.20659   0.00000  Uiso   1.00
O338   O     0.74674   0.57129   0.12674   0.00000  Uiso   1.00
O339   O     0.74480   0.41892   0.10279   0.00000  Uiso   1.00
O340   O     0.75520   0.58108   0.23055   0.00000  Uiso   1.00
O341   O     0.68935   0.50488   0.21857   0.00000  Uiso   1.00
O342   O     0.81064   0.49512   0.11476   0.00000  Uiso   1.00
O343   O     0.68090   0.49510   0.11477   0.00000  Uiso   1.00
O344   O     0.81910   0.50490   0.21857   0.00000  Uiso   1.00
C345   C     0.25027   0.73375   0.15147   0.00000  Uiso   1.00
C346   C     0.08564   0.78382   0.12658   0.00000  Uiso   1.00
C347   C     0.38413   0.83828   0.16537   0.00000  Uiso   1.00
C348   C     0.11539   0.82402   0.16657   0.00000  Uiso   1.00
C349   C     0.39971   0.79340   0.13542   0.00000  Uiso   1.00
C350   C     0.09855   0.86426   0.20500   0.00000  Uiso   1.00
C351   C     0.44559   0.79040   0.13200   0.00000  Uiso   1.00
C352   C     0.05336   0.87165   0.19636   0.00000  Uiso   1.00
C353   C     0.47651   0.83419   0.16053   0.00000  Uiso   1.00
C354   C     0.02269   0.82989   0.16187   0.00000  Uiso   1.00
C355   C     0.46114   0.88199   0.18864   0.00000  Uiso   1.00
C356   C     0.25202   0.93309   0.18199   0.00000  Uiso   1.00
C357   C     0.03844   0.78343   0.13065   0.00000  Uiso   1.00
C358   C     0.46034   0.74296   0.10367   0.00000  Uiso   1.00
C359   C     0.03927   0.92108   0.21826   0.00000  Uiso   1.00
C360   C     0.36920   0.95668   0.20646   0.00000  Uiso   1.00
C361   C     0.13446   0.71533   0.08943   0.00000  Uiso   1.00
C362   C     0.40534   0.70094   0.01764   0.00000  Uiso   1.00
C363   C     0.10218   0.98070   0.20247   0.00000  Uiso   1.00
C364   C     0.00823   0.97695   0.04823   0.00000  Uiso   1.00
C365   C     0.00301   0.69373   0.24436   0.00000  Uiso   1.00
C366   C     0.29665   0.99039   0.05674   0.00000  Uiso   1.00
C367   C     0.00712   0.73821   0.10522   0.00000  Uiso   1.00
C368   C     0.21607   0.68865   0.27948   0.00000  Uiso   1.00
C369   C     0.49289   0.92743   0.21033   0.00000  Uiso   1.00
C370   C     0.25372   0.67865   0.14321   0.00000  Uiso   1.00
C371   C     0.25460   0.98876   0.19136   0.00000  Uiso   1.00
C372   C     0.16428   0.82875   0.16627   0.00000  Uiso   1.00
C373   C     0.33563   0.83650   0.16677   0.00000  Uiso   1.00
C374   C     0.41413   0.88280   0.19330   0.00000  Uiso   1.00
Cu375  Cu    0.25500   0.83913   0.22813   0.00000  Uiso   1.00
Cu376  Cu    0.24499   0.82754   0.10521   0.00000  Uiso   1.00
H377   H     0.37507   0.75973   0.11758   0.00000  Uiso   1.00
H378   H     0.16286   0.71969   0.06195   0.00000  Uiso   1.00
H379   H     0.43255   0.99723   0.08404   0.00000  Uiso   1.00
H380   H     0.42997   0.69827   0.31694   0.00000  Uiso   1.00
H381   H     0.38986   0.73741   0.01851   0.00000  Uiso   1.00
H382   H     0.37829   0.66798   0.00320   0.00000  Uiso   1.00
H383   H     0.08818   0.96406   0.28592   0.00000  Uiso   1.00
H384   H     0.10497   0.69027   0.20920   0.00000  Uiso   1.00
H385   H     0.09047   0.96158   0.15400   0.00000  Uiso   1.00
H386   H     0.13623   0.96985   0.21207   0.00000  Uiso   1.00
H387   H     0.05281   0.68626   0.12247   0.00000  Uiso   1.00
H388   H     0.12209   0.89294   0.23694   0.00000  Uiso   1.00
H389   H     0.49374   0.94422   0.06678   0.00000  Uiso   1.00
H390   H     0.03758   0.96434   0.02474   0.00000  Uiso   1.00
H391   H     0.48305   0.98520   0.01445   0.00000  Uiso   1.00
H392   H     0.45632   0.97964   0.17704   0.00000  Uiso   1.00
H393   H     0.48028   0.72473   0.25011   0.00000  Uiso   1.00
H394   H     0.02880   0.70454   0.21601   0.00000  Uiso   1.00
H395   H     0.01931   0.69339   0.28992   0.00000  Uiso   1.00
H396   H     0.22664   0.98449   0.05326   0.00000  Uiso   1.00
H397   H     0.29527   0.96337   0.01135   0.00000  Uiso   1.00
H398   H     0.32493   0.98237   0.08700   0.00000  Uiso   1.00
H399   H     0.41788   0.94213   0.27279   0.00000  Uiso   1.00
H400   H     0.30306   0.69750   0.05076   0.00000  Uiso   1.00
H401   H     0.28400   0.71320   0.26895   0.00000  Uiso   1.00
H402   H     0.22247   0.71214   0.32675   0.00000  Uiso   1.00
H403   H     0.19932   0.98315   0.28080   0.00000  Uiso   1.00
H404   H     0.19363   0.70835   0.25246   0.00000  Uiso   1.00
H405   H     0.21103   0.79649   0.31739   0.00000  Uiso   1.00
H406   H     0.28821   0.87145   0.01625   0.00000  Uiso   1.00
H407   H     0.38742   0.99588   0.21045   0.00000  Uiso   1.00
H408   H     0.33946   0.96161   0.23207   0.00000  Uiso   1.00
H409   H     0.35788   0.93917   0.15748   0.00000  Uiso   1.00
H410   H     0.07985   0.73535   0.03783   0.00000  Uiso   1.00
H411   H     0.11907   0.67423   0.07526   0.00000  Uiso   1.00
H412   H     0.14746   0.72386   0.13859   0.00000  Uiso   1.00
N413   N     0.23744   0.81881   0.01284   0.00000  Uiso   1.00
N414   N     0.25828   0.68331   0.25367   0.00000  Uiso   1.00
N415   N     0.26255   0.84786   0.32049   0.00000  Uiso   1.00
N416   N     0.39754   0.92441   0.23331   0.00000  Uiso   1.00
N417   N     0.10191   0.74967   0.07681   0.00000  Uiso   1.00
N418   N     0.42714   0.70000   0.07722   0.00000  Uiso   1.00
N419   N     0.07211   0.96463   0.24383   0.00000  Uiso   1.00
N420   N     0.02291   0.68807   0.09821   0.00000  Uiso   1.00
N421   N     0.47709   0.97760   0.21498   0.00000  Uiso   1.00
N422   N     0.25453   0.98266   0.08224   0.00000  Uiso   1.00
O423   O     0.25325   0.76204   0.20659   0.00000  Uiso   1.00
O424   O     0.24674   0.90462   0.12674   0.00000  Uiso   1.00
O425   O     0.24480   0.75226   0.10279   0.00000  Uiso   1.00
O426   O     0.25520   0.91441   0.23055   0.00000  Uiso   1.00
O427   O     0.18935   0.83821   0.21857   0.00000  Uiso   1.00
O428   O     0.31064   0.82845   0.11476   0.00000  Uiso   1.00
O429   O     0.18090   0.82843   0.11477   0.00000  Uiso   1.00
O430   O     0.31910   0.83824   0.21857   0.00000  Uiso   1.00
C431   C     0.75027   0.73375   0.15147   0.00000  Uiso   1.00
C432   C     0.58564   0.78382   0.12658   0.00000  Uiso   1.00
C433   C     0.88413   0.83828   0.16537   0.00000  Uiso   1.00
C434   C     0.61539   0.82402   0.16657   0.00000  Uiso   1.00
C435   C     0.89971   0.79340   0.13542   0.00000  Uiso   1.00
C436   C     0.59855   0.86426   0.20500   0.00000  Uiso   1.00
C437   C     0.94559   0.79040   0.13200   0.00000  Uiso   1.00
C438   C     0.55336   0.87165   0.19636   0.00000  Uiso   1.00
C439   C     0.97651   0.83419   0.16053   0.00000  Uiso   1.00
C440   C     0.52269   0.82989   0.16187   0.00000  Uiso   1.00
C441   C     0.96114   0.88199   0.18864   0.00000  Uiso   1.00
C442   C     0.75202   0.93309   0.18199   0.00000  Uiso   1.00
C443   C     0.53844   0.78343   0.13065   0.00000  Uiso   1.00
C444   C     0.96034   0.74296   0.10367   0.00000  Uiso   1.00
C445   C     0.53927   0.92108   0.21826   0.00000  Uiso   1.00
C446   C     0.86920   0.95668   0.20646   0.00000  Uiso   1.00
C447   C     0.63446   0.71533   0.08943   0.00000  Uiso   1.00
C448   C     0.90534   0.70094   0.01764   0.00000  Uiso   1.00
C449   C     0.60218   0.98070   0.20247   0.00000  Uiso   1.00
C450   C     0.50823   0.97695   0.04823   0.00000  Uiso   1.00
C451   C     0.50301   0.69373   0.24436   0.00000  Uiso   1.00
C452   C     0.79665   0.99039   0.05674   0.00000  Uiso   1.00
C453   C     0.50712   0.73821   0.10522   0.00000  Uiso   1.00
C454   C     0.71607   0.68865   0.27948   0.00000  Uiso   1.00
C455   C     0.99289   0.92743   0.21033   0.00000  Uiso   1.00
C456   C     0.75372   0.67865   0.14321   0.00000  Uiso   1.00
C457   C     0.75460   0.98876   0.19136   0.00000  Uiso   1.00
C458   C     0.66428   0.82875   0.16627   0.00000  Uiso   1.00
C459   C     0.83563   0.83650   0.16677   0.00000  Uiso   1.00
C460   C     0.91413   0.88280   0.19330   0.00000  Uiso   1.00
Cu461  Cu    0.75500   0.83913   0.22813   0.00000  Uiso   1.00
Cu462  Cu    0.74499   0.82754   0.10521   0.00000  Uiso   1.00
H463   H     0.87507   0.75973   0.11758   0.00000  Uiso   1.00
H464   H     0.66286   0.71969   0.06195   0.00000  Uiso   1.00
H465   H     0.93255   0.99723   0.08404   0.00000  Uiso   1.00
H466   H     0.92997   0.69827   0.31694   0.00000  Uiso   1.00
H467   H     0.88986   0.73741   0.01851   0.00000  Uiso   1.00
H468   H     0.87829   0.66798   0.00320   0.00000  Uiso   1.00
H469   H     0.58818   0.96406   0.28592   0.00000  Uiso   1.00
H470   H     0.60497   0.69027   0.20920   0.00000  Uiso   1.00
H471   H     0.59047   0.96158   0.15400   0.00000  Uiso   1.00
H472   H     0.63623   0.96985   0.21207   0.00000  Uiso   1.00
H473   H     0.55281   0.68626   0.12247   0.00000  Uiso   1.00
H474   H     0.62209   0.89294   0.23694   0.00000  Uiso   1.00
H475   H     0.99374   0.94422   0.06678   0.00000  Uiso   1.00
H476   H     0.53758   0.96434   0.02474   0.00000  Uiso   1.00
H477   H     0.98305   0.98520   0.01445   0.00000  Uiso   1.00
H478   H     0.95632   0.97964   0.17704   0.00000  Uiso   1.00
H479   H     0.98028   0.72473   0.25011   0.00000  Uiso   1.00
H480   H     0.52880   0.70454   0.21601   0.00000  Uiso   1.00
H481   H     0.51931   0.69339   0.28992   0.00000  Uiso   1.00
H482   H     0.72664   0.98449   0.05326   0.00000  Uiso   1.00
H483   H     0.79527   0.96337   0.01135   0.00000  Uiso   1.00
H484   H     0.82493   0.98237   0.08700   0.00000  Uiso   1.00
H485   H     0.91788   0.94213   0.27279   0.00000  Uiso   1.00
H486   H     0.80306   0.69750   0.05076   0.00000  Uiso   1.00
H487   H     0.78400   0.71320   0.26895   0.00000  Uiso   1.00
H488   H     0.72247   0.71214   0.32675   0.00000  Uiso   1.00
H489   H     0.69932   0.98315   0.28080   0.00000  Uiso   1.00
H490   H     0.69363   0.70835   0.25246   0.00000  Uiso   1.00
H491   H     0.71103   0.79649   0.31739   0.00000  Uiso   1.00
H492   H     0.78821   0.87145   0.01625   0.00000  Uiso   1.00
H493   H     0.88742   0.99588   0.21045   0.00000  Uiso   1.00
H494   H     0.83946   0.96161   0.23207   0.00000  Uiso   1.00
H495   H     0.85788   0.93917   0.15748   0.00000  Uiso   1.00
H496   H     0.57985   0.73535   0.03783   0.00000  Uiso   1.00
H497   H     0.61907   0.67423   0.07526   0.00000  Uiso   1.00
H498   H     0.64746   0.72386   0.13859   0.00000  Uiso   1.00
N499   N     0.73744   0.81881   0.01284   0.00000  Uiso   1.00
N500   N     0.75828   0.68331   0.25367   0.00000  Uiso   1.00
N501   N     0.76255   0.84786   0.32049   0.00000  Uiso   1.00
N502   N     0.89754   0.92441   0.23331   0.00000  Uiso   1.00
N503   N     0.60191   0.74967   0.07681   0.00000  Uiso   1.00
N504   N     0.92714   0.70000   0.07722   0.00000  Uiso   1.00
N505   N     0.57211   0.96463   0.24383   0.00000  Uiso   1.00
N506   N     0.52291   0.68807   0.09821   0.00000  Uiso   1.00
N507   N     0.97709   0.97760   0.21498   0.00000  Uiso   1.00
N508   N     0.75453   0.98266   0.08224   0.00000  Uiso   1.00
O509   O     0.75325   0.76204   0.20659   0.00000  Uiso   1.00
O510   O     0.74674   0.90462   0.12674   0.00000  Uiso   1.00
O511   O     0.74480   0.75226   0.10279   0.00000  Uiso   1.00
O512   O     0.75520   0.91441   0.23055   0.00000  Uiso   1.00
O513   O     0.68935   0.83821   0.21857   0.00000  Uiso   1.00
O514   O     0.81064   0.82845   0.11476   0.00000  Uiso   1.00
O515   O     0.68090   0.82843   0.11477   0.00000  Uiso   1.00
O516   O     0.81910   0.83824   0.21857   0.00000  Uiso   1.00
C517   C     0.25027   0.06708   0.48480   0.00000  Uiso   1.00
C518   C     0.08564   0.11716   0.45992   0.00000  Uiso   1.00
C519   C     0.38413   0.17161   0.49870   0.00000  Uiso   1.00
C520   C     0.11539   0.15736   0.49990   0.00000  Uiso   1.00
C521   C     0.39971   0.12673   0.46875   0.00000  Uiso   1.00
C522   C     0.09855   0.19760   0.53833   0.00000  Uiso   1.00
C523   C     0.44559   0.12373   0.46534   0.00000  Uiso   1.00
C524   C     0.05336   0.20498   0.52970   0.00000  Uiso   1.00
C525   C     0.47651   0.16753   0.49386   0.00000  Uiso   1.00
C526   C     0.02269   0.16322   0.49521   0.00000  Uiso   1.00
C527   C     0.46114   0.21532   0.52198   0.00000  Uiso   1.00
C528   C     0.25202   0.26642   0.51532   0.00000  Uiso   1.00
C529   C     0.03844   0.11677   0.46399   0.00000  Uiso   1.00
C530   C     0.46034   0.07629   0.43700   0.00000  Uiso   1.00
C531   C     0.03927   0.25441   0.55159   0.00000  Uiso   1.00
C532   C     0.36920   0.29002   0.53979   0.00000  Uiso   1.00
C533   C     0.13446   0.04867   0.42277   0.00000  Uiso   1.00
C534   C     0.40534   0.03428   0.35097   0.00000  Uiso   1.00
C535   C     0.10218   0.31403   0.53581   0.00000  Uiso   1.00
C536   C     0.00823   0.31028   0.38157   0.00000  Uiso   1.00
C537   C     0.00301   0.02706   0.57770   0.00000  Uiso   1.00
C538   C     0.29665   0.32372   0.39007   0.00000  Uiso   1.00
C539   C     0.00712   0.07154   0.43855   0.00000  Uiso   1.00
C540   C     0.21607   0.02199   0.61281   0.00000  Uiso   1.00
C541   C     0.49289   0.26076   0.54367   0.00000  Uiso   1.00
C542   C     0.25372   0.01199   0.47654   0.00000  Uiso   1.00
C543   C     0.25460   0.32209   0.52470   0.00000  Uiso   1.00
C544   C     0.16428   0.16208   0.49961   0.00000  Uiso   1.00
C545   C     0.33563   0.16983   0.50010   0.00000  Uiso   1.00
C546   C     0.41413   0.21613   0.52663   0.00000  Uiso   1.00
Cu547  Cu    0.25500   0.17246   0.56146   0.00000  Uiso   1.00
Cu548  Cu    0.24499   0.16087   0.43854   0.00000  Uiso   1.00
H549   H     0.37507   0.09306   0.45092   0.00000  Uiso   1.00
H550   H     0.16286   0.05302   0.39529   0.00000  Uiso   1.00
H551   H     0.43255   0.33057   0.41737   0.00000  Uiso   1.00
H552   H     0.42997   0.03160   0.65027   0.00000  Uiso   1.00
H553   H     0.38986   0.07075   0.35185   0.00000  Uiso   1.00
H554   H     0.37829   0.00132   0.33654   0.00000  Uiso   1.00
H555   H     0.08818   0.29740   0.61926   0.00000  Uiso   1.00
H556   H     0.10497   0.02360   0.54254   0.00000  Uiso   1.00
H557   H     0.09047   0.29491   0.48734   0.00000  Uiso   1.00
H558   H     0.13623   0.30318   0.54541   0.00000  Uiso   1.00
H559   H     0.05281   0.01959   0.45580   0.00000  Uiso   1.00
H560   H     0.12209   0.22627   0.57027   0.00000  Uiso   1.00
H561   H     0.49374   0.27756   0.40011   0.00000  Uiso   1.00
H562   H     0.03758   0.29767   0.35807   0.00000  Uiso   1.00
H563   H     0.48305   0.31853   0.34778   0.00000  Uiso   1.00
H564   H     0.45632   0.31297   0.51037   0.00000  Uiso   1.00
H565   H     0.48028   0.05806   0.58344   0.00000  Uiso   1.00
H566   H     0.02880   0.03788   0.54934   0.00000  Uiso   1.00
H567   H     0.01931   0.02672   0.62325   0.00000  Uiso   1.00
H568   H     0.22664   0.31782   0.38659   0.00000  Uiso   1.00
H569   H     0.29527   0.29670   0.34468   0.00000  Uiso   1.00
H570   H     0.32493   0.31570   0.42033   0.00000  Uiso   1.00
H571   H     0.41788   0.27546   0.60612   0.00000  Uiso   1.00
H572   H     0.30306   0.03083   0.38409   0.00000  Uiso   1.00
H573   H     0.28400   0.04653   0.60228   0.00000  Uiso   1.00
H574   H     0.22247   0.04547   0.66008   0.00000  Uiso   1.00
H575   H     0.19932   0.31649   0.61413   0.00000  Uiso   1.00
H576   H     0.19363   0.04168   0.58579   0.00000  Uiso   1.00
H577   H     0.21103   0.12982   0.65073   0.00000  Uiso   1.00
H578   H     0.28821   0.20478   0.34958   0.00000  Uiso   1.00
H579   H     0.38742   0.32921   0.54378   0.00000  Uiso   1.00
H580   H     0.33946   0.29494   0.56540   0.00000  Uiso   1.00
H581   H     0.35788   0.27250   0.49081   0.00000  Uiso   1.00
H582   H     0.07985   0.06868   0.37116   0.00000  Uiso   1.00
H583   H     0.11907   0.00756   0.40860   0.00000  Uiso   1.00
H584   H     0.14746   0.05720   0.47193   0.00000  Uiso   1.00
N585   N     0.23744   0.15214   0.34617   0.00000  Uiso   1.00
N586   N     0.25828   0.01664   0.58700   0.00000  Uiso   1.00
N587   N     0.26255   0.18119   0.65383   0.00000  Uiso   1.00
N588   N     0.39754   0.25775   0.56664   0.00000  Uiso   1.00
N589   N     0.10191   0.08300   0.41014   0.00000  Uiso   1.00
N590   N     0.42714   0.03333   0.41055   0.00000  Uiso   1.00
N591   N     0.07211   0.29796   0.57716   0.00000  Uiso   1.00
N592   N     0.02291   0.02140   0.43154   0.00000  Uiso   1.00
N593   N     0.47709   0.31093   0.54831   0.00000  Uiso   1.00
N594   N     0.25453   0.31600   0.41557   0.00000  Uiso   1.00
O595   O     0.25325   0.09538   0.53992   0.00000  Uiso   1.00
O596   O     0.24674   0.23796   0.46008   0.00000  Uiso   1.00
O597   O     0.24480   0.08559   0.43612   0.00000  Uiso   1.00
O598   O     0.25520   0.24774   0.56388   0.00000  Uiso   1.00
O599   O     0.18935   0.17155   0.55191   0.00000  Uiso   1.00
O600   O     0.31064   0.16179   0.44809   0.00000  Uiso   1.00
O601   O     0.18090   0.16176   0.44810   0.00000  Uiso   1.00
O602   O     0.31910   0.17157   0.55190   0.00000  Uiso   1.00
C603   C     0.75027   0.06708   0.48480   0.00000  Uiso   1.00
C604   C     0.58564   0.11716   0.45992   0.00000  Uiso   1.00
C605   C     0.88413   0.17161   0.49870   0.00000  Uiso   1.00
C606   C     0.61539   0.15736   0.49990   0.00000  Uiso   1.00
C607   C     0.89971   0.12673   0.46875   0.00000  Uiso   1.00
C608   C     0.59855   0.19760   0.53833   0.00000  Uiso   1.00
C609   C     0.94559   0.12373   0.46534   0.00000  Uiso   1.00
C610   C     0.55336   0.20498   0.52970   0.00000  Uiso   1.00
C611   C     0.97651   0.16753   0.49386   0.00000  Uiso   1.00
C612   C     0.52269   0.16322   0.49521   0.00000  Uiso   1.00
C613   C     0.96114   0.21532   0.52198   0.00000  Uiso   1.00
C614   C     0.75202   0.26642   0.51532   0.00000  Uiso   1.00
C615   C     0.53844   0.11677   0.46399   0.00000  Uiso   1.00
C616   C     0.96034   0.07629   0.43700   0.00000  Uiso   1.00
C617   C     0.53927   0.25441   0.55159   0.00000  Uiso   1.00
C618   C     0.86920   0.29002   0.53979   0.00000  Uiso   1.00
C619   C     0.63446   0.04867   0.42277   0.00000  Uiso   1.00
C620   C     0.90534   0.03428   0.35097   0.00000  Uiso   1.00
C621   C     0.60218   0.31403   0.53581   0.00000  Uiso   1.00
C622   C     0.50823   0.31028   0.38157   0.00000  Uiso   1.00
C623   C     0.50301   0.02706   0.57770   0.00000  Uiso   1.00
C624   C     0.79665   0.32372   0.39007   0.00000  Uiso   1.00
C625   C     0.50712   0.07154   0.43855   0.00000  Uiso   1.00
C626   C     0.71607   0.02199   0.61281   0.00000  Uiso   1.00
C627   C     0.99289   0.26076   0.54367   0.00000  Uiso   1.00
C628   C     0.75372   0.01199   0.47654   0.00000  Uiso   1.00
C629   C     0.75460   0.32209   0.52470   0.00000  Uiso   1.00
C630   C     0.66428   0.16208   0.49961   0.00000  Uiso   1.00
C631   C     0.83563   0.16983   0.50010   0.00000  Uiso   1.00
C632   C     0.91413   0.21613   0.52663   0.00000  Uiso   1.00
Cu633  Cu    0.75500   0.17246   0.56146   0.00000  Uiso   1.00
Cu634  Cu    0.74499   0.16087   0.43854   0.00000  Uiso   1.00
H635   H     0.87507   0.09306   0.45092   0.00000  Uiso   1.00
H636   H     0.66286   0.05302   0.39529   0.00000  Uiso   1.00
H637   H     0.93255   0.33057   0.41737   0.00000  Uiso   1.00
H638   H     0.92997   0.03160   0.65027   0.00000  Uiso   1.00
H639   H     0.88986   0.07075   0.35185   0.00000  Uiso   1.00
H640   H     0.87829   0.00132   0.33654   0.00000  Uiso   1.00
H641   H     0.58818   0.29740   0.61926   0.00000  Uiso   1.00
H642   H     0.60497   0.02360   0.54254   0.00000  Uiso   1.00
H643   H     0.59047   0.29491   0.48734   0.00000  Uiso   1.00
H644   H     0.63623   0.30318   0.54541   0.00000  Uiso   1.00
H645   H     0.55281   0.01959   0.45580   0.00000  Uiso   1.00
H646   H     0.62209   0.22627   0.57027   0.00000  Uiso   1.00
H647   H     0.99374   0.27756   0.40011   0.00000  Uiso   1.00
H648   H     0.53758   0.29767   0.35807   0.00000  Uiso   1.00
H649   H     0.98305   0.31853   0.34778   0.00000  Uiso   1.00
H650   H     0.95632   0.31297   0.51037   0.00000  Uiso   1.00
H651   H     0.98028   0.05806   0.58344   0.00000  Uiso   1.00
H652   H     0.52880   0.03788   0.54934   0.00000  Uiso   1.00
H653   H     0.51931   0.02672   0.62325   0.00000  Uiso   1.00
H654   H     0.72664   0.31782   0.38659   0.00000  Uiso   1.00
H655   H     0.79527   0.29670   0.34468   0.00000  Uiso   1.00
H656   H     0.82493   0.31570   0.42033   0.00000  Uiso   1.00
H657   H     0.91788   0.27546   0.60612   0.00000  Uiso   1.00
H658   H     0.80306   0.03083   0.38409   0.00000  Uiso   1.00
H659   H     0.78400   0.04653   0.60228   0.00000  Uiso   1.00
H660   H     0.72247   0.04547   0.66008   0.00000  Uiso   1.00
H661   H     0.69932   0.31649   0.61413   0.00000  Uiso   1.00
H662   H     0.69363   0.04168   0.58579   0.00000  Uiso   1.00
H663   H     0.71103   0.12982   0.65073   0.00000  Uiso   1.00
H664   H     0.78821   0.20478   0.34958   0.00000  Uiso   1.00
H665   H     0.88742   0.32921   0.54378   0.00000  Uiso   1.00
H666   H     0.83946   0.29494   0.56540   0.00000  Uiso   1.00
H667   H     0.85788   0.27250   0.49081   0.00000  Uiso   1.00
H668   H     0.57985   0.06868   0.37116   0.00000  Uiso   1.00
H669   H     0.61907   0.00756   0.40860   0.00000  Uiso   1.00
H670   H     0.64746   0.05720   0.47193   0.00000  Uiso   1.00
N671   N     0.73744   0.15214   0.34617   0.00000  Uiso   1.00
N672   N     0.75828   0.01664   0.58700   0.00000  Uiso   1.00
N673   N     0.76255   0.18119   0.65383   0.00000  Uiso   1.00
N674   N     0.89754   0.25775   0.56664   0.00000  Uiso   1.00
N675   N     0.60191   0.08300   0.41014   0.00000  Uiso   1.00
N676   N     0.92714   0.03333   0.41055   0.00000  Uiso   1.00
N677   N     0.57211   0.29796   0.57716   0.00000  Uiso   1.00
N678   N     0.52291   0.02140   0.43154   0.00000  Uiso   1.00
N679   N     0.97709   0.31093   0.54831   0.00000  Uiso   1.00
N680   N     0.75453   0.31600   0.41557   0.00000  Uiso   1.00
O681   O     0.75325   0.09538   0.53992   0.00000  Uiso   1.00
O682   O     0.74674   0.23796   0.46008   0.00000  Uiso   1.00
O683   O     0.74480   0.08559   0.43612   0.00000  Uiso   1.00
O684   O     0.75520   0.24774   0.56388   0.00000  Uiso   1.00
O685   O     0.68935   0.17155   0.55191   0.00000  Uiso   1.00
O686   O     0.81064   0.16179   0.44809   0.00000  Uiso   1.00
O687   O     0.68090   0.16176   0.44810   0.00000  Uiso   1.00
O688   O     0.81910   0.17157   0.55190   0.00000  Uiso   1.00
C689   C     0.25027   0.40041   0.48480   0.00000  Uiso   1.00
C690   C     0.08564   0.45049   0.45992   0.00000  Uiso   1.00
C691   C     0.38413   0.50495   0.49870   0.00000  Uiso   1.00
C692   C     0.11539   0.49069   0.49990   0.00000  Uiso   1.00
C693   C     0.39971   0.46006   0.46875   0.00000  Uiso   1.00
C694   C     0.09855   0.53093   0.53833   0.00000  Uiso   1.00
C695   C     0.44559   0.45707   0.46534   0.00000  Uiso   1.00
C696   C     0.05336   0.53831   0.52970   0.00000  Uiso   1.00
C697   C     0.47651   0.50086   0.49386   0.00000  Uiso   1.00
C698   C     0.02269   0.49656   0.49521   0.00000  Uiso   1.00
C699   C     0.46114   0.54866   0.52198   0.00000  Uiso   1.00
C700   C     0.25202   0.59975   0.51532   0.00000  Uiso   1.00
C701   C     0.03844   0.45010   0.46399   0.00000  Uiso   1.00
C702   C     0.46034   0.40963   0.43700   0.00000  Uiso   1.00
C703   C     0.03927   0.58775   0.55159   0.00000  Uiso   1.00
C704   C     0.36920   0.62335   0.53979   0.00000  Uiso   1.00
C705   C     0.13446   0.38200   0.42277   0.00000  Uiso   1.00
C706   C     0.40534   0.36761   0.35097   0.00000  Uiso   1.00
C707   C     0.10218   0.64737   0.53581   0.00000  Uiso   1.00
C708   C     0.00823   0.64361   0.38157   0.00000  Uiso   1.00
C709   C     0.00301   0.36040   0.57770   0.00000  Uiso   1.00
C710   C     0.29665   0.65706   0.39007   0.00000  Uiso   1.00
C711   C     0.00712   0.40487   0.43855   0.00000  Uiso   1.00
C712   C     0.21607   0.35532   0.61281   0.00000  Uiso   1.00
C713   C     0.49289   0.59410   0.54367   0.00000  Uiso   1.00
C714   C     0.25372   0.34532   0.47654   0.00000  Uiso   1.00
C715   C     0.25460   0.65543   0.52470   0.00000  Uiso   1.00
C716   C     0.16428   0.49541   0.49961   0.00000  Uiso   1.00
C717   C     0.33563   0.50317   0.50010   0.00000  Uiso   1.00
C718   C     0.41413   0.54946   0.52663   0.00000  Uiso   1.00
Cu719  Cu    0.25500   0.50579   0.56146   0.00000  Uiso   1.00
Cu720  Cu    0.24499   0.49421   0.43854   0.00000  Uiso   1.00
H721   H     0.37507   0.42639   0.45092   0.00000  Uiso   1.00
H722   H     0.16286   0.38635   0.39529   0.00000  Uiso   1.00
H723   H     0.43255   0.66390   0.41737   0.00000  Uiso   1.00
H724   H     0.42997   0.36494   0.65027   0.00000  Uiso   1.00
H725   H     0.38986   0.40408   0.35185   0.00000  Uiso   1.00
H726   H     0.37829   0.33465   0.33654   0.00000  Uiso   1.00
H727   H     0.08818   0.63073   0.61926   0.00000  Uiso   1.00
H728   H     0.10497   0.35693   0.54254   0.00000  Uiso   1.00
H729   H     0.09047   0.62824   0.48734   0.00000  Uiso   1.00
H730   H     0.13623   0.63652   0.54541   0.00000  Uiso   1.00
H731   H     0.05281   0.35293   0.45580   0.00000  Uiso   1.00
H732   H     0.12209   0.55961   0.57027   0.00000  Uiso   1.00
H733   H     0.49374   0.61089   0.40011   0.00000  Uiso   1.00
H734   H     0.03758   0.63101   0.35807   0.00000  Uiso   1.00
H735   H     0.48305   0.65187   0.34778   0.00000  Uiso   1.00
H736   H     0.45632   0.64630   0.51037   0.00000  Uiso   1.00
H737   H     0.48028   0.39140   0.58344   0.00000  Uiso   1.00
H738   H     0.02880   0.37121   0.54934   0.00000  Uiso   1.00
H739   H     0.01931   0.36006   0.62325   0.00000  Uiso   1.00
H740   H     0.22664   0.65116   0.38659   0.00000  Uiso   1.00
H741   H     0.29527   0.63003   0.34468   0.00000  Uiso   1.00
H742   H     0.32493   0.64904   0.42033   0.00000  Uiso   1.00
H743   H     0.41788   0.60879   0.60612   0.00000  Uiso   1.00
H744   H     0.30306   0.36416   0.38409   0.00000  Uiso   1.00
H745   H     0.28400   0.37987   0.60228   0.00000  Uiso   1.00
H746   H     0.22247   0.37881   0.66008   0.00000  Uiso   1.00
H747   H     0.19932   0.64982   0.61413   0.00000  Uiso   1.00
H748   H     0.19363   0.37502   0.58579   0.00000  Uiso   1.00
H749   H     0.21103   0.46315   0.65073   0.00000  Uiso   1.00
H750   H     0.28821   0.53811   0.34958   0.00000  Uiso   1.00
H751   H     0.38742   0.66255   0.54378   0.00000  Uiso   1.00
H752   H     0.33946   0.62827   0.56540   0.00000  Uiso   1.00
H753   H     0.35788   0.60584   0.49081   0.00000  Uiso   1.00
H754   H     0.07985   0.40202   0.37116   0.00000  Uiso   1.00
H755   H     0.11907   0.34090   0.40860   0.00000  Uiso   1.00
H756   H     0.14746   0.39053   0.47193   0.00000  Uiso   1.00
N757   N     0.23744   0.48547   0.34617   0.00000  Uiso   1.00
N758   N     0.25828   0.34997   0.58700   0.00000  Uiso   1.00
N759   N     0.26255   0.51453   0.65383   0.00000  Uiso   1.00
N760   N     0.39754   0.59108   0.56664   0.00000  Uiso   1.00
N761   N     0.10191   0.41634   0.41014   0.00000  Uiso   1.00
N762   N     0.42714   0.36666   0.41055   0.00000  Uiso   1.00
N763   N     0.07211   0.63130   0.57716   0.00000  Uiso   1.00
N764   N     0.02291   0.35474   0.43154   0.00000  Uiso   1.00
N765   N     0.47709   0.64427   0.54831   0.00000  Uiso   1.00
N766   N     0.25453   0.64933   0.41557   0.00000  Uiso   1.00
O767   O     0.25325   0.42871   0.53992   0.00000  Uiso   1.00
O768   O     0.24674   0.57129   0.46008   0.00000  Uiso   1.00
O769   O     0.24480   0.41892   0.43612   0.00000  Uiso   1.00
O770   O     0.25520   0.58108   0.56388   0.00000  Uiso   1.00
O771   O     0.18935   0.50488   0.55191   0.00000  Uiso   1.00
O772   O     0.31064   0.49512   0.44809   0.00000  Uiso   1.00
O773   O     0.18090   0.49510   0.44810   0.00000  Uiso   1.00
O774   O     0.31910   0.50490   0.55190   0.00000  Uiso   1.00
C775   C     0.75027   0.40041   0.48480   0.00000  Uiso   1.00
C776   C     0.58564   0.45049   0.45992   0.00000  Uiso   1.00
C777   C     0.88413   0.50495   0.49870   0.00000  Uiso   1.00
C778   C     0.61539   0.49069   0.49990   0.00000  Uiso   1.00
C779   C     0.89971   0.46006   0.46875   0.00000  Uiso   1.00
C780   C     0.59855   0.53093   0.53833   0.00000  Uiso   1.00
C781   C     0.94559   0.45707   0.46534   0.00000  Uiso   1.00
C782   C     0.55336   0.53831   0.52970   0.00000  Uiso   1.00
C783   C     0.97651   0.50086   0.49386   0.00000  Uiso   1.00
C784   C     0.52269   0.49656   0.49521   0.00000  Uiso   1.00
C785   C     0.96114   0.54866   0.52198   0.00000  Uiso   1.00
C786   C     0.75202   0.59975   0.51532   0.00000  Uiso   1.00
C787   C     0.53844   0.45010   0.46399   0.00000  Uiso   1.00
C788   C     0.96034   0.40963   0.43700   0.00000  Uiso   1.00
C789   C     0.53927   0.58775   0.55159   0.00000  Uiso   1.00
C790   C     0.86920   0.62335   0.53979   0.00000  Uiso   1.00
C791   C     0.63446   0.38200   0.42277   0.00000  Uiso   1.00
C792   C     0.90534   0.36761   0.35097   0.00000  Uiso   1.00
C793   C     0.60218   0.64737   0.53581   0.00000  Uiso   1.00
C794   C     0.50823   0.64361   0.38157   0.00000  Uiso   1.00
C795   C     0.50301   0.36040   0.57770   0.00000  Uiso   1.00
C796   C     0.79665   0.65706   0.39007   0.00000  Uiso   1.00
C797   C     0.50712   0.40487   0.43855   0.00000  Uiso   1.00
C798   C     0.71607   0.35532   0.61281   0.00000  Uiso   1.00
C799   C     0.99289   0.59410   0.54367   0.00000  Uiso   1.00
C800   C     0.75372   0.34532   0.47654   0.00000  Uiso   1.00
C801   C     0.75460   0.65543   0.52470   0.00000  Uiso   1.00
C802   C     0.66428   0.49541   0.49961   0.00000  Uiso   1.00
C803   C     0.83563   0.50317   0.50010   0.00000  Uiso   1.00
C804   C     0.91413   0.54946   0.52663   0.00000  Uiso   1.00
Cu805  Cu    0.75500   0.50579   0.56146   0.00000  Uiso   1.00
Cu806  Cu    0.74499   0.49421   0.43854   0.00000  Uiso   1.00
H807   H     0.87507   0.42639   0.45092   0.00000  Uiso   1.00
H808   H     0.66286   0.38635   0.39529   0.00000  Uiso   1.00
H809   H     0.93255   0.66390   0.41737   0.00000  Uiso   1.00
H810   H     0.92997   0.36494   0.65027   0.00000  Uiso   1.00
H811   H     0.88986   0.40408   0.35185   0.00000  Uiso   1.00
H812   H     0.87829   0.33465   0.33654   0.00000  Uiso   1.00
H813   H     0.58818   0.63073   0.61926   0.00000  Uiso   1.00
H814   H     0.60497   0.35693   0.54254   0.00000  Uiso   1.00
H815   H     0.59047   0.62824   0.48734   0.00000  Uiso   1.00
H816   H     0.63623   0.63652   0.54541   0.00000  Uiso   1.00
H817   H     0.55281   0.35293   0.45580   0.00000  Uiso   1.00
H818   H     0.62209   0.55961   0.57027   0.00000  Uiso   1.00
H819   H     0.99374   0.61089   0.40011   0.00000  Uiso   1.00
H820   H     0.53758   0.63101   0.35807   0.00000  Uiso   1.00
H821   H     0.98305   0.65187   0.34778   0.00000  Uiso   1.00
H822   H     0.95632   0.64630   0.51037   0.00000  Uiso   1.00
H823   H     0.98028   0.39140   0.58344   0.00000  Uiso   1.00
H824   H     0.52880   0.37121   0.54934   0.00000  Uiso   1.00
H825   H     0.51931   0.36006   0.62325   0.00000  Uiso   1.00
H826   H     0.72664   0.65116   0.38659   0.00000  Uiso   1.00
H827   H     0.79527   0.63003   0.34468   0.00000  Uiso   1.00
H828   H     0.82493   0.64904   0.42033   0.00000  Uiso   1.00
H829   H     0.91788   0.60879   0.60612   0.00000  Uiso   1.00
H830   H     0.80306   0.36416   0.38409   0.00000  Uiso   1.00
H831   H     0.78400   0.37987   0.60228   0.00000  Uiso   1.00
H832   H     0.72247   0.37881   0.66008   0.00000  Uiso   1.00
H833   H     0.69932   0.64982   0.61413   0.00000  Uiso   1.00
H834   H     0.69363   0.37502   0.58579   0.00000  Uiso   1.00
H835   H     0.71103   0.46315   0.65073   0.00000  Uiso   1.00
H836   H     0.78821   0.53811   0.34958   0.00000  Uiso   1.00
H837   H     0.88742   0.66255   0.54378   0.00000  Uiso   1.00
H838   H     0.83946   0.62827   0.56540   0.00000  Uiso   1.00
H839   H     0.85788   0.60584   0.49081   0.00000  Uiso   1.00
H840   H     0.57985   0.40202   0.37116   0.00000  Uiso   1.00
H841   H     0.61907   0.34090   0.40860   0.00000  Uiso   1.00
H842   H     0.64746   0.39053   0.47193   0.00000  Uiso   1.00
N843   N     0.73744   0.48547   0.34617   0.00000  Uiso   1.00
N844   N     0.75828   0.34997   0.58700   0.00000  Uiso   1.00
N845   N     0.76255   0.51453   0.65383   0.00000  Uiso   1.00
N846   N     0.89754   0.59108   0.56664   0.00000  Uiso   1.00
N847   N     0.60191   0.41634   0.41014   0.00000  Uiso   1.00
N848   N     0.92714   0.36666   0.41055   0.00000  Uiso   1.00
N849   N     0.57211   0.63130   0.57716   0.00000  Uiso   1.00
N850   N     0.52291   0.35474   0.43154   0.00000  Uiso   1.00
N851   N     0.97709   0.64427   0.54831   0.00000  Uiso   1.00
N852   N     0.75453   0.64933   0.41557   0.00000  Uiso   1.00
O853   O     0.75325   0.42871   0.53992   0.00000  Uiso   1.00
O854   O     0.74674   0.57129   0.46008   0.00000  Uiso   1.00
O855   O     0.74480   0.41892   0.43612   0.00000  Uiso   1.00
O856   O     0.75520   0.58108   0.56388   0.00000  Uiso   1.00
O857   O     0.68935   0.50488   0.55191   0.00000  Uiso   1.00
O858   O     0.81064   0.49512   0.44809   0.00000  Uiso   1.00
O859   O     0.68090   0.49510   0.44810   0.00000  Uiso   1.00
O860   O     0.81910   0.50490   0.55190   0.00000  Uiso   1.00
C861   C     0.25027   0.73375   0.48480   0.00000  Uiso   1.00
C862   C     0.08564   0.78382   0.45992   0.00000  Uiso   1.00
C863   C     0.38413   0.83828   0.49870   0.00000  Uiso   1.00
C864   C     0.11539   0.82402   0.49990   0.00000  Uiso   1.00
C865   C     0.39971   0.79340   0.46875   0.00000  Uiso   1.00
C866   C     0.09855   0.86426   0.53833   0.00000  Uiso   1.00
C867   C     0.44559   0.79040   0.46534   0.00000  Uiso   1.00
C868   C     0.05336   0.87165   0.52970   0.00000  Uiso   1.00
C869   C     0.47651   0.83419   0.49386   0.00000  Uiso   1.00
C870   C     0.02269   0.82989   0.49521   0.00000  Uiso   1.00
C871   C     0.46114   0.88199   0.52198   0.00000  Uiso   1.00
C872   C     0.25202   0.93309   0.51532   0.00000  Uiso   1.00
C873   C     0.03844   0.78343   0.46399   0.00000  Uiso   1.00
C874   C     0.46034   0.74296   0.43700   0.00000  Uiso   1.00
C875   C     0.03927   0.92108   0.55159   0.00000  Uiso   1.00
C876   C     0.36920   0.95668   0.53979   0.00000  Uiso   1.00
C877   C     0.13446   0.71533   0.42277   0.00000  Uiso   1.00
C878   C     0.40534   0.70094   0.35097   0.00000  Uiso   1.00
C879   C     0.10218   0.98070   0.53581   0.00000  Uiso   1.00
C880   C     0.00823   0.97695   0.38157   0.00000  Uiso   1.00
C881   C     0.00301   0.69373   0.57770   0.00000  Uiso   1.00
C882   C     0.29665   0.99039   0.39007   0.00000  Uiso   1.00
C883   C     0.00712   0.73821   0.43855   0.00000  Uiso   1.00
C884   C     0.21607   0.68865   0.61281   0.00000  Uiso   1.00
C885   C     0.49289   0.92743   0.54367   0.00000  Uiso   1.00
C886   C     0.25372   0.67865   0.47654   0.00000  Uiso   1.00
C887   C     0.25460   0.98876   0.52470   0.00000  Uiso   1.00
C888   C     0.16428   0.82875   0.49961   0.00000  Uiso   1.00
C889   C     0.33563   0.83650   0.50010   0.00000  Uiso   1.00
C890   C     0.41413   0.88280   0.52663   0.00000  Uiso   1.00
Cu891  Cu    0.25500   0.83913   0.56146   0.00000  Uiso   1.00
Cu892  Cu    0.24499   0.82754   0.43854   0.00000  Uiso   1.00
H893   H     0.37507   0.75973   0.45092   0.00000  Uiso   1.00
H894   H     0.16286   0.71969   0.39529   0.00000  Uiso   1.00
H895   H     0.43255   0.99723   0.41737   0.00000  Uiso   1.00
H896   H     0.42997   0.69827   0.65027   0.00000  Uiso   1.00
H897   H     0.38986   0.73741   0.35185   0.00000  Uiso   1.00
H898   H     0.37829   0.66798   0.33654   0.00000  Uiso   1.00
H899   H     0.08818   0.96406   0.61926   0.00000  Uiso   1.00
H900   H     0.10497   0.69027   0.54254   0.00000  Uiso   1.00
H901   H     0.09047   0.96158   0.48734   0.00000  Uiso   1.00
H902   H     0.13623   0.96985   0.54541   0.00000  Uiso   1.00
H903   H     0.05281   0.68626   0.45580   0.00000  Uiso   1.00
H904   H     0.12209   0.89294   0.57027   0.00000  Uiso   1.00
H905   H     0.49374   0.94422   0.40011   0.00000  Uiso   1.00
H906   H     0.03758   0.96434   0.35807   0.00000  Uiso   1.00
H907   H     0.48305   0.98520   0.34778   0.00000  Uiso   1.00
H908   H     0.45632   0.97964   0.51037   0.00000  Uiso   1.00
H909   H     0.48028   0.72473   0.58344   0.00000  Uiso   1.00
H910   H     0.02880   0.70454   0.54934   0.00000  Uiso   1.00
H911   H     0.01931   0.69339   0.62325   0.00000  Uiso   1.00
H912   H     0.22664   0.98449   0.38659   0.00000  Uiso   1.00
H913   H     0.29527   0.96337   0.34468   0.00000  Uiso   1.00
H914   H     0.32493   0.98237   0.42033   0.00000  Uiso   1.00
H915   H     0.41788   0.94213   0.60612   0.00000  Uiso   1.00
H916   H     0.30306   0.69750   0.38409   0.00000  Uiso   1.00
H917   H     0.28400   0.71320   0.60228   0.00000  Uiso   1.00
H918   H     0.22247   0.71214   0.66008   0.00000  Uiso   1.00
H919   H     0.19932   0.98315   0.61413   0.00000  Uiso   1.00
H920   H     0.19363   0.70835   0.58579   0.00000  Uiso   1.00
H921   H     0.21103   0.79649   0.65073   0.00000  Uiso   1.00
H922   H     0.28821   0.87145   0.34958   0.00000  Uiso   1.00
H923   H     0.38742   0.99588   0.54378   0.00000  Uiso   1.00
H924   H     0.33946   0.96161   0.56540   0.00000  Uiso   1.00
H925   H     0.35788   0.93917   0.49081   0.00000  Uiso   1.00
H926   H     0.07985   0.73535   0.37116   0.00000  Uiso   1.00
H927   H     0.11907   0.67423   0.40860   0.00000  Uiso   1.00
H928   H     0.14746   0.72386   0.47193   0.00000  Uiso   1.00
N929   N     0.23744   0.81881   0.34617   0.00000  Uiso   1.00
N930   N     0.25828   0.68331   0.58700   0.00000  Uiso   1.00
N931   N     0.26255   0.84786   0.65383   0.00000  Uiso   1.00
N932   N     0.39754   0.92441   0.56664   0.00000  Uiso   1.00
N933   N     0.10191   0.74967   0.41014   0.00000  Uiso   1.00
N934   N     0.42714   0.70000   0.41055   0.00000  Uiso   1.00
N935   N     0.07211   0.96463   0.57716   0.00000  Uiso   1.00
N936   N     0.02291   0.68807   0.43154   0.00000  Uiso   1.00
N937   N     0.47709   0.97760   0.54831   0.00000  Uiso   1.00
N938   N     0.25453   0.98266   0.41557   0.00000  Uiso   1.00
O939   O     0.25325   0.76204   0.53992   0.00000  Uiso   1.00
O940   O     0.24674   0.90462   0.46008   0.00000  Uiso   1.00
O941   O     0.24480   0.75226   0.43612   0.00000  Uiso   1.00
O942   O     0.25520   0.91441   0.56388   0.00000  Uiso   1.00
O943   O     0.18935   0.83821   0.55191   0.00000  Uiso   1.00
O944   O     0.31064   0.82845   0.44809   0.00000  Uiso   1.00
O945   O     0.18090   0.82843   0.44810   0.00000  Uiso   1.00
O946   O     0.31910   0.83824   0.55190   0.00000  Uiso   1.00
C947   C     0.75027   0.73375   0.48480   0.00000  Uiso   1.00
C948   C     0.58564   0.78382   0.45992   0.00000  Uiso   1.00
C949   C     0.88413   0.83828   0.49870   0.00000  Uiso   1.00
C950   C     0.61539   0.82402   0.49990   0.00000  Uiso   1.00
C951   C     0.89971   0.79340   0.46875   0.00000  Uiso   1.00
C952   C     0.59855   0.86426   0.53833   0.00000  Uiso   1.00
C953   C     0.94559   0.79040   0.46534   0.00000  Uiso   1.00
C954   C     0.55336   0.87165   0.52970   0.00000  Uiso   1.00
C955   C     0.97651   0.83419   0.49386   0.00000  Uiso   1.00
C956   C     0.52269   0.82989   0.49521   0.00000  Uiso   1.00
C957   C     0.96114   0.88199   0.52198   0.00000  Uiso   1.00
C958   C     0.75202   0.93309   0.51532   0.00000  Uiso   1.00
C959   C     0.53844   0.78343   0.46399   0.00000  Uiso   1.00
C960   C     0.96034   0.74296   0.43700   0.00000  Uiso   1.00
C961   C     0.53927   0.92108   0.55159   0.00000  Uiso   1.00
C962   C     0.86920   0.95668   0.53979   0.00000  Uiso   1.00
C963   C     0.63446   0.71533   0.42277   0.00000  Uiso   1.00
C964   C     0.90534   0.70094   0.35097   0.00000  Uiso   1.00
C965   C     0.60218   0.98070   0.53581   0.00000  Uiso   1.00
C966   C     0.50823   0.97695   0.38157   0.00000  Uiso   1.00
C967   C     0.50301   0.69373   0.57770   0.00000  Uiso   1.00
C968   C     0.79665   0.99039   0.39007   0.00000  Uiso   1.00
C969   C     0.50712   0.73821   0.43855   0.00000  Uiso   1.00
C970   C     0.71607   0.68865   0.61281   0.00000  Uiso   1.00
C971   C     0.99289   0.92743   0.54367   0.00000  Uiso   1.00
C972   C     0.75372   0.67865   0.47654   0.00000  Uiso   1.00
C973   C     0.75460   0.98876   0.52470   0.00000  Uiso   1.00
C974   C     0.66428   0.82875   0.49961   0.00000  Uiso   1.00
C975   C     0.83563   0.83650   0.50010   0.00000  Uiso   1.00
C976   C     0.91413   0.88280   0.52663   0.00000  Uiso   1.00
Cu977  Cu    0.75500   0.83913   0.56146   0.00000  Uiso   1.00
Cu978  Cu    0.74499   0.82754   0.43854   0.00000  Uiso   1.00
H979   H     0.87507   0.75973   0.45092   0.00000  Uiso   1.00
H980   H     0.66286   0.71969   0.39529   0.00000  Uiso   1.00
H981   H     0.93255   0.99723   0.41737   0.00000  Uiso   1.00
H982   H     0.92997   0.69827   0.65027   0.00000  Uiso   1.00
H983   H     0.88986   0.73741   0.35185   0.00000  Uiso   1.00
H984   H     0.87829   0.66798   0.33654   0.00000  Uiso   1.00
H985   H     0.58818   0.96406   0.61926   0.00000  Uiso   1.00
H986   H     0.60497   0.69027   0.54254   0.00000  Uiso   1.00
H987   H     0.59047   0.96158   0.48734   0.00000  Uiso   1.00
H988   H     0.63623   0.96985   0.54541   0.00000  Uiso   1.00
H989   H     0.55281   0.68626   0.45580   0.00000  Uiso   1.00
H990   H     0.62209   0.89294   0.57027   0.00000  Uiso   1.00
H991   H     0.99374   0.94422   0.40011   0.00000  Uiso   1.00
H992   H     0.53758   0.96434   0.35807   0.00000  Uiso   1.00
H993   H     0.98305   0.98520   0.34778   0.00000  Uiso   1.00
H994   H     0.95632   0.97964   0.51037   0.00000  Uiso   1.00
H995   H     0.98028   0.72473   0.58344   0.00000  Uiso   1.00
H996   H     0.52880   0.70454   0.54934   0.00000  Uiso   1.00
H997   H     0.51931   0.69339   0.62325   0.00000  Uiso   1.00
H998   H     0.72664   0.98449   0.38659   0.00000  Uiso   1.00
H999   H     0.79527   0.96337   0.34468   0.00000  Uiso   1.00
H1000  H     0.82493   0.98237   0.42033   0.00000  Uiso   1.00
H1001  H     0.91788   0.94213   0.60612   0.00000  Uiso   1.00
H1002  H     0.80306   0.69750   0.38409   0.00000  Uiso   1.00
H1003  H     0.78400   0.71320   0.60228   0.00000  Uiso   1.00
H1004  H     0.72247   0.71214   0.66008   0.00000  Uiso   1.00
H1005  H     0.69932   0.98315   0.61413   0.00000  Uiso   1.00
H1006  H     0.69363   0.70835   0.58579   0.00000  Uiso   1.00
H1007  H     0.71103   0.79649   0.65073   0.00000  Uiso   1.00
H1008  H     0.78821   0.87145   0.34958   0.00000  Uiso   1.00
H1009  H     0.88742   0.99588   0.54378   0.00000  Uiso   1.00
H1010  H     0.83946   0.96161   0.56540   0.00000  Uiso   1.00
H1011  H     0.85788   0.93917   0.49081   0.00000  Uiso   1.00
H1012  H     0.57985   0.73535   0.37116   0.00000  Uiso   1.00
H1013  H     0.61907   0.67423   0.40860   0.00000  Uiso   1.00
H1014  H     0.64746   0.72386   0.47193   0.00000  Uiso   1.00
N1015  N     0.73744   0.81881   0.34617   0.00000  Uiso   1.00
N1016  N     0.75828   0.68331   0.58700   0.00000  Uiso   1.00
N1017  N     0.76255   0.84786   0.65383   0.00000  Uiso   1.00
N1018  N     0.89754   0.92441   0.56664   0.00000  Uiso   1.00
N1019  N     0.60191   0.74967   0.41014   0.00000  Uiso   1.00
N1020  N     0.92714   0.70000   0.41055   0.00000  Uiso   1.00
N1021  N     0.57211   0.96463   0.57716   0.00000  Uiso   1.00
N1022  N     0.52291   0.68807   0.43154   0.00000  Uiso   1.00
N1023  N     0.97709   0.97760   0.54831   0.00000  Uiso   1.00
N1024  N     0.75453   0.98266   0.41557   0.00000  Uiso   1.00
O1025  O     0.75325   0.76204   0.53992   0.00000  Uiso   1.00
O1026  O     0.74674   0.90462   0.46008   0.00000  Uiso   1.00
O1027  O     0.74480   0.75226   0.43612   0.00000  Uiso   1.00
O1028  O     0.75520   0.91441   0.56388   0.00000  Uiso   1.00
O1029  O     0.68935   0.83821   0.55191   0.00000  Uiso   1.00
O1030  O     0.81064   0.82845   0.44809   0.00000  Uiso   1.00
O1031  O     0.68090   0.82843   0.44810   0.00000  Uiso   1.00
O1032  O     0.81910   0.83824   0.55190   0.00000  Uiso   1.00
C1033  C     0.25027   0.06708   0.81813   0.00000  Uiso   1.00
C1034  C     0.08564   0.11716   0.79325   0.00000  Uiso   1.00
C1035  C     0.38413   0.17161   0.83203   0.00000  Uiso   1.00
C1036  C     0.11539   0.15736   0.83324   0.00000  Uiso   1.00
C1037  C     0.39971   0.12673   0.80208   0.00000  Uiso   1.00
C1038  C     0.09855   0.19760   0.87166   0.00000  Uiso   1.00
C1039  C     0.44559   0.12373   0.79867   0.00000  Uiso   1.00
C1040  C     0.05336   0.20498   0.86303   0.00000  Uiso   1.00
C1041  C     0.47651   0.16753   0.82720   0.00000  Uiso   1.00
C1042  C     0.02269   0.16322   0.82854   0.00000  Uiso   1.00
C1043  C     0.46114   0.21532   0.85531   0.00000  Uiso   1.00
C1044  C     0.25202   0.26642   0.84866   0.00000  Uiso   1.00
C1045  C     0.03844   0.11677   0.79732   0.00000  Uiso   1.00
C1046  C     0.46034   0.07629   0.77033   0.00000  Uiso   1.00
C1047  C     0.03927   0.25441   0.88493   0.00000  Uiso   1.00
C1048  C     0.36920   0.29002   0.87313   0.00000  Uiso   1.00
C1049  C     0.13446   0.04867   0.75610   0.00000  Uiso   1.00
C1050  C     0.40534   0.03428   0.68430   0.00000  Uiso   1.00
C1051  C     0.10218   0.31403   0.86914   0.00000  Uiso   1.00
C1052  C     0.00823   0.31028   0.71490   0.00000  Uiso   1.00
C1053  C     0.00301   0.02706   0.91103   0.00000  Uiso   1.00
C1054  C     0.29665   0.32372   0.72341   0.00000  Uiso   1.00
C1055  C     0.00712   0.07154   0.77189   0.00000  Uiso   1.00
C1056  C     0.21607   0.02199   0.94614   0.00000  Uiso   1.00
C1057  C     0.49289   0.26076   0.87700   0.00000  Uiso   1.00
C1058  C     0.25372   0.01199   0.80988   0.00000  Uiso   1.00
C1059  C     0.25460   0.32209   0.85803   0.00000  Uiso   1.00
C1060  C     0.16428   0.16208   0.83294   0.00000  Uiso   1.00
C1061  C     0.33563   0.16983   0.83344   0.00000  Uiso   1.00
C1062  C     0.41413   0.21613   0.85997   0.00000  Uiso   1.00
Cu1063 Cu    0.25500   0.17246   0.89479   0.00000  Uiso   1.00
Cu1064 Cu    0.24499   0.16087   0.77187   0.00000  Uiso   1.00
H1065  H     0.37507   0.09306   0.78425   0.00000  Uiso   1.00
H1066  H     0.16286   0.05302   0.72862   0.00000  Uiso   1.00
H1067  H     0.43255   0.33057   0.75070   0.00000  Uiso   1.00
H1068  H     0.42997   0.03160   0.98361   0.00000  Uiso   1.00
H1069  H     0.38986   0.07075   0.68518   0.00000  Uiso   1.00
H1070  H     0.37829   0.00132   0.66987   0.00000  Uiso   1.00
H1071  H     0.08818   0.29740   0.95259   0.00000  Uiso   1.00
H1072  H     0.10497   0.02360   0.87587   0.00000  Uiso   1.00
H1073  H     0.09047   0.29491   0.82067   0.00000  Uiso   1.00
H1074  H     0.13623   0.30318   0.87874   0.00000  Uiso   1.00
H1075  H     0.05281   0.01959   0.78914   0.00000  Uiso   1.00
H1076  H     0.12209   0.22627   0.90360   0.00000  Uiso   1.00
H1077  H     0.49374   0.27756   0.73344   0.00000  Uiso   1.00
H1078  H     0.03758   0.29767   0.69141   0.00000  Uiso   1.00
H1079  H     0.48305   0.31853   0.68112   0.00000  Uiso   1.00
H1080  H     0.45632   0.31297   0.84371   0.00000  Uiso   1.00
H1081  H     0.48028   0.05806   0.91678   0.00000  Uiso   1.00
H1082  H     0.02880   0.03788   0.88267   0.00000  Uiso   1.00
H1083  H     0.01931   0.02672   0.95658   0.00000  Uiso   1.00
H1084  H     0.22664   0.31782   0.71993   0.00000  Uiso   1.00
H1085  H     0.29527   0.29670   0.67802   0.00000  Uiso   1.00
H1086  H     0.32493   0.31570   0.75367   0.00000  Uiso   1.00
H1087  H     0.41788   0.27546   0.93946   0.00000  Uiso   1.00
H1088  H     0.30306   0.03083   0.71743   0.00000  Uiso   1.00
H1089  H     0.28400   0.04653   0.93561   0.00000  Uiso   1.00
H1090  H     0.22247   0.04547   0.99342   0.00000  Uiso   1.00
H1091  H     0.19932   0.31649   0.94747   0.00000  Uiso   1.00
H1092  H     0.19363   0.04168   0.91913   0.00000  Uiso   1.00
H1093  H     0.21103   0.12982   0.98406   0.00000  Uiso   1.00
H1094  H     0.28821   0.20478   0.68292   0.00000  Uiso   1.00
H1095  H     0.38742   0.32921   0.87711   0.00000  Uiso   1.00
H1096  H     0.33946   0.29494   0.89873   0.00000  Uiso   1.00
H1097  H     0.35788   0.27250   0.82414   0.00000  Uiso   1.00
H1098  H     0.07985   0.06868   0.70450   0.00000  Uiso   1.00
H1099  H     0.11907   0.00756   0.74193   0.00000  Uiso   1.00
H1100  H     0.14746   0.05720   0.80526   0.00000  Uiso   1.00
N1101  N     0.23744   0.15214   0.67951   0.00000  Uiso   1.00
N1102  N     0.25828   0.01664   0.92034   0.00000  Uiso   1.00
N1103  N     0.26255   0.18119   0.98716   0.00000  Uiso   1.00
N1104  N     0.39754   0.25775   0.89998   0.00000  Uiso   1.00
N1105  N     0.10191   0.08300   0.74347   0.00000  Uiso   1.00
N1106  N     0.42714   0.03333   0.74388   0.00000  Uiso   1.00
N1107  N     0.07211   0.29796   0.91050   0.00000  Uiso   1.00
N1108  N     0.02291   0.02140   0.76488   0.00000  Uiso   1.00
N1109  N     0.47709   0.31093   0.88164   0.00000  Uiso   1.00
N1110  N     0.25453   0.31600   0.74891   0.00000  Uiso   1.00
O1111  O     0.25325   0.09538   0.87326   0.00000  Uiso   1.00
O1112  O     0.24674   0.23796   0.79341   0.00000  Uiso   1.00
O1113  O     0.24480   0.08559   0.76945   0.00000  Uiso   1.00
O1114  O     0.25520   0.24774   0.89721   0.00000  Uiso   1.00
O1115  O     0.18935   0.17155   0.88524   0.00000  Uiso   1.00
O1116  O     0.31064   0.16179   0.78143   0.00000  Uiso   1.00
O1117  O     0.18090   0.16176   0.78143   0.00000  Uiso   1.00
O1118  O     0.31910   0.17157   0.88523   0.00000  Uiso   1.00
C1119  C     0.75027   0.06708   0.81813   0.00000  Uiso   1.00
C1120  C     0.58564   0.11716   0.79325   0.00000  Uiso   1.00
C1121  C     0.88413   0.17161   0.83203   0.00000  Uiso   1.00
C1122  C     0.61539   0.15736   0.83324   0.00000  Uiso   1.00
C1123  C     0.89971   0.12673   0.80208   0.00000  Uiso   1.00
C1124  C     0.59855   0.19760   0.87166   0.00000  Uiso   1.00
C1125  C     0.94559   0.12373   0.79867   0.00000  Uiso   1.00
C1126  C     0.55336   0.20498   0.86303   0.00000  Uiso   1.00
C1127  C     0.97651   0.16753   0.82720   0.00000  Uiso   1.00
C1128  C     0.52269   0.16322   0.82854   0.00000  Uiso   1.00
C1129  C     0.96114   0.21532   0.85531   0.00000  Uiso   1.00
C1130  C     0.75202   0.26642   0.84866   0.00000  Uiso   1.00
C1131  C     0.53844   0.11677   0.79732   0.00000  Uiso   1.00
C1132  C     0.96034   0.07629   0.77033   0.00000  Uiso   1.00
C1133  C     0.53927   0.25441   0.88493   0.00000  Uiso   1.00
C1134  C     0.86920   0.29002   0.87313   0.00000  Uiso   1.00
C1135  C     0.63446   0.04867   0.75610   0.00000  Uiso   1.00
C1136  C     0.90534   0.03428   0.68430   0.00000  Uiso   1.00
C1137  C     0.60218   0.31403   0.86914   0.00000  Uiso   1.00
C1138  C     0.50823   0.31028   0.71490   0.00000  Uiso   1.00
C1139  C     0.50301   0.02706   0.91103   0.00000  Uiso   1.00
C1140  C     0.79665   0.32372   0.72341   0.00000  Uiso   1.00
C1141  C     0.50712   0.07154   0.77189   0.00000  Uiso   1.00
C1142  C     0.71607   0.02199   0.94614   0.00000  Uiso   1.00
C1143  C     0.99289   0.26076   0.87700   0.00000  Uiso   1.00
C1144  C     0.75372   0.01199   0.80988   0.00000  Uiso   1.00
C1145  C     0.75460   0.32209   0.85803   0.00000  Uiso   1.00
C1146  C     0.66428   0.16208   0.83294   0.00000  Uiso   1.00
C1147  C     0.83563   0.16983   0.83344   0.00000  Uiso   1.00
C1148  C     0.91413   0.21613   0.85997   0.00000  Uiso   1.00
Cu1149 Cu    0.75500   0.17246   0.89479   0.00000  Uiso   1.00
Cu1150 Cu    0.74499   0.16087   0.77187   0.00000  Uiso   1.00
H1151  H     0.87507   0.09306   0.78425   0.00000  Uiso   1.00
H1152  H     0.66286   0.05302   0.72862   0.00000  Uiso   1.00
H1153  H     0.93255   0.33057   0.75070   0.00000  Uiso   1.00
H1154  H     0.92997   0.03160   0.98361   0.00000  Uiso   1.00
H1155  H     0.88986   0.07075   0.68518   0.00000  Uiso   1.00
H1156  H     0.87829   0.00132   0.66987   0.00000  Uiso   1.00
H1157  H     0.58818   0.29740   0.95259   0.00000  Uiso   1.00
H1158  H     0.60497   0.02360   0.87587   0.00000  Uiso   1.00
H1159  H     0.59047   0.29491   0.82067   0.00000  Uiso   1.00
H1160  H     0.63623   0.30318   0.87874   0.00000  Uiso   1.00
H1161  H     0.55281   0.01959   0.78914   0.00000  Uiso   1.00
H1162  H     0.62209   0.22627   0.90360   0.00000  Uiso   1.00
H1163  H     0.99374   0.27756   0.73344   0.00000  Uiso   1.00
H1164  H     0.53758   0.29767   0.69141   0.00000  Uiso   1.00
H1165  H     0.98305   0.31853   0.68112   0.00000  Uiso   1.00
H1166  H     0.95632   0.31297   0.84371   0.00000  Uiso   1.00
H1167  H     0.98028   0.05806   0.91678   0.00000  Uiso   1.00
H1168  H     0.52880   0.03788   0.88267   0.00000  Uiso   1.00
H1169  H     0.51931   0.02672   0.95658   0.00000  Uiso   1.00
H1170  H     0.72664   0.31782   0.71993   0.00000  Uiso   1.00
H1171  H     0.79527   0.29670   0.67802   0.00000  Uiso   1.00
H1172  H     0.82493   0.31570   0.75367   0.00000  Uiso   1.00
H1173  H     0.91788   0.27546   0.93946   0.00000  Uiso   1.00
H1174  H     0.80306   0.03083   0.71743   0.00000  Uiso   1.00
H1175  H     0.78400   0.04653   0.93561   0.00000  Uiso   1.00
H1176  H     0.72247   0.04547   0.99342   0.00000  Uiso   1.00
H1177  H     0.69932   0.31649   0.94747   0.00000  Uiso   1.00
H1178  H     0.69363   0.04168   0.91913   0.00000  Uiso   1.00
H1179  H     0.71103   0.12982   0.98406   0.00000  Uiso   1.00
H1180  H     0.78821   0.20478   0.68292   0.00000  Uiso   1.00
H1181  H     0.88742   0.32921   0.87711   0.00000  Uiso   1.00
H1182  H     0.83946   0.29494   0.89873   0.00000  Uiso   1.00
H1183  H     0.85788   0.27250   0.82414   0.00000  Uiso   1.00
H1184  H     0.57985   0.06868   0.70450   0.00000  Uiso   1.00
H1185  H     0.61907   0.00756   0.74193   0.00000  Uiso   1.00
H1186  H     0.64746   0.05720   0.80526   0.00000  Uiso   1.00
N1187  N     0.73744   0.15214   0.67951   0.00000  Uiso   1.00
N1188  N     0.75828   0.01664   0.92034   0.00000  Uiso   1.00
N1189  N     0.76255   0.18119   0.98716   0.00000  Uiso   1.00
N1190  N     0.89754   0.25775   0.89998   0.00000  Uiso   1.00
N1191  N     0.60191   0.08300   0.74347   0.00000  Uiso   1.00
N1192  N     0.92714   0.03333   0.74388   0.00000  Uiso   1.00
N1193  N     0.57211   0.29796   0.91050   0.00000  Uiso   1.00
N1194  N     0.52291   0.02140   0.76488   0.00000  Uiso   1.00
N1195  N     0.97709   0.31093   0.88164   0.00000  Uiso   1.00
N1196  N     0.75453   0.31600   0.74891   0.00000  Uiso   1.00
O1197  O     0.75325   0.09538   0.87326   0.00000  Uiso   1.00
O1198  O     0.74674   0.23796   0.79341   0.00000  Uiso   1.00
O1199  O     0.74480   0.08559   0.76945   0.00000  Uiso   1.00
O1200  O     0.75520   0.24774   0.89721   0.00000  Uiso   1.00
O1201  O     0.68935   0.17155   0.88524   0.00000  Uiso   1.00
O1202  O     0.81064   0.16179   0.78143   0.00000  Uiso   1.00
O1203  O     0.68090   0.16176   0.78143   0.00000  Uiso   1.00
O1204  O     0.81910   0.17157   0.88523   0.00000  Uiso   1.00
C1205  C     0.25027   0.40041   0.81813   0.00000  Uiso   1.00
C1206  C     0.08564   0.45049   0.79325   0.00000  Uiso   1.00
C1207  C     0.38413   0.50495   0.83203   0.00000  Uiso   1.00
C1208  C     0.11539   0.49069   0.83324   0.00000  Uiso   1.00
C1209  C     0.39971   0.46006   0.80208   0.00000  Uiso   1.00
C1210  C     0.09855   0.53093   0.87166   0.00000  Uiso   1.00
C1211  C     0.44559   0.45707   0.79867   0.00000  Uiso   1.00
C1212  C     0.05336   0.53831   0.86303   0.00000  Uiso   1.00
C1213  C     0.47651   0.50086   0.82720   0.00000  Uiso   1.00
C1214  C     0.02269   0.49656   0.82854   0.00000  Uiso   1.00
C1215  C     0.46114   0.54866   0.85531   0.00000  Uiso   1.00
C1216  C     0.25202   0.59975   0.84866   0.00000  Uiso   1.00
C1217  C     0.03844   0.45010   0.79732   0.00000  Uiso   1.00
C1218  C     0.46034   0.40963   0.77033   0.00000  Uiso   1.00
C1219  C     0.03927   0.58775   0.88493   0.00000  Uiso   1.00
C1220  C     0.36920   0.62335   0.87313   0.00000  Uiso   1.00
C1221  C     0.13446   0.38200   0.75610   0.00000  Uiso   1.00
C1222  C     0.40534   0.36761   0.68430   0.00000  Uiso   1.00
C1223  C     0.10218   0.64737   0.86914   0.00000  Uiso   1.00
C1224  C     0.00823   0.64361   0.71490   0.00000  Uiso   1.00
C1225  C     0.00301   0.36040   0.91103   0.00000  Uiso   1.00
C1226  C     0.29665   0.65706   0.72341   0.00000  Uiso   1.00
C1227  C     0.00712   0.40487   0.77189   0.00000  Uiso   1.00
C1228  C     0.21607   0.35532   0.94614   0.00000  Uiso   1.00
C1229  C     0.49289   0.59410   0.87700   0.00000  Uiso   1.00
C1230  C     0.25372   0.34532   0.80988   0.00000  Uiso   1.00
C1231  C     0.25460   0.65543   0.85803   0.00000  Uiso   1.00
C1232  C     0.16428   0.49541   0.83294   0.00000  Uiso   1.00
C1233  C     0.33563   0.50317   0.83344   0.00000  Uiso   1.00
C1234  C     0.41413   0.54946   0.85997   0.00000  Uiso   1.00
Cu1235 Cu    0.25500   0.50579   0.89479   0.00000  Uiso   1.00
Cu1236 Cu    0.24499   0.49421   0.77187   0.00000  Uiso   1.00
H1237  H     0.37507   0.42639   0.78425   0.00000  Uiso   1.00
H1238  H     0.16286   0.38635   0.72862   0.00000  Uiso   1.00
H1239  H     0.43255   0.66390   0.75070   0.00000  Uiso   1.00
H1240  H     0.42997   0.36494   0.98361   0.00000  Uiso   1.00
H1241  H     0.38986   0.40408   0.68518   0.00000  Uiso   1.00
H1242  H     0.37829   0.33465   0.66987   0.00000  Uiso   1.00
H1243  H     0.08818   0.63073   0.95259   0.00000  Uiso   1.00
H1244  H     0.10497   0.35693   0.87587   0.00000  Uiso   1.00
H1245  H     0.09047   0.62824   0.82067   0.00000  Uiso   1.00
H1246  H     0.13623   0.63652   0.87874   0.00000  Uiso   1.00
H1247  H     0.05281   0.35293   0.78914   0.00000  Uiso   1.00
H1248  H     0.12209   0.55961   0.90360   0.00000  Uiso   1.00
H1249  H     0.49374   0.61089   0.73344   0.00000  Uiso   1.00
H1250  H     0.03758   0.63101   0.69141   0.00000  Uiso   1.00
H1251  H     0.48305   0.65187   0.68112   0.00000  Uiso   1.00
H1252  H     0.45632   0.64630   0.84371   0.00000  Uiso   1.00
H1253  H     0.48028   0.39140   0.91678   0.00000  Uiso   1.00
H1254  H     0.02880   0.37121   0.88267   0.00000  Uiso   1.00
H1255  H     0.01931   0.36006   0.95658   0.00000  Uiso   1.00
H1256  H     0.22664   0.65116   0.71993   0.00000  Uiso   1.00
H1257  H     0.29527   0.63003   0.67802   0.00000  Uiso   1.00
H1258  H     0.32493   0.64904   0.75367   0.00000  Uiso   1.00
H1259  H     0.41788   0.60879   0.93946   0.00000  Uiso   1.00
H1260  H     0.30306   0.36416   0.71743   0.00000  Uiso   1.00
H1261  H     0.28400   0.37987   0.93561   0.00000  Uiso   1.00
H1262  H     0.22247   0.37881   0.99342   0.00000  Uiso   1.00
H1263  H     0.19932   0.64982   0.94747   0.00000  Uiso   1.00
H1264  H     0.19363   0.37502   0.91913   0.00000  Uiso   1.00
H1265  H     0.21103   0.46315   0.98406   0.00000  Uiso   1.00
H1266  H     0.28821   0.53811   0.68292   0.00000  Uiso   1.00
H1267  H     0.38742   0.66255   0.87711   0.00000  Uiso   1.00
H1268  H     0.33946   0.62827   0.89873   0.00000  Uiso   1.00
H1269  H     0.35788   0.60584   0.82414   0.00000  Uiso   1.00
H1270  H     0.07985   0.40202   0.70450   0.00000  Uiso   1.00
H1271  H     0.11907   0.34090   0.74193   0.00000  Uiso   1.00
H1272  H     0.14746   0.39053   0.80526   0.00000  Uiso   1.00
N1273  N     0.23744   0.48547   0.67951   0.00000  Uiso   1.00
N1274  N     0.25828   0.34997   0.92034   0.00000  Uiso   1.00
N1275  N     0.26255   0.51453   0.98716   0.00000  Uiso   1.00
N1276  N     0.39754   0.59108   0.89998   0.00000  Uiso   1.00
N1277  N     0.10191   0.41634   0.74347   0.00000  Uiso   1.00
N1278  N     0.42714   0.36666   0.74388   0.00000  Uiso   1.00
N1279  N     0.07211   0.63130   0.91050   0.00000  Uiso   1.00
N1280  N     0.02291   0.35474   0.76488   0.00000  Uiso   1.00
N1281  N     0.47709   0.64427   0.88164   0.00000  Uiso   1.00
N1282  N     0.25453   0.64933   0.74891   0.00000  Uiso   1.00
O1283  O     0.25325   0.42871   0.87326   0.00000  Uiso   1.00
O1284  O     0.24674   0.57129   0.79341   0.00000  Uiso   1.00
O1285  O     0.24480   0.41892   0.76945   0.00000  Uiso   1.00
O1286  O     0.25520   0.58108   0.89721   0.00000  Uiso   1.00
O1287  O     0.18935   0.50488   0.88524   0.00000  Uiso   1.00
O1288  O     0.31064   0.49512   0.78143   0.00000  Uiso   1.00
O1289  O     0.18090   0.49510   0.78143   0.00000  Uiso   1.00
O1290  O     0.31910   0.50490   0.88523   0.00000  Uiso   1.00
C1291  C     0.75027   0.40041   0.81813   0.00000  Uiso   1.00
C1292  C     0.58564   0.45049   0.79325   0.00000  Uiso   1.00
C1293  C     0.88413   0.50495   0.83203   0.00000  Uiso   1.00
C1294  C     0.61539   0.49069   0.83324   0.00000  Uiso   1.00
C1295  C     0.89971   0.46006   0.80208   0.00000  Uiso   1.00
C1296  C     0.59855   0.53093   0.87166   0.00000  Uiso   1.00
C1297  C     0.94559   0.45707   0.79867   0.00000  Uiso   1.00
C1298  C     0.55336   0.53831   0.86303   0.00000  Uiso   1.00
C1299  C     0.97651   0.50086   0.82720   0.00000  Uiso   1.00
C1300  C     0.52269   0.49656   0.82854   0.00000  Uiso   1.00
C1301  C     0.96114   0.54866   0.85531   0.00000  Uiso   1.00
C1302  C     0.75202   0.59975   0.84866   0.00000  Uiso   1.00
C1303  C     0.53844   0.45010   0.79732   0.00000  Uiso   1.00
C1304  C     0.96034   0.40963   0.77033   0.00000  Uiso   1.00
C1305  C     0.53927   0.58775   0.88493   0.00000  Uiso   1.00
C1306  C     0.86920   0.62335   0.87313   0.00000  Uiso   1.00
C1307  C     0.63446   0.38200   0.75610   0.00000  Uiso   1.00
C1308  C     0.90534   0.36761   0.68430   0.00000  Uiso   1.00
C1309  C     0.60218   0.64737   0.86914   0.00000  Uiso   1.00
C1310  C     0.50823   0.64361   0.71490   0.00000  Uiso   1.00
C1311  C     0.50301   0.36040   0.91103   0.00000  Uiso   1.00
C1312  C     0.79665   0.65706   0.72341   0.00000  Uiso   1.00
C1313  C     0.50712   0.40487   0.77189   0.00000  Uiso   1.00
C1314  C     0.71607   0.35532   0.94614   0.00000  Uiso   1.00
C1315  C     0.99289   0.59410   0.87700   0.00000  Uiso   1.00
C1316  C     0.75372   0.34532   0.80988   0.00000  Uiso   1.00
C1317  C     0.75460   0.65543   0.85803   0.00000  Uiso   1.00
C1318  C     0.66428   0.49541   0.83294   0.00000  Uiso   1.00
C1319  C     0.83563   0.50317   0.83344   0.00000  Uiso   1.00
C1320  C     0.91413   0.54946   0.85997   0.00000  Uiso   1.00
Cu1321 Cu    0.75500   0.50579   0.89479   0.00000  Uiso   1.00
Cu1322 Cu    0.74499   0.49421   0.77187   0.00000  Uiso   1.00
H1323  H     0.87507   0.42639   0.78425   0.00000  Uiso   1.00
H1324  H     0.66286   0.38635   0.72862   0.00000  Uiso   1.00
H1325  H     0.93255   0.66390   0.75070   0.00000  Uiso   1.00
H1326  H     0.92997   0.36494   0.98361   0.00000  Uiso   1.00
H1327  H     0.88986   0.40408   0.68518   0.00000  Uiso   1.00
H1328  H     0.87829   0.33465   0.66987   0.00000  Uiso   1.00
H1329  H     0.58818   0.63073   0.95259   0.00000  Uiso   1.00
H1330  H     0.60497   0.35693   0.87587   0.00000  Uiso   1.00
H1331  H     0.59047   0.62824   0.82067   0.00000  Uiso   1.00
H1332  H     0.63623   0.63652   0.87874   0.00000  Uiso   1.00
H1333  H     0.55281   0.35293   0.78914   0.00000  Uiso   1.00
H1334  H     0.62209   0.55961   0.90360   0.00000  Uiso   1.00
H1335  H     0.99374   0.61089   0.73344   0.00000  Uiso   1.00
H1336  H     0.53758   0.63101   0.69141   0.00000  Uiso   1.00
H1337  H     0.98305   0.65187   0.68112   0.00000  Uiso   1.00
H1338  H     0.95632   0.64630   0.84371   0.00000  Uiso   1.00
H1339  H     0.98028   0.39140   0.91678   0.00000  Uiso   1.00
H1340  H     0.52880   0.37121   0.88267   0.00000  Uiso   1.00
H1341  H     0.51931   0.36006   0.95658   0.00000  Uiso   1.00
H1342  H     0.72664   0.65116   0.71993   0.00000  Uiso   1.00
H1343  H     0.79527   0.63003   0.67802   0.00000  Uiso   1.00
H1344  H     0.82493   0.64904   0.75367   0.00000  Uiso   1.00
H1345  H     0.91788   0.60879   0.93946   0.00000  Uiso   1.00
H1346  H     0.80306   0.36416   0.71743   0.00000  Uiso   1.00
H1347  H     0.78400   0.37987   0.93561   0.00000  Uiso   1.00
H1348  H     0.72247   0.37881   0.99342   0.00000  Uiso   1.00
H1349  H     0.69932   0.64982   0.94747   0.00000  Uiso   1.00
H1350  H     0.69363   0.37502   0.91913   0.00000  Uiso   1.00
H1351  H     0.71103   0.46315   0.98406   0.00000  Uiso   1.00
H1352  H     0.78821   0.53811   0.68292   0.00000  Uiso   1.00
H1353  H     0.88742   0.66255   0.87711   0.00000  Uiso   1.00
H1354  H     0.83946   0.62827   0.89873   0.00000  Uiso   1.00
H1355  H     0.85788   0.60584   0.82414   0.00000  Uiso   1.00
H1356  H     0.57985   0.40202   0.70450   0.00000  Uiso   1.00
H1357  H     0.61907   0.34090   0.74193   0.00000  Uiso   1.00
H1358  H     0.64746   0.39053   0.80526   0.00000  Uiso   1.00
N1359  N     0.73744   0.48547   0.67951   0.00000  Uiso   1.00
N1360  N     0.75828   0.34997   0.92034   0.00000  Uiso   1.00
N1361  N     0.76255   0.51453   0.98716   0.00000  Uiso   1.00
N1362  N     0.89754   0.59108   0.89998   0.00000  Uiso   1.00
N1363  N     0.60191   0.41634   0.74347   0.00000  Uiso   1.00
N1364  N     0.92714   0.36666   0.74388   0.00000  Uiso   1.00
N1365  N     0.57211   0.63130   0.91050   0.00000  Uiso   1.00
N1366  N     0.52291   0.35474   0.76488   0.00000  Uiso   1.00
N1367  N     0.97709   0.64427   0.88164   0.00000  Uiso   1.00
N1368  N     0.75453   0.64933   0.74891   0.00000  Uiso   1.00
O1369  O     0.75325   0.42871   0.87326   0.00000  Uiso   1.00
O1370  O     0.74674   0.57129   0.79341   0.00000  Uiso   1.00
O1371  O     0.74480   0.41892   0.76945   0.00000  Uiso   1.00
O1372  O     0.75520   0.58108   0.89721   0.00000  Uiso   1.00
O1373  O     0.68935   0.50488   0.88524   0.00000  Uiso   1.00
O1374  O     0.81064   0.49512   0.78143   0.00000  Uiso   1.00
O1375  O     0.68090   0.49510   0.78143   0.00000  Uiso   1.00
O1376  O     0.81910   0.50490   0.88523   0.00000  Uiso   1.00
C1377  C     0.25027   0.73375   0.81813   0.00000  Uiso   1.00
C1378  C     0.08564   0.78382   0.79325   0.00000  Uiso   1.00
C1379  C     0.38413   0.83828   0.83203   0.00000  Uiso   1.00
C1380  C     0.11539   0.82402   0.83324   0.00000  Uiso   1.00
C1381  C     0.39971   0.79340   0.80208   0.00000  Uiso   1.00
C1382  C     0.09855   0.86426   0.87166   0.00000  Uiso   1.00
C1383  C     0.44559   0.79040   0.79867   0.00000  Uiso   1.00
C1384  C     0.05336   0.87165   0.86303   0.00000  Uiso   1.00
C1385  C     0.47651   0.83419   0.82720   0.00000  Uiso   1.00
C1386  C     0.02269   0.82989   0.82854   0.00000  Uiso   1.00
C1387  C     0.46114   0.88199   0.85531   0.00000  Uiso   1.00
C1388  C     0.25202   0.93309   0.84866   0.00000  Uiso   1.00
C1389  C     0.03844   0.78343   0.79732   0.00000  Uiso   1.00
C1390  C     0.46034   0.74296   0.77033   0.00000  Uiso   1.00
C1391  C     0.03927   0.92108   0.88493   0.00000  Uiso   1.00
C1392  C     0.36920   0.95668   0.87313   0.00000  Uiso   1.00
C1393  C     0.13446   0.71533   0.75610   0.00000  Uiso   1.00
C1394  C     0.40534   0.70094   0.68430   0.00000  Uiso   1.00
C1395  C     0.10218   0.98070   0.86914   0.00000  Uiso   1.00
C1396  C     0.00823   0.97695   0.71490   0.00000  Uiso   1.00
C1397  C     0.00301   0.69373   0.91103   0.00000  Uiso   1.00
C1398  C     0.29665   0.99039   0.72341   0.00000  Uiso   1.00
C1399  C     0.00712   0.73821   0.77189   0.00000  Uiso   1.00
C1400  C     0.21607   0.68865   0.94614   0.00000  Uiso   1.00
C1401  C     0.49289   0.92743   0.87700   0.00000  Uiso   1.00
C1402  C     0.25372   0.67865   0.80988   0.00000  Uiso   1.00
C1403  C     0.25460   0.98876   0.85803   0.00000  Uiso   1.00
C1404  C     0.16428   0.82875   0.83294   0.00000  Uiso   1.00
C1405  C     0.33563   0.83650   0.83344   0.00000  Uiso   1.00
C1406  C     0.41413   0.88280   0.85997   0.00000  Uiso   1.00
Cu1407 Cu    0.25500   0.83913   0.89479   0.00000  Uiso   1.00
Cu1408 Cu    0.24499   0.82754   0.77187   0.00000  Uiso   1.00
H1409  H     0.37507   0.75973   0.78425   0.00000  Uiso   1.00
H1410  H     0.16286   0.71969   0.72862   0.00000  Uiso   1.00
H1411  H     0.43255   0.99723   0.75070   0.00000  Uiso   1.00
H1412  H     0.42997   0.69827   0.98361   0.00000  Uiso   1.00
H1413  H     0.38986   0.73741   0.68518   0.00000  Uiso   1.00
H1414  H     0.37829   0.66798   0.66987   0.00000  Uiso   1.00
H1415  H     0.08818   0.96406   0.95259   0.00000  Uiso   1.00
H1416  H     0.10497   0.69027   0.87587   0.00000  Uiso   1.00
H1417  H     0.09047   0.96158   0.82067   0.00000  Uiso   1.00
H1418  H     0.13623   0.96985   0.87874   0.00000  Uiso   1.00
H1419  H     0.05281   0.68626   0.78914   0.00000  Uiso   1.00
H1420  H     0.12209   0.89294   0.90360   0.00000  Uiso   1.00
H1421  H     0.49374   0.94422   0.73344   0.00000  Uiso   1.00
H1422  H     0.03758   0.96434   0.69141   0.00000  Uiso   1.00
H1423  H     0.48305   0.98520   0.68112   0.00000  Uiso   1.00
H1424  H     0.45632   0.97964   0.84371   0.00000  Uiso   1.00
H1425  H     0.48028   0.72473   0.91678   0.00000  Uiso   1.00
H1426  H     0.02880   0.70454   0.88267   0.00000  Uiso   1.00
H1427  H     0.01931   0.69339   0.95658   0.00000  Uiso   1.00
H1428  H     0.22664   0.98449   0.71993   0.00000  Uiso   1.00
H1429  H     0.29527   0.96337   0.67802   0.00000  Uiso   1.00
H1430  H     0.32493   0.98237   0.75367   0.00000  Uiso   1.00
H1431  H     0.41788   0.94213   0.93946   0.00000  Uiso   1.00
H1432  H     0.30306   0.69750   0.71743   0.00000  Uiso   1.00
H1433  H     0.28400   0.71320   0.93561   0.00000  Uiso   1.00
H1434  H     0.22247   0.71214   0.99342   0.00000  Uiso   1.00
H1435  H     0.19932   0.98315   0.94747   0.00000  Uiso   1.00
H1436  H     0.19363   0.70835   0.91913   0.00000  Uiso   1.00
H1437  H     0.21103   0.79649   0.98406   0.00000  Uiso   1.00
H1438  H     0.28821   0.87145   0.68292   0.00000  Uiso   1.00
H1439  H     0.38742   0.99588   0.87711   0.00000  Uiso   1.00
H1440  H     0.33946   0.96161   0.89873   0.00000  Uiso   1.00
H1441  H     0.35788   0.93917   0.82414   0.00000  Uiso   1.00
H1442  H     0.07985   0.73535   0.70450   0.00000  Uiso   1.00
H1443  H     0.11907   0.67423   0.74193   0.00000  Uiso   1.00
H1444  H     0.14746   0.72386   0.80526   0.00000  Uiso   1.00
N1445  N     0.23744   0.81881   0.67951   0.00000  Uiso   1.00
N1446  N     0.25828   0.68331   0.92034   0.00000  Uiso   1.00
N1447  N     0.26255   0.84786   0.98716   0.00000  Uiso   1.00
N1448  N     0.39754   0.92441   0.89998   0.00000  Uiso   1.00
N1449  N     0.10191   0.74967   0.74347   0.00000  Uiso   1.00
N1450  N     0.42714   0.70000   0.74388   0.00000  Uiso   1.00
N1451  N     0.07211   0.96463   0.91050   0.00000  Uiso   1.00
N1452  N     0.02291   0.68807   0.76488   0.00000  Uiso   1.00
N1453  N     0.47709   0.97760   0.88164   0.00000  Uiso   1.00
N1454  N     0.25453   0.98266   0.74891   0.00000  Uiso   1.00
O1455  O     0.25325   0.76204   0.87326   0.00000  Uiso   1.00
O1456  O     0.24674   0.90462   0.79341   0.00000  Uiso   1.00
O1457  O     0.24480   0.75226   0.76945   0.00000  Uiso   1.00
O1458  O     0.25520   0.91441   0.89721   0.00000  Uiso   1.00
O1459  O     0.18935   0.83821   0.88524   0.00000  Uiso   1.00
O1460  O     0.31064   0.82845   0.78143   0.00000  Uiso   1.00
O1461  O     0.18090   0.82843   0.78143   0.00000  Uiso   1.00
O1462  O     0.31910   0.83824   0.88523   0.00000  Uiso   1.00
C1463  C     0.75027   0.73375   0.81813   0.00000  Uiso   1.00
C1464  C     0.58564   0.78382   0.79325   0.00000  Uiso   1.00
C1465  C     0.88413   0.83828   0.83203   0.00000  Uiso   1.00
C1466  C     0.61539   0.82402   0.83324   0.00000  Uiso   1.00
C1467  C     0.89971   0.79340   0.80208   0.00000  Uiso   1.00
C1468  C     0.59855   0.86426   0.87166   0.00000  Uiso   1.00
C1469  C     0.94559   0.79040   0.79867   0.00000  Uiso   1.00
C1470  C     0.55336   0.87165   0.86303   0.00000  Uiso   1.00
C1471  C     0.97651   0.83419   0.82720   0.00000  Uiso   1.00
C1472  C     0.52269   0.82989   0.82854   0.00000  Uiso   1.00
C1473  C     0.96114   0.88199   0.85531   0.00000  Uiso   1.00
C1474  C     0.75202   0.93309   0.84866   0.00000  Uiso   1.00
C1475  C     0.53844   0.78343   0.79732   0.00000  Uiso   1.00
C1476  C     0.96034   0.74296   0.77033   0.00000  Uiso   1.00
C1477  C     0.53927   0.92108   0.88493   0.00000  Uiso   1.00
C1478  C     0.86920   0.95668   0.87313   0.00000  Uiso   1.00
C1479  C     0.63446   0.71533   0.75610   0.00000  Uiso   1.00
C1480  C     0.90534   0.70094   0.68430   0.00000  Uiso   1.00
C1481  C     0.60218   0.98070   0.86914   0.00000  Uiso   1.00
C1482  C     0.50823   0.97695   0.71490   0.00000  Uiso   1.00
C1483  C     0.50301   0.69373   0.91103   0.00000  Uiso   1.00
C1484  C     0.79665   0.99039   0.72341   0.00000  Uiso   1.00
C1485  C     0.50712   0.73821   0.77189   0.00000  Uiso   1.00
C1486  C     0.71607   0.68865   0.94614   0.00000  Uiso   1.00
C1487  C     0.99289   0.92743   0.87700   0.00000  Uiso   1.00
C1488  C     0.75372   0.67865   0.80988   0.00000  Uiso   1.00
C1489  C     0.75460   0.98876   0.85803   0.00000  Uiso   1.00
C1490  C     0.66428   0.82875   0.83294   0.00000  Uiso   1.00
C1491  C     0.83563   0.83650   0.83344   0.00000  Uiso   1.00
C1492  C     0.91413   0.88280   0.85997   0.00000  Uiso   1.00
Cu1493 Cu    0.75500   0.83913   0.89479   0.00000  Uiso   1.00
Cu1494 Cu    0.74499   0.82754   0.77187   0.00000  Uiso   1.00
H1495  H     0.87507   0.75973   0.78425   0.00000  Uiso   1.00
H1496  H     0.66286   0.71969   0.72862   0.00000  Uiso   1.00
H1497  H     0.93255   0.99723   0.75070   0.00000  Uiso   1.00
H1498  H     0.92997   0.69827   0.98361   0.00000  Uiso   1.00
H1499  H     0.88986   0.73741   0.68518   0.00000  Uiso   1.00
H1500  H     0.87829   0.66798   0.66987   0.00000  Uiso   1.00
H1501  H     0.58818   0.96406   0.95259   0.00000  Uiso   1.00
H1502  H     0.60497   0.69027   0.87587   0.00000  Uiso   1.00
H1503  H     0.59047   0.96158   0.82067   0.00000  Uiso   1.00
H1504  H     0.63623   0.96985   0.87874   0.00000  Uiso   1.00
H1505  H     0.55281   0.68626   0.78914   0.00000  Uiso   1.00
H1506  H     0.62209   0.89294   0.90360   0.00000  Uiso   1.00
H1507  H     0.99374   0.94422   0.73344   0.00000  Uiso   1.00
H1508  H     0.53758   0.96434   0.69141   0.00000  Uiso   1.00
H1509  H     0.98305   0.98520   0.68112   0.00000  Uiso   1.00
H1510  H     0.95632   0.97964   0.84371   0.00000  Uiso   1.00
H1511  H     0.98028   0.72473   0.91678   0.00000  Uiso   1.00
H1512  H     0.52880   0.70454   0.88267   0.00000  Uiso   1.00
H1513  H     0.51931   0.69339   0.95658   0.00000  Uiso   1.00
H1514  H     0.72664   0.98449   0.71993   0.00000  Uiso   1.00
H1515  H     0.79527   0.96337   0.67802   0.00000  Uiso   1.00
H1516  H     0.82493   0.98237   0.75367   0.00000  Uiso   1.00
H1517  H     0.91788   0.94213   0.93946   0.00000  Uiso   1.00
H1518  H     0.80306   0.69750   0.71743   0.00000  Uiso   1.00
H1519  H     0.78400   0.71320   0.93561   0.00000  Uiso   1.00
H1520  H     0.72247   0.71214   0.99342   0.00000  Uiso   1.00
H1521  H     0.69932   0.98315   0.94747   0.00000  Uiso   1.00
H1522  H     0.69363   0.70835   0.91913   0.00000  Uiso   1.00
H1523  H     0.71103   0.79649   0.98406   0.00000  Uiso   1.00
H1524  H     0.78821   0.87145   0.68292   0.00000  Uiso   1.00
H1525  H     0.88742   0.99588   0.87711   0.00000  Uiso   1.00
H1526  H     0.83946   0.96161   0.89873   0.00000  Uiso   1.00
H1527  H     0.85788   0.93917   0.82414   0.00000  Uiso   1.00
H1528  H     0.57985   0.73535   0.70450   0.00000  Uiso   1.00
H1529  H     0.61907   0.67423   0.74193   0.00000  Uiso   1.00
H1530  H     0.64746   0.72386   0.80526   0.00000  Uiso   1.00
N1531  N     0.73744   0.81881   0.67951   0.00000  Uiso   1.00
N1532  N     0.75828   0.68331   0.92034   0.00000  Uiso   1.00
N1533  N     0.76255   0.84786   0.98716   0.00000  Uiso   1.00
N1534  N     0.89754   0.92441   0.89998   0.00000  Uiso   1.00
N1535  N     0.60191   0.74967   0.74347   0.00000  Uiso   1.00
N1536  N     0.92714   0.70000   0.74388   0.00000  Uiso   1.00
N1537  N     0.57211   0.96463   0.91050   0.00000  Uiso   1.00
N1538  N     0.52291   0.68807   0.76488   0.00000  Uiso   1.00
N1539  N     0.97709   0.97760   0.88164   0.00000  Uiso   1.00
N1540  N     0.75453   0.98266   0.74891   0.00000  Uiso   1.00
O1541  O     0.75325   0.76204   0.87326   0.00000  Uiso   1.00
O1542  O     0.74674   0.90462   0.79341   0.00000  Uiso   1.00
O1543  O     0.74480   0.75226   0.76945   0.00000  Uiso   1.00
O1544  O     0.75520   0.91441   0.89721   0.00000  Uiso   1.00
O1545  O     0.68935   0.83821   0.88524   0.00000  Uiso   1.00
O1546  O     0.81064   0.82845   0.78143   0.00000  Uiso   1.00
O1547  O     0.68090   0.82843   0.78143   0.00000  Uiso   1.00
O1548  O     0.81910   0.83824   0.88523   0.00000  Uiso   1.00
loop_
_geom_bond_atom_site_label_1
_geom_bond_atom_site_label_2
_geom_bond_distance
_geom_bond_site_symmetry_2
_ccdc_geom_bond_type
C1     O81     1.299   .     A
C1     C26     1.446   .     S
C1     O79     1.294   .     A
C2     C13     1.426   .     A
C2     C4      1.418   .     A
C2     N73     1.432   .     S
C3     C29     1.455   .     S
C3     C30     1.407   .     A
C3     C5      1.378   .     A
C4     C28     1.461   .     S
C4     C6      1.384   .     A
C5     H33     1.083   .     S
C5     C7      1.394   .     A
C6     H44     1.081   .     S
C6     C8      1.392   .     A
C7     C14     1.410   .     A
C7     C9      1.411   .     A
C8     C15     1.414   .     A
C8     C10     1.410   .     A
C9     C11     1.425   .     A
C9     C96     1.399   .     S
C10    C13     1.423   .     A
C10    C95     1.399   1_455 S
C11    C25     1.430   .     A
C11    C30     1.425   .     A
C12    C27     1.438   .     S
C12    O82     1.295   .     A
C12    O80     1.296   .     A
C13    C23     1.430   .     A
C14    N74     1.426   .     S
C14    C109    1.419   .     S
C15    N75     1.427   .     S
C15    C111    1.418   1_455 S
C16    N72     1.448   .     S
C16    H63     1.109   .     S
C16    H65     1.110   .     S
C16    H64     1.105   .     S
C17    N73     1.448   .     S
C17    H67     1.110   .     S
C17    H34     1.106   .     S
C17    H68     1.109   .     S
C18    H37     1.109   .     S
C18    N74     1.449   .     S
C18    H38     1.107   .     S
C18    H1068   1.105   1_554 S
C19    H42     1.104   .     S
C19    N75     1.450   .     S
C19    H41     1.111   .     S
C19    H212    1.108   .     S
C20    H46     1.106   .     S
C20    H131    1.110   1_455 S
C20    H133    1.098   1_455 S
C20    N248    1.446   .     S
C21    H50     1.100   .     S
C21    H51     1.101   .     S
C21    H135    1.110   1_455 S
C21    N507    1.451   1_445 S
C22    H54     1.109   .     S
C22    H53     1.108   .     S
C22    N78     1.446   .     S
C22    H228    1.110   .     S
C23    N76     1.434   .     S
C23    C100    1.419   1_455 S
C24    N70     1.443   .     S
C24    H60     1.110   .     S
C24    H58     1.101   .     S
C24    H403    1.109   1_545 S
C25    N77     1.439   .     S
C25    C101    1.418   .     S
C26    C371    1.358   1_545 S
C26    N422    1.427   1_545 S
C27    C198    1.358   .     S
C27    N242    1.427   .     S
C28    O83     1.305   .     A
C28    O85     1.299   .     A
C29    O84     1.301   .     A
C29    O86     1.299   .     A
C30    N72     1.423   .     S
Cu31   O82     1.984   .     S
Cu31   O83     1.961   .     S
Cu31   N71     2.033   .     S
Cu31   O86     1.955   .     S
Cu31   Cu32    2.706   .     S
Cu31   O79     1.989   .     S
Cu32   O81     1.984   .     S
Cu32   O84     1.961   .     S
Cu32   O80     1.989   .     S
Cu32   N69     2.033   .     S
Cu32   O85     1.955   .     S
H35    N246    1.027   .     S
H36    C534    1.105   .     S
H39    N75     1.031   .     S
H40    C363    1.108   1_545 S
H43    N76     1.021   .     S
H45    C106    1.110   .     S
H47    C106    1.098   .     S
H48    N77     1.029   .     S
H49    C107    1.110   .     S
H52    N78     1.029   .     S
H55    N72     1.028   .     S
H56    C366    1.110   1_545 S
H57    N70     1.031   .     S
H59    C196    1.109   .     S
H61    N585    1.028   .     S
H62    N1103   1.029   1_554 S
H66    N73     1.031   .     S
N69    H1093   1.028   1_554 S
N69    N1103   1.285   1_554 S
N70    C371    1.427   1_545 S
N71    N585    1.285   .     S
N71    H578    1.029   .     S
N74    H379    1.027   1_545 S
N76    C364    1.446   1_545 S
N77    C279    1.451   .     S
N78    C198    1.427   .     S
C87    O167    1.299   .     A
C87    C112    1.446   .     S
C87    O165    1.294   .     A
C88    C99     1.426   .     A
C88    C90     1.418   .     A
C88    N159    1.432   .     S
C89    C115    1.455   .     S
C89    C116    1.407   .     A
C89    C91     1.378   .     A
C90    C114    1.461   .     S
C90    C92     1.384   .     A
C91    H119    1.083   .     S
C91    C93     1.394   .     A
C92    H130    1.081   .     S
C92    C94     1.392   .     A
C93    C100    1.410   .     A
C93    C95     1.411   .     A
C94    C101    1.414   .     A
C94    C96     1.410   .     A
C95    C97     1.425   .     A
C95    C10     1.399   1_655 S
C96    C99     1.423   .     A
C97    C111    1.430   .     A
C97    C116    1.425   .     A
C98    C113    1.438   .     S
C98    O168    1.295   .     A
C98    O166    1.296   .     A
C99    C109    1.430   .     A
C100   N160    1.426   .     S
C100   C23     1.419   1_655 S
C101   N161    1.427   .     S
C102   N158    1.448   .     S
C102   H149    1.109   .     S
C102   H151    1.110   .     S
C102   H150    1.105   .     S
C103   N159    1.448   .     S
C103   H153    1.110   .     S
C103   H120    1.106   .     S
C103   H154    1.109   .     S
C104   H123    1.109   .     S
C104   N160    1.449   .     S
C104   H124    1.107   .     S
C104   H1154   1.105   1_554 S
C105   H128    1.104   .     S
C105   N161    1.450   .     S
C105   H127    1.111   .     S
C105   H298    1.108   .     S
C106   H132    1.106   .     S
C106   N334    1.446   .     S
C107   H136    1.100   .     S
C107   H137    1.101   .     S
C107   N421    1.451   1_545 S
C108   H140    1.109   .     S
C108   H139    1.108   .     S
C108   N164    1.446   .     S
C108   H314    1.110   .     S
C109   N162    1.434   .     S
C110   N156    1.443   .     S
C110   H146    1.110   .     S
C110   H144    1.101   .     S
C110   H489    1.109   1_545 S
C111   N163    1.439   .     S
C111   C15     1.418   1_655 S
C112   C457    1.358   1_545 S
C112   N508    1.427   1_545 S
C113   C284    1.358   .     S
C113   N328    1.427   .     S
C114   O169    1.305   .     A
C114   O171    1.299   .     A
C115   O170    1.301   .     A
C115   O172    1.299   .     A
C116   N158    1.423   .     S
Cu117  O168    1.984   .     S
Cu117  O169    1.961   .     S
Cu117  N157    2.033   .     S
Cu117  O172    1.955   .     S
Cu117  Cu118   2.706   .     S
Cu117  O165    1.989   .     S
Cu118  O167    1.984   .     S
Cu118  O170    1.961   .     S
Cu118  O166    1.989   .     S
Cu118  N155    2.033   .     S
Cu118  O171    1.955   .     S
H121   N332    1.027   .     S
H122   C620    1.105   .     S
H125   N161    1.031   .     S
H126   C449    1.108   1_545 S
H129   N162    1.021   .     S
H131   C20     1.110   1_655 S
H133   C20     1.098   1_655 S
H134   N163    1.029   .     S
H135   C21     1.110   1_655 S
H138   N164    1.029   .     S
H141   N158    1.028   .     S
H142   C452    1.110   1_545 S
H143   N156    1.031   .     S
H145   C282    1.109   .     S
H147   N671    1.028   .     S
H148   N1189   1.029   1_554 S
H152   N159    1.031   .     S
N155   H1179   1.028   1_554 S
N155   N1189   1.285   1_554 S
N156   C457    1.427   1_545 S
N157   N671    1.285   .     S
N157   H664    1.029   .     S
N160   H465    1.027   1_545 S
N162   C450    1.446   1_545 S
N163   C193    1.451   1_655 S
N164   C284    1.427   .     S
C173   O253    1.299   .     A
C173   C198    1.446   .     S
C173   O251    1.294   .     A
C174   C185    1.426   .     A
C174   C176    1.418   .     A
C174   N245    1.432   .     S
C175   C201    1.455   .     S
C175   C202    1.407   .     A
C175   C177    1.378   .     A
C176   C200    1.461   .     S
C176   C178    1.384   .     A
C177   H205    1.083   .     S
C177   C179    1.394   .     A
C178   H216    1.081   .     S
C178   C180    1.392   .     A
C179   C186    1.410   .     A
C179   C181    1.411   .     A
C180   C187    1.414   .     A
C180   C182    1.410   .     A
C181   C183    1.425   .     A
C181   C268    1.399   .     S
C182   C185    1.423   .     A
C182   C267    1.399   1_455 S
C183   C197    1.430   .     A
C183   C202    1.425   .     A
C184   C199    1.438   .     S
C184   O254    1.295   .     A
C184   O252    1.296   .     A
C185   C195    1.430   .     A
C186   N246    1.426   .     S
C186   C281    1.419   .     S
C187   N247    1.427   .     S
C187   C283    1.418   1_455 S
C188   N244    1.448   .     S
C188   H235    1.109   .     S
C188   H237    1.110   .     S
C188   H236    1.105   .     S
C189   N245    1.448   .     S
C189   H239    1.110   .     S
C189   H206    1.106   .     S
C189   H240    1.109   .     S
C190   H209    1.109   .     S
C190   N246    1.449   .     S
C190   H210    1.107   .     S
C190   H1240   1.105   1_554 S
C191   H214    1.104   .     S
C191   N247    1.450   .     S
C191   H213    1.111   .     S
C191   H384    1.108   .     S
C192   H218    1.106   .     S
C192   H303    1.110   1_455 S
C192   H305    1.098   1_455 S
C192   N420    1.446   .     S
C193   H222    1.100   .     S
C193   H223    1.101   .     S
C193   H307    1.110   1_455 S
C193   N163    1.451   1_455 S
C194   H226    1.109   .     S
C194   H225    1.108   .     S
C194   N250    1.446   .     S
C194   H400    1.110   .     S
C195   N248    1.434   .     S
C195   C272    1.419   1_455 S
C196   N242    1.443   .     S
C196   H232    1.110   .     S
C196   H230    1.101   .     S
C197   N249    1.439   .     S
C197   C273    1.418   .     S
C199   C370    1.358   .     S
C199   N414    1.427   .     S
C200   O255    1.305   .     A
C200   O257    1.299   .     A
C201   O256    1.301   .     A
C201   O258    1.299   .     A
C202   N244    1.423   .     S
Cu203  O254    1.984   .     S
Cu203  O255    1.961   .     S
Cu203  N243    2.033   .     S
Cu203  O258    1.955   .     S
Cu203  Cu204   2.706   .     S
Cu203  O251    1.989   .     S
Cu204  O253    1.984   .     S
Cu204  O256    1.961   .     S
Cu204  O252    1.989   .     S
Cu204  N241    2.033   .     S
Cu204  O257    1.955   .     S
H207   N418    1.027   .     S
H208   C706    1.105   .     S
H211   N247    1.031   .     S
H215   N248    1.021   .     S
H217   C278    1.110   .     S
H219   C278    1.098   .     S
H220   N249    1.029   .     S
H221   C279    1.110   .     S
H224   N250    1.029   .     S
H227   N244    1.028   .     S
H229   N242    1.031   .     S
H231   C368    1.109   .     S
H233   N757    1.028   .     S
H234   N1275   1.029   1_554 S
H238   N245    1.031   .     S
N241   H1265   1.028   1_554 S
N241   N1275   1.285   1_554 S
N243   N757    1.285   .     S
N243   H750    1.029   .     S
N249   C451    1.451   .     S
N250   C370    1.427   .     S
C259   O339    1.299   .     A
C259   C284    1.446   .     S
C259   O337    1.294   .     A
C260   C271    1.426   .     A
C260   C262    1.418   .     A
C260   N331    1.432   .     S
C261   C287    1.455   .     S
C261   C288    1.407   .     A
C261   C263    1.378   .     A
C262   C286    1.461   .     S
C262   C264    1.384   .     A
C263   H291    1.083   .     S
C263   C265    1.394   .     A
C264   H302    1.081   .     S
C264   C266    1.392   .     A
C265   C272    1.410   .     A
C265   C267    1.411   .     A
C266   C273    1.414   .     A
C266   C268    1.410   .     A
C267   C269    1.425   .     A
C267   C182    1.399   1_655 S
C268   C271    1.423   .     A
C269   C283    1.430   .     A
C269   C288    1.425   .     A
C270   C285    1.438   .     S
C270   O340    1.295   .     A
C270   O338    1.296   .     A
C271   C281    1.430   .     A
C272   N332    1.426   .     S
C272   C195    1.419   1_655 S
C273   N333    1.427   .     S
C274   N330    1.448   .     S
C274   H321    1.109   .     S
C274   H323    1.110   .     S
C274   H322    1.105   .     S
C275   N331    1.448   .     S
C275   H325    1.110   .     S
C275   H292    1.106   .     S
C275   H326    1.109   .     S
C276   H295    1.109   .     S
C276   N332    1.449   .     S
C276   H296    1.107   .     S
C276   H1326   1.105   1_554 S
C277   H300    1.104   .     S
C277   N333    1.450   .     S
C277   H299    1.111   .     S
C277   H470    1.108   .     S
C278   H304    1.106   .     S
C278   N506    1.446   .     S
C279   H308    1.100   .     S
C279   H309    1.101   .     S
C280   H312    1.109   .     S
C280   H311    1.108   .     S
C280   N336    1.446   .     S
C280   H486    1.110   .     S
C281   N334    1.434   .     S
C282   N328    1.443   .     S
C282   H318    1.110   .     S
C282   H316    1.101   .     S
C283   N335    1.439   .     S
C283   C187    1.418   1_655 S
C285   C456    1.358   .     S
C285   N500    1.427   .     S
C286   O341    1.305   .     A
C286   O343    1.299   .     A
C287   O342    1.301   .     A
C287   O344    1.299   .     A
C288   N330    1.423   .     S
Cu289  O340    1.984   .     S
Cu289  O341    1.961   .     S
Cu289  N329    2.033   .     S
Cu289  O344    1.955   .     S
Cu289  Cu290   2.706   .     S
Cu289  O337    1.989   .     S
Cu290  O339    1.984   .     S
Cu290  O342    1.961   .     S
Cu290  O338    1.989   .     S
Cu290  N327    2.033   .     S
Cu290  O343    1.955   .     S
H293   N504    1.027   .     S
H294   C792    1.105   .     S
H297   N333    1.031   .     S
H301   N334    1.021   .     S
H303   C192    1.110   1_655 S
H305   C192    1.098   1_655 S
H306   N335    1.029   .     S
H307   C193    1.110   1_655 S
H310   N336    1.029   .     S
H313   N330    1.028   .     S
H315   N328    1.031   .     S
H317   C454    1.109   .     S
H319   N843    1.028   .     S
H320   N1361   1.029   1_554 S
H324   N331    1.031   .     S
N327   H1351   1.028   1_554 S
N327   N1361   1.285   1_554 S
N329   N843    1.285   .     S
N329   H836    1.029   .     S
N335   C365    1.451   1_655 S
N336   C456    1.427   .     S
C345   O425    1.299   .     A
C345   C370    1.446   .     S
C345   O423    1.294   .     A
C346   C357    1.426   .     A
C346   C348    1.418   .     A
C346   N417    1.432   .     S
C347   C373    1.455   .     S
C347   C374    1.407   .     A
C347   C349    1.378   .     A
C348   C372    1.461   .     S
C348   C350    1.384   .     A
C349   H377    1.083   .     S
C349   C351    1.394   .     A
C350   H388    1.081   .     S
C350   C352    1.392   .     A
C351   C358    1.410   .     A
C351   C353    1.411   .     A
C352   C359    1.414   .     A
C352   C354    1.410   .     A
C353   C355    1.425   .     A
C353   C440    1.399   .     S
C354   C357    1.423   .     A
C354   C439    1.399   1_455 S
C355   C369    1.430   .     A
C355   C374    1.425   .     A
C356   C371    1.438   .     S
C356   O426    1.295   .     A
C356   O424    1.296   .     A
C357   C367    1.430   .     A
C358   N418    1.426   .     S
C358   C453    1.419   .     S
C359   N419    1.427   .     S
C359   C455    1.418   1_455 S
C360   N416    1.448   .     S
C360   H407    1.109   .     S
C360   H409    1.110   .     S
C360   H408    1.105   .     S
C361   N417    1.448   .     S
C361   H411    1.110   .     S
C361   H378    1.106   .     S
C361   H412    1.109   .     S
C362   H381    1.109   .     S
C362   N418    1.449   .     S
C362   H382    1.107   .     S
C362   H1412   1.105   1_554 S
C363   H386    1.104   .     S
C363   N419    1.450   .     S
C363   H385    1.111   .     S
C363   H40     1.108   1_565 S
C364   H390    1.106   .     S
C364   H475    1.110   1_455 S
C364   H477    1.098   1_455 S
C364   N76     1.446   1_565 S
C365   H394    1.100   .     S
C365   H395    1.101   .     S
C365   H479    1.110   1_455 S
C365   N335    1.451   1_455 S
C366   H398    1.109   .     S
C366   H397    1.108   .     S
C366   N422    1.446   .     S
C366   H56     1.110   1_565 S
C367   N420    1.434   .     S
C367   C444    1.419   1_455 S
C368   N414    1.443   .     S
C368   H404    1.110   .     S
C368   H402    1.101   .     S
C369   N421    1.439   .     S
C369   C445    1.418   .     S
C371   C26     1.358   1_565 S
C371   N70     1.427   1_565 S
C372   O427    1.305   .     A
C372   O429    1.299   .     A
C373   O428    1.301   .     A
C373   O430    1.299   .     A
C374   N416    1.423   .     S
Cu375  O426    1.984   .     S
Cu375  O427    1.961   .     S
Cu375  N415    2.033   .     S
Cu375  O430    1.955   .     S
Cu375  Cu376   2.706   .     S
Cu375  O423    1.989   .     S
Cu376  O425    1.984   .     S
Cu376  O428    1.961   .     S
Cu376  O424    1.989   .     S
Cu376  N413    2.033   .     S
Cu376  O429    1.955   .     S
H379   N74     1.027   1_565 S
H380   C878    1.105   .     S
H383   N419    1.031   .     S
H387   N420    1.021   .     S
H389   C450    1.110   .     S
H391   C450    1.098   .     S
H392   N421    1.029   .     S
H393   C451    1.110   .     S
H396   N422    1.029   .     S
H399   N416    1.028   .     S
H401   N414    1.031   .     S
H403   C24     1.109   1_565 S
H405   N929    1.028   .     S
H406   N1447   1.029   1_554 S
H410   N417    1.031   .     S
N413   H1437   1.028   1_554 S
N413   N1447   1.285   1_554 S
N415   N929    1.285   .     S
N415   H922    1.029   .     S
N421   C107    1.451   1_565 S
N422   C26     1.427   1_565 S
C431   O511    1.299   .     A
C431   C456    1.446   .     S
C431   O509    1.294   .     A
C432   C443    1.426   .     A
C432   C434    1.418   .     A
C432   N503    1.432   .     S
C433   C459    1.455   .     S
C433   C460    1.407   .     A
C433   C435    1.378   .     A
C434   C458    1.461   .     S
C434   C436    1.384   .     A
C435   H463    1.083   .     S
C435   C437    1.394   .     A
C436   H474    1.081   .     S
C436   C438    1.392   .     A
C437   C444    1.410   .     A
C437   C439    1.411   .     A
C438   C445    1.414   .     A
C438   C440    1.410   .     A
C439   C441    1.425   .     A
C439   C354    1.399   1_655 S
C440   C443    1.423   .     A
C441   C455    1.430   .     A
C441   C460    1.425   .     A
C442   C457    1.438   .     S
C442   O512    1.295   .     A
C442   O510    1.296   .     A
C443   C453    1.430   .     A
C444   N504    1.426   .     S
C444   C367    1.419   1_655 S
C445   N505    1.427   .     S
C446   N502    1.448   .     S
C446   H493    1.109   .     S
C446   H495    1.110   .     S
C446   H494    1.105   .     S
C447   N503    1.448   .     S
C447   H497    1.110   .     S
C447   H464    1.106   .     S
C447   H498    1.109   .     S
C448   H467    1.109   .     S
C448   N504    1.449   .     S
C448   H468    1.107   .     S
C448   H1498   1.105   1_554 S
C449   H472    1.104   .     S
C449   N505    1.450   .     S
C449   H471    1.111   .     S
C449   H126    1.108   1_565 S
C450   H476    1.106   .     S
C450   N162    1.446   1_565 S
C451   H480    1.100   .     S
C451   H481    1.101   .     S
C452   H484    1.109   .     S
C452   H483    1.108   .     S
C452   N508    1.446   .     S
C452   H142    1.110   1_565 S
C453   N506    1.434   .     S
C454   N500    1.443   .     S
C454   H490    1.110   .     S
C454   H488    1.101   .     S
C455   N507    1.439   .     S
C455   C359    1.418   1_655 S
C457   C112    1.358   1_565 S
C457   N156    1.427   1_565 S
C458   O513    1.305   .     A
C458   O515    1.299   .     A
C459   O514    1.301   .     A
C459   O516    1.299   .     A
C460   N502    1.423   .     S
Cu461  O512    1.984   .     S
Cu461  O513    1.961   .     S
Cu461  N501    2.033   .     S
Cu461  O516    1.955   .     S
Cu461  Cu462   2.706   .     S
Cu461  O509    1.989   .     S
Cu462  O511    1.984   .     S
Cu462  O514    1.961   .     S
Cu462  O510    1.989   .     S
Cu462  N499    2.033   .     S
Cu462  O515    1.955   .     S
H465   N160    1.027   1_565 S
H466   C964    1.105   .     S
H469   N505    1.031   .     S
H473   N506    1.021   .     S
H475   C364    1.110   1_655 S
H477   C364    1.098   1_655 S
H478   N507    1.029   .     S
H479   C365    1.110   1_655 S
H482   N508    1.029   .     S
H485   N502    1.028   .     S
H487   N500    1.031   .     S
H489   C110    1.109   1_565 S
H491   N1015   1.028   .     S
H492   N1533   1.029   1_554 S
H496   N503    1.031   .     S
N499   H1523   1.028   1_554 S
N499   N1533   1.285   1_554 S
N501   N1015   1.285   .     S
N501   H1008   1.029   .     S
N507   C21     1.451   1_665 S
N508   C112    1.427   1_565 S
C517   O597    1.299   .     A
C517   C542    1.446   .     S
C517   O595    1.294   .     A
C518   C529    1.426   .     A
C518   C520    1.418   .     A
C518   N589    1.432   .     S
C519   C545    1.455   .     S
C519   C546    1.407   .     A
C519   C521    1.378   .     A
C520   C544    1.461   .     S
C520   C522    1.384   .     A
C521   H549    1.083   .     S
C521   C523    1.394   .     A
C522   H560    1.081   .     S
C522   C524    1.392   .     A
C523   C530    1.410   .     A
C523   C525    1.411   .     A
C524   C531    1.414   .     A
C524   C526    1.410   .     A
C525   C527    1.425   .     A
C525   C612    1.399   .     S
C526   C529    1.423   .     A
C526   C611    1.399   1_455 S
C527   C541    1.430   .     A
C527   C546    1.425   .     A
C528   C543    1.438   .     S
C528   O598    1.295   .     A
C528   O596    1.296   .     A
C529   C539    1.430   .     A
C530   N590    1.426   .     S
C530   C625    1.419   .     S
C531   N591    1.427   .     S
C531   C627    1.418   1_455 S
C532   N588    1.448   .     S
C532   H579    1.109   .     S
C532   H581    1.110   .     S
C532   H580    1.105   .     S
C533   N589    1.448   .     S
C533   H583    1.110   .     S
C533   H550    1.106   .     S
C533   H584    1.109   .     S
C534   H553    1.109   .     S
C534   N590    1.449   .     S
C534   H554    1.107   .     S
C535   H558    1.104   .     S
C535   N591    1.450   .     S
C535   H557    1.111   .     S
C535   H728    1.108   .     S
C536   H562    1.106   .     S
C536   H647    1.110   1_455 S
C536   H649    1.098   1_455 S
C536   N764    1.446   .     S
C537   H566    1.100   .     S
C537   H567    1.101   .     S
C537   H651    1.110   1_455 S
C537   N1023   1.451   1_445 S
C538   H570    1.109   .     S
C538   H569    1.108   .     S
C538   N594    1.446   .     S
C538   H744    1.110   .     S
C539   N592    1.434   .     S
C539   C616    1.419   1_455 S
C540   N586    1.443   .     S
C540   H576    1.110   .     S
C540   H574    1.101   .     S
C540   H919    1.109   1_545 S
C541   N593    1.439   .     S
C541   C617    1.418   .     S
C542   C887    1.358   1_545 S
C542   N938    1.427   1_545 S
C543   C714    1.358   .     S
C543   N758    1.427   .     S
C544   O599    1.305   .     A
C544   O601    1.299   .     A
C545   O600    1.301   .     A
C545   O602    1.299   .     A
C546   N588    1.423   .     S
Cu547  O598    1.984   .     S
Cu547  O599    1.961   .     S
Cu547  N587    2.033   .     S
Cu547  O602    1.955   .     S
Cu547  Cu548   2.706   .     S
Cu547  O595    1.989   .     S
Cu548  O597    1.984   .     S
Cu548  O600    1.961   .     S
Cu548  O596    1.989   .     S
Cu548  N585    2.033   .     S
Cu548  O601    1.955   .     S
H551   N762    1.027   .     S
H552   C1050   1.105   .     S
H555   N591    1.031   .     S
H556   C879    1.108   1_545 S
H559   N592    1.021   .     S
H561   C622    1.110   .     S
H563   C622    1.098   .     S
H564   N593    1.029   .     S
H565   C623    1.110   .     S
H568   N594    1.029   .     S
H571   N588    1.028   .     S
H572   C882    1.110   1_545 S
H573   N586    1.031   .     S
H575   C712    1.109   .     S
H577   N1101   1.028   .     S
H582   N589    1.031   .     S
N586   C887    1.427   1_545 S
N587   N1101   1.285   .     S
N587   H1094   1.029   .     S
N590   H895    1.027   1_545 S
N592   C880    1.446   1_545 S
N593   C795    1.451   .     S
N594   C714    1.427   .     S
C603   O683    1.299   .     A
C603   C628    1.446   .     S
C603   O681    1.294   .     A
C604   C615    1.426   .     A
C604   C606    1.418   .     A
C604   N675    1.432   .     S
C605   C631    1.455   .     S
C605   C632    1.407   .     A
C605   C607    1.378   .     A
C606   C630    1.461   .     S
C606   C608    1.384   .     A
C607   H635    1.083   .     S
C607   C609    1.394   .     A
C608   H646    1.081   .     S
C608   C610    1.392   .     A
C609   C616    1.410   .     A
C609   C611    1.411   .     A
C610   C617    1.414   .     A
C610   C612    1.410   .     A
C611   C613    1.425   .     A
C611   C526    1.399   1_655 S
C612   C615    1.423   .     A
C613   C627    1.430   .     A
C613   C632    1.425   .     A
C614   C629    1.438   .     S
C614   O684    1.295   .     A
C614   O682    1.296   .     A
C615   C625    1.430   .     A
C616   N676    1.426   .     S
C616   C539    1.419   1_655 S
C617   N677    1.427   .     S
C618   N674    1.448   .     S
C618   H665    1.109   .     S
C618   H667    1.110   .     S
C618   H666    1.105   .     S
C619   N675    1.448   .     S
C619   H669    1.110   .     S
C619   H636    1.106   .     S
C619   H670    1.109   .     S
C620   H639    1.109   .     S
C620   N676    1.449   .     S
C620   H640    1.107   .     S
C621   H644    1.104   .     S
C621   N677    1.450   .     S
C621   H643    1.111   .     S
C621   H814    1.108   .     S
C622   H648    1.106   .     S
C622   N850    1.446   .     S
C623   H652    1.100   .     S
C623   H653    1.101   .     S
C623   N937    1.451   1_545 S
C624   H656    1.109   .     S
C624   H655    1.108   .     S
C624   N680    1.446   .     S
C624   H830    1.110   .     S
C625   N678    1.434   .     S
C626   N672    1.443   .     S
C626   H662    1.110   .     S
C626   H660    1.101   .     S
C626   H1005   1.109   1_545 S
C627   N679    1.439   .     S
C627   C531    1.418   1_655 S
C628   C973    1.358   1_545 S
C628   N1024   1.427   1_545 S
C629   C800    1.358   .     S
C629   N844    1.427   .     S
C630   O685    1.305   .     A
C630   O687    1.299   .     A
C631   O686    1.301   .     A
C631   O688    1.299   .     A
C632   N674    1.423   .     S
Cu633  O684    1.984   .     S
Cu633  O685    1.961   .     S
Cu633  N673    2.033   .     S
Cu633  O688    1.955   .     S
Cu633  Cu634   2.706   .     S
Cu633  O681    1.989   .     S
Cu634  O683    1.984   .     S
Cu634  O686    1.961   .     S
Cu634  O682    1.989   .     S
Cu634  N671    2.033   .     S
Cu634  O687    1.955   .     S
H637   N848    1.027   .     S
H638   C1136   1.105   .     S
H641   N677    1.031   .     S
H642   C965    1.108   1_545 S
H645   N678    1.021   .     S
H647   C536    1.110   1_655 S
H649   C536    1.098   1_655 S
H650   N679    1.029   .     S
H651   C537    1.110   1_655 S
H654   N680    1.029   .     S
H657   N674    1.028   .     S
H658   C968    1.110   1_545 S
H659   N672    1.031   .     S
H661   C798    1.109   .     S
H663   N1187   1.028   .     S
H668   N675    1.031   .     S
N672   C973    1.427   1_545 S
N673   N1187   1.285   .     S
N673   H1180   1.029   .     S
N676   H981    1.027   1_545 S
N678   C966    1.446   1_545 S
N679   C709    1.451   1_655 S
N680   C800    1.427   .     S
C689   O769    1.299   .     A
C689   C714    1.446   .     S
C689   O767    1.294   .     A
C690   C701    1.426   .     A
C690   C692    1.418   .     A
C690   N761    1.432   .     S
C691   C717    1.455   .     S
C691   C718    1.407   .     A
C691   C693    1.378   .     A
C692   C716    1.461   .     S
C692   C694    1.384   .     A
C693   H721    1.083   .     S
C693   C695    1.394   .     A
C694   H732    1.081   .     S
C694   C696    1.392   .     A
C695   C702    1.410   .     A
C695   C697    1.411   .     A
C696   C703    1.414   .     A
C696   C698    1.410   .     A
C697   C699    1.425   .     A
C697   C784    1.399   .     S
C698   C701    1.423   .     A
C698   C783    1.399   1_455 S
C699   C713    1.430   .     A
C699   C718    1.425   .     A
C700   C715    1.438   .     S
C700   O770    1.295   .     A
C700   O768    1.296   .     A
C701   C711    1.430   .     A
C702   N762    1.426   .     S
C702   C797    1.419   .     S
C703   N763    1.427   .     S
C703   C799    1.418   1_455 S
C704   N760    1.448   .     S
C704   H751    1.109   .     S
C704   H753    1.110   .     S
C704   H752    1.105   .     S
C705   N761    1.448   .     S
C705   H755    1.110   .     S
C705   H722    1.106   .     S
C705   H756    1.109   .     S
C706   H725    1.109   .     S
C706   N762    1.449   .     S
C706   H726    1.107   .     S
C707   H730    1.104   .     S
C707   N763    1.450   .     S
C707   H729    1.111   .     S
C707   H900    1.108   .     S
C708   H734    1.106   .     S
C708   H819    1.110   1_455 S
C708   H821    1.098   1_455 S
C708   N936    1.446   .     S
C709   H738    1.100   .     S
C709   H739    1.101   .     S
C709   H823    1.110   1_455 S
C709   N679    1.451   1_455 S
C710   H742    1.109   .     S
C710   H741    1.108   .     S
C710   N766    1.446   .     S
C710   H916    1.110   .     S
C711   N764    1.434   .     S
C711   C788    1.419   1_455 S
C712   N758    1.443   .     S
C712   H748    1.110   .     S
C712   H746    1.101   .     S
C713   N765    1.439   .     S
C713   C789    1.418   .     S
C715   C886    1.358   .     S
C715   N930    1.427   .     S
C716   O771    1.305   .     A
C716   O773    1.299   .     A
C717   O772    1.301   .     A
C717   O774    1.299   .     A
C718   N760    1.423   .     S
Cu719  O770    1.984   .     S
Cu719  O771    1.961   .     S
Cu719  N759    2.033   .     S
Cu719  O774    1.955   .     S
Cu719  Cu720   2.706   .     S
Cu719  O767    1.989   .     S
Cu720  O769    1.984   .     S
Cu720  O772    1.961   .     S
Cu720  O768    1.989   .     S
Cu720  N757    2.033   .     S
Cu720  O773    1.955   .     S
H723   N934    1.027   .     S
H724   C1222   1.105   .     S
H727   N763    1.031   .     S
H731   N764    1.021   .     S
H733   C794    1.110   .     S
H735   C794    1.098   .     S
H736   N765    1.029   .     S
H737   C795    1.110   .     S
H740   N766    1.029   .     S
H743   N760    1.028   .     S
H745   N758    1.031   .     S
H747   C884    1.109   .     S
H749   N1273   1.028   .     S
H754   N761    1.031   .     S
N759   N1273   1.285   .     S
N759   H1266   1.029   .     S
N765   C967    1.451   .     S
N766   C886    1.427   .     S
C775   O855    1.299   .     A
C775   C800    1.446   .     S
C775   O853    1.294   .     A
C776   C787    1.426   .     A
C776   C778    1.418   .     A
C776   N847    1.432   .     S
C777   C803    1.455   .     S
C777   C804    1.407   .     A
C777   C779    1.378   .     A
C778   C802    1.461   .     S
C778   C780    1.384   .     A
C779   H807    1.083   .     S
C779   C781    1.394   .     A
C780   H818    1.081   .     S
C780   C782    1.392   .     A
C781   C788    1.410   .     A
C781   C783    1.411   .     A
C782   C789    1.414   .     A
C782   C784    1.410   .     A
C783   C785    1.425   .     A
C783   C698    1.399   1_655 S
C784   C787    1.423   .     A
C785   C799    1.430   .     A
C785   C804    1.425   .     A
C786   C801    1.438   .     S
C786   O856    1.295   .     A
C786   O854    1.296   .     A
C787   C797    1.430   .     A
C788   N848    1.426   .     S
C788   C711    1.419   1_655 S
C789   N849    1.427   .     S
C790   N846    1.448   .     S
C790   H837    1.109   .     S
C790   H839    1.110   .     S
C790   H838    1.105   .     S
C791   N847    1.448   .     S
C791   H841    1.110   .     S
C791   H808    1.106   .     S
C791   H842    1.109   .     S
C792   H811    1.109   .     S
C792   N848    1.449   .     S
C792   H812    1.107   .     S
C793   H816    1.104   .     S
C793   N849    1.450   .     S
C793   H815    1.111   .     S
C793   H986    1.108   .     S
C794   H820    1.106   .     S
C794   N1022   1.446   .     S
C795   H824    1.100   .     S
C795   H825    1.101   .     S
C796   H828    1.109   .     S
C796   H827    1.108   .     S
C796   N852    1.446   .     S
C796   H1002   1.110   .     S
C797   N850    1.434   .     S
C798   N844    1.443   .     S
C798   H834    1.110   .     S
C798   H832    1.101   .     S
C799   N851    1.439   .     S
C799   C703    1.418   1_655 S
C801   C972    1.358   .     S
C801   N1016   1.427   .     S
C802   O857    1.305   .     A
C802   O859    1.299   .     A
C803   O858    1.301   .     A
C803   O860    1.299   .     A
C804   N846    1.423   .     S
Cu805  O856    1.984   .     S
Cu805  O857    1.961   .     S
Cu805  N845    2.033   .     S
Cu805  O860    1.955   .     S
Cu805  Cu806   2.706   .     S
Cu805  O853    1.989   .     S
Cu806  O855    1.984   .     S
Cu806  O858    1.961   .     S
Cu806  O854    1.989   .     S
Cu806  N843    2.033   .     S
Cu806  O859    1.955   .     S
H809   N1020   1.027   .     S
H810   C1308   1.105   .     S
H813   N849    1.031   .     S
H817   N850    1.021   .     S
H819   C708    1.110   1_655 S
H821   C708    1.098   1_655 S
H822   N851    1.029   .     S
H823   C709    1.110   1_655 S
H826   N852    1.029   .     S
H829   N846    1.028   .     S
H831   N844    1.031   .     S
H833   C970    1.109   .     S
H835   N1359   1.028   .     S
H840   N847    1.031   .     S
N845   N1359   1.285   .     S
N845   H1352   1.029   .     S
N851   C881    1.451   1_655 S
N852   C972    1.427   .     S
C861   O941    1.299   .     A
C861   C886    1.446   .     S
C861   O939    1.294   .     A
C862   C873    1.426   .     A
C862   C864    1.418   .     A
C862   N933    1.432   .     S
C863   C889    1.455   .     S
C863   C890    1.407   .     A
C863   C865    1.378   .     A
C864   C888    1.461   .     S
C864   C866    1.384   .     A
C865   H893    1.083   .     S
C865   C867    1.394   .     A
C866   H904    1.081   .     S
C866   C868    1.392   .     A
C867   C874    1.410   .     A
C867   C869    1.411   .     A
C868   C875    1.414   .     A
C868   C870    1.410   .     A
C869   C871    1.425   .     A
C869   C956    1.399   .     S
C870   C873    1.423   .     A
C870   C955    1.399   1_455 S
C871   C885    1.430   .     A
C871   C890    1.425   .     A
C872   C887    1.438   .     S
C872   O942    1.295   .     A
C872   O940    1.296   .     A
C873   C883    1.430   .     A
C874   N934    1.426   .     S
C874   C969    1.419   .     S
C875   N935    1.427   .     S
C875   C971    1.418   1_455 S
C876   N932    1.448   .     S
C876   H923    1.109   .     S
C876   H925    1.110   .     S
C876   H924    1.105   .     S
C877   N933    1.448   .     S
C877   H927    1.110   .     S
C877   H894    1.106   .     S
C877   H928    1.109   .     S
C878   H897    1.109   .     S
C878   N934    1.449   .     S
C878   H898    1.107   .     S
C879   H902    1.104   .     S
C879   N935    1.450   .     S
C879   H901    1.111   .     S
C879   H556    1.108   1_565 S
C880   H906    1.106   .     S
C880   H991    1.110   1_455 S
C880   H993    1.098   1_455 S
C880   N592    1.446   1_565 S
C881   H910    1.100   .     S
C881   H911    1.101   .     S
C881   H995    1.110   1_455 S
C881   N851    1.451   1_455 S
C882   H914    1.109   .     S
C882   H913    1.108   .     S
C882   N938    1.446   .     S
C882   H572    1.110   1_565 S
C883   N936    1.434   .     S
C883   C960    1.419   1_455 S
C884   N930    1.443   .     S
C884   H920    1.110   .     S
C884   H918    1.101   .     S
C885   N937    1.439   .     S
C885   C961    1.418   .     S
C887   C542    1.358   1_565 S
C887   N586    1.427   1_565 S
C888   O943    1.305   .     A
C888   O945    1.299   .     A
C889   O944    1.301   .     A
C889   O946    1.299   .     A
C890   N932    1.423   .     S
Cu891  O942    1.984   .     S
Cu891  O943    1.961   .     S
Cu891  N931    2.033   .     S
Cu891  O946    1.955   .     S
Cu891  Cu892   2.706   .     S
Cu891  O939    1.989   .     S
Cu892  O941    1.984   .     S
Cu892  O944    1.961   .     S
Cu892  O940    1.989   .     S
Cu892  N929    2.033   .     S
Cu892  O945    1.955   .     S
H895   N590    1.027   1_565 S
H896   C1394   1.105   .     S
H899   N935    1.031   .     S
H903   N936    1.021   .     S
H905   C966    1.110   .     S
H907   C966    1.098   .     S
H908   N937    1.029   .     S
H909   C967    1.110   .     S
H912   N938    1.029   .     S
H915   N932    1.028   .     S
H917   N930    1.031   .     S
H919   C540    1.109   1_565 S
H921   N1445   1.028   .     S
H926   N933    1.031   .     S
N931   N1445   1.285   .     S
N931   H1438   1.029   .     S
N937   C623    1.451   1_565 S
N938   C542    1.427   1_565 S
C947   O1027   1.299   .     A
C947   C972    1.446   .     S
C947   O1025   1.294   .     A
C948   C959    1.426   .     A
C948   C950    1.418   .     A
C948   N1019   1.432   .     S
C949   C975    1.455   .     S
C949   C976    1.407   .     A
C949   C951    1.378   .     A
C950   C974    1.461   .     S
C950   C952    1.384   .     A
C951   H979    1.083   .     S
C951   C953    1.394   .     A
C952   H990    1.081   .     S
C952   C954    1.392   .     A
C953   C960    1.410   .     A
C953   C955    1.411   .     A
C954   C961    1.414   .     A
C954   C956    1.410   .     A
C955   C957    1.425   .     A
C955   C870    1.399   1_655 S
C956   C959    1.423   .     A
C957   C971    1.430   .     A
C957   C976    1.425   .     A
C958   C973    1.438   .     S
C958   O1028   1.295   .     A
C958   O1026   1.296   .     A
C959   C969    1.430   .     A
C960   N1020   1.426   .     S
C960   C883    1.419   1_655 S
C961   N1021   1.427   .     S
C962   N1018   1.448   .     S
C962   H1009   1.109   .     S
C962   H1011   1.110   .     S
C962   H1010   1.105   .     S
C963   N1019   1.448   .     S
C963   H1013   1.110   .     S
C963   H980    1.106   .     S
C963   H1014   1.109   .     S
C964   H983    1.109   .     S
C964   N1020   1.449   .     S
C964   H984    1.107   .     S
C965   H988    1.104   .     S
C965   N1021   1.450   .     S
C965   H987    1.111   .     S
C965   H642    1.108   1_565 S
C966   H992    1.106   .     S
C966   N678    1.446   1_565 S
C967   H996    1.100   .     S
C967   H997    1.101   .     S
C968   H1000   1.109   .     S
C968   H999    1.108   .     S
C968   N1024   1.446   .     S
C968   H658    1.110   1_565 S
C969   N1022   1.434   .     S
C970   N1016   1.443   .     S
C970   H1006   1.110   .     S
C970   H1004   1.101   .     S
C971   N1023   1.439   .     S
C971   C875    1.418   1_655 S
C973   C628    1.358   1_565 S
C973   N672    1.427   1_565 S
C974   O1029   1.305   .     A
C974   O1031   1.299   .     A
C975   O1030   1.301   .     A
C975   O1032   1.299   .     A
C976   N1018   1.423   .     S
Cu977  O1028   1.984   .     S
Cu977  O1029   1.961   .     S
Cu977  N1017   2.033   .     S
Cu977  O1032   1.955   .     S
Cu977  Cu978   2.706   .     S
Cu977  O1025   1.989   .     S
Cu978  O1027   1.984   .     S
Cu978  O1030   1.961   .     S
Cu978  O1026   1.989   .     S
Cu978  N1015   2.033   .     S
Cu978  O1031   1.955   .     S
H981   N676    1.027   1_565 S
H982   C1480   1.105   .     S
H985   N1021   1.031   .     S
H989   N1022   1.021   .     S
H991   C880    1.110   1_655 S
H993   C880    1.098   1_655 S
H994   N1023   1.029   .     S
H995   C881    1.110   1_655 S
H998   N1024   1.029   .     S
H1001  N1018   1.028   .     S
H1003  N1016   1.031   .     S
H1005  C626    1.109   1_565 S
H1007  N1531   1.028   .     S
H1012  N1019   1.031   .     S
N1017  N1531   1.285   .     S
N1017  H1524   1.029   .     S
N1023  C537    1.451   1_665 S
N1024  C628    1.427   1_565 S
C1033  O1113   1.299   .     A
C1033  C1058   1.446   .     S
C1033  O1111   1.294   .     A
C1034  C1045   1.426   .     A
C1034  C1036   1.418   .     A
C1034  N1105   1.432   .     S
C1035  C1061   1.455   .     S
C1035  C1062   1.407   .     A
C1035  C1037   1.378   .     A
C1036  C1060   1.461   .     S
C1036  C1038   1.384   .     A
C1037  H1065   1.083   .     S
C1037  C1039   1.394   .     A
C1038  H1076   1.081   .     S
C1038  C1040   1.392   .     A
C1039  C1046   1.410   .     A
C1039  C1041   1.411   .     A
C1040  C1047   1.414   .     A
C1040  C1042   1.410   .     A
C1041  C1043   1.425   .     A
C1041  C1128   1.399   .     S
C1042  C1045   1.423   .     A
C1042  C1127   1.399   1_455 S
C1043  C1057   1.430   .     A
C1043  C1062   1.425   .     A
C1044  C1059   1.438   .     S
C1044  O1114   1.295   .     A
C1044  O1112   1.296   .     A
C1045  C1055   1.430   .     A
C1046  N1106   1.426   .     S
C1046  C1141   1.419   .     S
C1047  N1107   1.427   .     S
C1047  C1143   1.418   1_455 S
C1048  N1104   1.448   .     S
C1048  H1095   1.109   .     S
C1048  H1097   1.110   .     S
C1048  H1096   1.105   .     S
C1049  N1105   1.448   .     S
C1049  H1099   1.110   .     S
C1049  H1066   1.106   .     S
C1049  H1100   1.109   .     S
C1050  H1069   1.109   .     S
C1050  N1106   1.449   .     S
C1050  H1070   1.107   .     S
C1051  H1074   1.104   .     S
C1051  N1107   1.450   .     S
C1051  H1073   1.111   .     S
C1051  H1244   1.108   .     S
C1052  H1078   1.106   .     S
C1052  H1163   1.110   1_455 S
C1052  H1165   1.098   1_455 S
C1052  N1280   1.446   .     S
C1053  H1082   1.100   .     S
C1053  H1083   1.101   .     S
C1053  H1167   1.110   1_455 S
C1053  N1539   1.451   1_445 S
C1054  H1086   1.109   .     S
C1054  H1085   1.108   .     S
C1054  N1110   1.446   .     S
C1054  H1260   1.110   .     S
C1055  N1108   1.434   .     S
C1055  C1132   1.419   1_455 S
C1056  N1102   1.443   .     S
C1056  H1092   1.110   .     S
C1056  H1090   1.101   .     S
C1056  H1435   1.109   1_545 S
C1057  N1109   1.439   .     S
C1057  C1133   1.418   .     S
C1058  C1403   1.358   1_545 S
C1058  N1454   1.427   1_545 S
C1059  C1230   1.358   .     S
C1059  N1274   1.427   .     S
C1060  O1115   1.305   .     A
C1060  O1117   1.299   .     A
C1061  O1116   1.301   .     A
C1061  O1118   1.299   .     A
C1062  N1104   1.423   .     S
Cu1063 O1114   1.984   .     S
Cu1063 O1115   1.961   .     S
Cu1063 N1103   2.033   .     S
Cu1063 O1118   1.955   .     S
Cu1063 Cu1064  2.706   .     S
Cu1063 O1111   1.989   .     S
Cu1064 O1113   1.984   .     S
Cu1064 O1116   1.961   .     S
Cu1064 O1112   1.989   .     S
Cu1064 N1101   2.033   .     S
Cu1064 O1117   1.955   .     S
H1067  N1278   1.027   .     S
H1068  C18     1.105   1_556 S
H1071  N1107   1.031   .     S
H1072  C1395   1.108   1_545 S
H1075  N1108   1.021   .     S
H1077  C1138   1.110   .     S
H1079  C1138   1.098   .     S
H1080  N1109   1.029   .     S
H1081  C1139   1.110   .     S
H1084  N1110   1.029   .     S
H1087  N1104   1.028   .     S
H1088  C1398   1.110   1_545 S
H1089  N1102   1.031   .     S
H1091  C1228   1.109   .     S
H1093  N69     1.028   1_556 S
H1098  N1105   1.031   .     S
N1102  C1403   1.427   1_545 S
N1103  N69     1.285   1_556 S
N1103  H62     1.029   1_556 S
N1106  H1411   1.027   1_545 S
N1108  C1396   1.446   1_545 S
N1109  C1311   1.451   .     S
N1110  C1230   1.427   .     S
C1119  O1199   1.299   .     A
C1119  C1144   1.446   .     S
C1119  O1197   1.294   .     A
C1120  C1131   1.426   .     A
C1120  C1122   1.418   .     A
C1120  N1191   1.432   .     S
C1121  C1147   1.455   .     S
C1121  C1148   1.407   .     A
C1121  C1123   1.378   .     A
C1122  C1146   1.461   .     S
C1122  C1124   1.384   .     A
C1123  H1151   1.083   .     S
C1123  C1125   1.394   .     A
C1124  H1162   1.081   .     S
C1124  C1126   1.392   .     A
C1125  C1132   1.410   .     A
C1125  C1127   1.411   .     A
C1126  C1133   1.414   .     A
C1126  C1128   1.410   .     A
C1127  C1129   1.425   .     A
C1127  C1042   1.399   1_655 S
C1128  C1131   1.423   .     A
C1129  C1143   1.430   .     A
C1129  C1148   1.425   .     A
C1130  C1145   1.438   .     S
C1130  O1200   1.295   .     A
C1130  O1198   1.296   .     A
C1131  C1141   1.430   .     A
C1132  N1192   1.426   .     S
C1132  C1055   1.419   1_655 S
C1133  N1193   1.427   .     S
C1134  N1190   1.448   .     S
C1134  H1181   1.109   .     S
C1134  H1183   1.110   .     S
C1134  H1182   1.105   .     S
C1135  N1191   1.448   .     S
C1135  H1185   1.110   .     S
C1135  H1152   1.106   .     S
C1135  H1186   1.109   .     S
C1136  H1155   1.109   .     S
C1136  N1192   1.449   .     S
C1136  H1156   1.107   .     S
C1137  H1160   1.104   .     S
C1137  N1193   1.450   .     S
C1137  H1159   1.111   .     S
C1137  H1330   1.108   .     S
C1138  H1164   1.106   .     S
C1138  N1366   1.446   .     S
C1139  H1168   1.100   .     S
C1139  H1169   1.101   .     S
C1139  N1453   1.451   1_545 S
C1140  H1172   1.109   .     S
C1140  H1171   1.108   .     S
C1140  N1196   1.446   .     S
C1140  H1346   1.110   .     S
C1141  N1194   1.434   .     S
C1142  N1188   1.443   .     S
C1142  H1178   1.110   .     S
C1142  H1176   1.101   .     S
C1142  H1521   1.109   1_545 S
C1143  N1195   1.439   .     S
C1143  C1047   1.418   1_655 S
C1144  C1489   1.358   1_545 S
C1144  N1540   1.427   1_545 S
C1145  C1316   1.358   .     S
C1145  N1360   1.427   .     S
C1146  O1201   1.305   .     A
C1146  O1203   1.299   .     A
C1147  O1202   1.301   .     A
C1147  O1204   1.299   .     A
C1148  N1190   1.423   .     S
Cu1149 O1200   1.984   .     S
Cu1149 O1201   1.961   .     S
Cu1149 N1189   2.033   .     S
Cu1149 O1204   1.955   .     S
Cu1149 Cu1150  2.706   .     S
Cu1149 O1197   1.989   .     S
Cu1150 O1199   1.984   .     S
Cu1150 O1202   1.961   .     S
Cu1150 O1198   1.989   .     S
Cu1150 N1187   2.033   .     S
Cu1150 O1203   1.955   .     S
H1153  N1364   1.027   .     S
H1154  C104    1.105   1_556 S
H1157  N1193   1.031   .     S
H1158  C1481   1.108   1_545 S
H1161  N1194   1.021   .     S
H1163  C1052   1.110   1_655 S
H1165  C1052   1.098   1_655 S
H1166  N1195   1.029   .     S
H1167  C1053   1.110   1_655 S
H1170  N1196   1.029   .     S
H1173  N1190   1.028   .     S
H1174  C1484   1.110   1_545 S
H1175  N1188   1.031   .     S
H1177  C1314   1.109   .     S
H1179  N155    1.028   1_556 S
H1184  N1191   1.031   .     S
N1188  C1489   1.427   1_545 S
N1189  N155    1.285   1_556 S
N1189  H148    1.029   1_556 S
N1192  H1497   1.027   1_545 S
N1194  C1482   1.446   1_545 S
N1195  C1225   1.451   1_655 S
N1196  C1316   1.427   .     S
C1205  O1285   1.299   .     A
C1205  C1230   1.446   .     S
C1205  O1283   1.294   .     A
C1206  C1217   1.426   .     A
C1206  C1208   1.418   .     A
C1206  N1277   1.432   .     S
C1207  C1233   1.455   .     S
C1207  C1234   1.407   .     A
C1207  C1209   1.378   .     A
C1208  C1232   1.461   .     S
C1208  C1210   1.384   .     A
C1209  H1237   1.083   .     S
C1209  C1211   1.394   .     A
C1210  H1248   1.081   .     S
C1210  C1212   1.392   .     A
C1211  C1218   1.410   .     A
C1211  C1213   1.411   .     A
C1212  C1219   1.414   .     A
C1212  C1214   1.410   .     A
C1213  C1215   1.425   .     A
C1213  C1300   1.399   .     S
C1214  C1217   1.423   .     A
C1214  C1299   1.399   1_455 S
C1215  C1229   1.430   .     A
C1215  C1234   1.425   .     A
C1216  C1231   1.438   .     S
C1216  O1286   1.295   .     A
C1216  O1284   1.296   .     A
C1217  C1227   1.430   .     A
C1218  N1278   1.426   .     S
C1218  C1313   1.419   .     S
C1219  N1279   1.427   .     S
C1219  C1315   1.418   1_455 S
C1220  N1276   1.448   .     S
C1220  H1267   1.109   .     S
C1220  H1269   1.110   .     S
C1220  H1268   1.105   .     S
C1221  N1277   1.448   .     S
C1221  H1271   1.110   .     S
C1221  H1238   1.106   .     S
C1221  H1272   1.109   .     S
C1222  H1241   1.109   .     S
C1222  N1278   1.449   .     S
C1222  H1242   1.107   .     S
C1223  H1246   1.104   .     S
C1223  N1279   1.450   .     S
C1223  H1245   1.111   .     S
C1223  H1416   1.108   .     S
C1224  H1250   1.106   .     S
C1224  H1335   1.110   1_455 S
C1224  H1337   1.098   1_455 S
C1224  N1452   1.446   .     S
C1225  H1254   1.100   .     S
C1225  H1255   1.101   .     S
C1225  H1339   1.110   1_455 S
C1225  N1195   1.451   1_455 S
C1226  H1258   1.109   .     S
C1226  H1257   1.108   .     S
C1226  N1282   1.446   .     S
C1226  H1432   1.110   .     S
C1227  N1280   1.434   .     S
C1227  C1304   1.419   1_455 S
C1228  N1274   1.443   .     S
C1228  H1264   1.110   .     S
C1228  H1262   1.101   .     S
C1229  N1281   1.439   .     S
C1229  C1305   1.418   .     S
C1231  C1402   1.358   .     S
C1231  N1446   1.427   .     S
C1232  O1287   1.305   .     A
C1232  O1289   1.299   .     A
C1233  O1288   1.301   .     A
C1233  O1290   1.299   .     A
C1234  N1276   1.423   .     S
Cu1235 O1286   1.984   .     S
Cu1235 O1287   1.961   .     S
Cu1235 N1275   2.033   .     S
Cu1235 O1290   1.955   .     S
Cu1235 Cu1236  2.706   .     S
Cu1235 O1283   1.989   .     S
Cu1236 O1285   1.984   .     S
Cu1236 O1288   1.961   .     S
Cu1236 O1284   1.989   .     S
Cu1236 N1273   2.033   .     S
Cu1236 O1289   1.955   .     S
H1239  N1450   1.027   .     S
H1240  C190    1.105   1_556 S
H1243  N1279   1.031   .     S
H1247  N1280   1.021   .     S
H1249  C1310   1.110   .     S
H1251  C1310   1.098   .     S
H1252  N1281   1.029   .     S
H1253  C1311   1.110   .     S
H1256  N1282   1.029   .     S
H1259  N1276   1.028   .     S
H1261  N1274   1.031   .     S
H1263  C1400   1.109   .     S
H1265  N241    1.028   1_556 S
H1270  N1277   1.031   .     S
N1275  N241    1.285   1_556 S
N1275  H234    1.029   1_556 S
N1281  C1483   1.451   .     S
N1282  C1402   1.427   .     S
C1291  O1371   1.299   .     A
C1291  C1316   1.446   .     S
C1291  O1369   1.294   .     A
C1292  C1303   1.426   .     A
C1292  C1294   1.418   .     A
C1292  N1363   1.432   .     S
C1293  C1319   1.455   .     S
C1293  C1320   1.407   .     A
C1293  C1295   1.378   .     A
C1294  C1318   1.461   .     S
C1294  C1296   1.384   .     A
C1295  H1323   1.083   .     S
C1295  C1297   1.394   .     A
C1296  H1334   1.081   .     S
C1296  C1298   1.392   .     A
C1297  C1304   1.410   .     A
C1297  C1299   1.411   .     A
C1298  C1305   1.414   .     A
C1298  C1300   1.410   .     A
C1299  C1301   1.425   .     A
C1299  C1214   1.399   1_655 S
C1300  C1303   1.423   .     A
C1301  C1315   1.430   .     A
C1301  C1320   1.425   .     A
C1302  C1317   1.438   .     S
C1302  O1372   1.295   .     A
C1302  O1370   1.296   .     A
C1303  C1313   1.430   .     A
C1304  N1364   1.426   .     S
C1304  C1227   1.419   1_655 S
C1305  N1365   1.427   .     S
C1306  N1362   1.448   .     S
C1306  H1353   1.109   .     S
C1306  H1355   1.110   .     S
C1306  H1354   1.105   .     S
C1307  N1363   1.448   .     S
C1307  H1357   1.110   .     S
C1307  H1324   1.106   .     S
C1307  H1358   1.109   .     S
C1308  H1327   1.109   .     S
C1308  N1364   1.449   .     S
C1308  H1328   1.107   .     S
C1309  H1332   1.104   .     S
C1309  N1365   1.450   .     S
C1309  H1331   1.111   .     S
C1309  H1502   1.108   .     S
C1310  H1336   1.106   .     S
C1310  N1538   1.446   .     S
C1311  H1340   1.100   .     S
C1311  H1341   1.101   .     S
C1312  H1344   1.109   .     S
C1312  H1343   1.108   .     S
C1312  N1368   1.446   .     S
C1312  H1518   1.110   .     S
C1313  N1366   1.434   .     S
C1314  N1360   1.443   .     S
C1314  H1350   1.110   .     S
C1314  H1348   1.101   .     S
C1315  N1367   1.439   .     S
C1315  C1219   1.418   1_655 S
C1317  C1488   1.358   .     S
C1317  N1532   1.427   .     S
C1318  O1373   1.305   .     A
C1318  O1375   1.299   .     A
C1319  O1374   1.301   .     A
C1319  O1376   1.299   .     A
C1320  N1362   1.423   .     S
Cu1321 O1372   1.984   .     S
Cu1321 O1373   1.961   .     S
Cu1321 N1361   2.033   .     S
Cu1321 O1376   1.955   .     S
Cu1321 Cu1322  2.706   .     S
Cu1321 O1369   1.989   .     S
Cu1322 O1371   1.984   .     S
Cu1322 O1374   1.961   .     S
Cu1322 O1370   1.989   .     S
Cu1322 N1359   2.033   .     S
Cu1322 O1375   1.955   .     S
H1325  N1536   1.027   .     S
H1326  C276    1.105   1_556 S
H1329  N1365   1.031   .     S
H1333  N1366   1.021   .     S
H1335  C1224   1.110   1_655 S
H1337  C1224   1.098   1_655 S
H1338  N1367   1.029   .     S
H1339  C1225   1.110   1_655 S
H1342  N1368   1.029   .     S
H1345  N1362   1.028   .     S
H1347  N1360   1.031   .     S
H1349  C1486   1.109   .     S
H1351  N327    1.028   1_556 S
H1356  N1363   1.031   .     S
N1361  N327    1.285   1_556 S
N1361  H320    1.029   1_556 S
N1367  C1397   1.451   1_655 S
N1368  C1488   1.427   .     S
C1377  O1457   1.299   .     A
C1377  C1402   1.446   .     S
C1377  O1455   1.294   .     A
C1378  C1389   1.426   .     A
C1378  C1380   1.418   .     A
C1378  N1449   1.432   .     S
C1379  C1405   1.455   .     S
C1379  C1406   1.407   .     A
C1379  C1381   1.378   .     A
C1380  C1404   1.461   .     S
C1380  C1382   1.384   .     A
C1381  H1409   1.083   .     S
C1381  C1383   1.394   .     A
C1382  H1420   1.081   .     S
C1382  C1384   1.392   .     A
C1383  C1390   1.410   .     A
C1383  C1385   1.411   .     A
C1384  C1391   1.414   .     A
C1384  C1386   1.410   .     A
C1385  C1387   1.425   .     A
C1385  C1472   1.399   .     S
C1386  C1389   1.423   .     A
C1386  C1471   1.399   1_455 S
C1387  C1401   1.430   .     A
C1387  C1406   1.425   .     A
C1388  C1403   1.438   .     S
C1388  O1458   1.295   .     A
C1388  O1456   1.296   .     A
C1389  C1399   1.430   .     A
C1390  N1450   1.426   .     S
C1390  C1485   1.419   .     S
C1391  N1451   1.427   .     S
C1391  C1487   1.418   1_455 S
C1392  N1448   1.448   .     S
C1392  H1439   1.109   .     S
C1392  H1441   1.110   .     S
C1392  H1440   1.105   .     S
C1393  N1449   1.448   .     S
C1393  H1443   1.110   .     S
C1393  H1410   1.106   .     S
C1393  H1444   1.109   .     S
C1394  H1413   1.109   .     S
C1394  N1450   1.449   .     S
C1394  H1414   1.107   .     S
C1395  H1418   1.104   .     S
C1395  N1451   1.450   .     S
C1395  H1417   1.111   .     S
C1395  H1072   1.108   1_565 S
C1396  H1422   1.106   .     S
C1396  H1507   1.110   1_455 S
C1396  H1509   1.098   1_455 S
C1396  N1108   1.446   1_565 S
C1397  H1426   1.100   .     S
C1397  H1427   1.101   .     S
C1397  H1511   1.110   1_455 S
C1397  N1367   1.451   1_455 S
C1398  H1430   1.109   .     S
C1398  H1429   1.108   .     S
C1398  N1454   1.446   .     S
C1398  H1088   1.110   1_565 S
C1399  N1452   1.434   .     S
C1399  C1476   1.419   1_455 S
C1400  N1446   1.443   .     S
C1400  H1436   1.110   .     S
C1400  H1434   1.101   .     S
C1401  N1453   1.439   .     S
C1401  C1477   1.418   .     S
C1403  C1058   1.358   1_565 S
C1403  N1102   1.427   1_565 S
C1404  O1459   1.305   .     A
C1404  O1461   1.299   .     A
C1405  O1460   1.301   .     A
C1405  O1462   1.299   .     A
C1406  N1448   1.423   .     S
Cu1407 O1458   1.984   .     S
Cu1407 O1459   1.961   .     S
Cu1407 N1447   2.033   .     S
Cu1407 O1462   1.955   .     S
Cu1407 Cu1408  2.706   .     S
Cu1407 O1455   1.989   .     S
Cu1408 O1457   1.984   .     S
Cu1408 O1460   1.961   .     S
Cu1408 O1456   1.989   .     S
Cu1408 N1445   2.033   .     S
Cu1408 O1461   1.955   .     S
H1411  N1106   1.027   1_565 S
H1412  C362    1.105   1_556 S
H1415  N1451   1.031   .     S
H1419  N1452   1.021   .     S
H1421  C1482   1.110   .     S
H1423  C1482   1.098   .     S
H1424  N1453   1.029   .     S
H1425  C1483   1.110   .     S
H1428  N1454   1.029   .     S
H1431  N1448   1.028   .     S
H1433  N1446   1.031   .     S
H1435  C1056   1.109   1_565 S
H1437  N413    1.028   1_556 S
H1442  N1449   1.031   .     S
N1447  N413    1.285   1_556 S
N1447  H406    1.029   1_556 S
N1453  C1139   1.451   1_565 S
N1454  C1058   1.427   1_565 S
C1463  O1543   1.299   .     A
C1463  C1488   1.446   .     S
C1463  O1541   1.294   .     A
C1464  C1475   1.426   .     A
C1464  C1466   1.418   .     A
C1464  N1535   1.432   .     S
C1465  C1491   1.455   .     S
C1465  C1492   1.407   .     A
C1465  C1467   1.378   .     A
C1466  C1490   1.461   .     S
C1466  C1468   1.384   .     A
C1467  H1495   1.083   .     S
C1467  C1469   1.394   .     A
C1468  H1506   1.081   .     S
C1468  C1470   1.392   .     A
C1469  C1476   1.410   .     A
C1469  C1471   1.411   .     A
C1470  C1477   1.414   .     A
C1470  C1472   1.410   .     A
C1471  C1473   1.425   .     A
C1471  C1386   1.399   1_655 S
C1472  C1475   1.423   .     A
C1473  C1487   1.430   .     A
C1473  C1492   1.425   .     A
C1474  C1489   1.438   .     S
C1474  O1544   1.295   .     A
C1474  O1542   1.296   .     A
C1475  C1485   1.430   .     A
C1476  N1536   1.426   .     S
C1476  C1399   1.419   1_655 S
C1477  N1537   1.427   .     S
C1478  N1534   1.448   .     S
C1478  H1525   1.109   .     S
C1478  H1527   1.110   .     S
C1478  H1526   1.105   .     S
C1479  N1535   1.448   .     S
C1479  H1529   1.110   .     S
C1479  H1496   1.106   .     S
C1479  H1530   1.109   .     S
C1480  H1499   1.109   .     S
C1480  N1536   1.449   .     S
C1480  H1500   1.107   .     S
C1481  H1504   1.104   .     S
C1481  N1537   1.450   .     S
C1481  H1503   1.111   .     S
C1481  H1158   1.108   1_565 S
C1482  H1508   1.106   .     S
C1482  N1194   1.446   1_565 S
C1483  H1512   1.100   .     S
C1483  H1513   1.101   .     S
C1484  H1516   1.109   .     S
C1484  H1515   1.108   .     S
C1484  N1540   1.446   .     S
C1484  H1174   1.110   1_565 S
C1485  N1538   1.434   .     S
C1486  N1532   1.443   .     S
C1486  H1522   1.110   .     S
C1486  H1520   1.101   .     S
C1487  N1539   1.439   .     S
C1487  C1391   1.418   1_655 S
C1489  C1144   1.358   1_565 S
C1489  N1188   1.427   1_565 S
C1490  O1545   1.305   .     A
C1490  O1547   1.299   .     A
C1491  O1546   1.301   .     A
C1491  O1548   1.299   .     A
C1492  N1534   1.423   .     S
Cu1493 O1544   1.984   .     S
Cu1493 O1545   1.961   .     S
Cu1493 N1533   2.033   .     S
Cu1493 O1548   1.955   .     S
Cu1493 Cu1494  2.706   .     S
Cu1493 O1541   1.989   .     S
Cu1494 O1543   1.984   .     S
Cu1494 O1546   1.961   .     S
Cu1494 O1542   1.989   .     S
Cu1494 N1531   2.033   .     S
Cu1494 O1547   1.955   .     S
H1497  N1192   1.027   1_565 S
H1498  C448    1.105   1_556 S
H1501  N1537   1.031   .     S
H1505  N1538   1.021   .     S
H1507  C1396   1.110   1_655 S
H1509  C1396   1.098   1_655 S
H1510  N1539   1.029   .     S
H1511  C1397   1.110   1_655 S
H1514  N1540   1.029   .     S
H1517  N1534   1.028   .     S
H1519  N1532   1.031   .     S
H1521  C1142   1.109   1_565 S
H1523  N499    1.028   1_556 S
H1528  N1535   1.031   .     S
N1533  N499    1.285   1_556 S
N1533  H492    1.029   1_556 S
N1539  C1053   1.451   1_665 S
N1540  C1144   1.427   1_565 S
