data_str_m2_o1_o2_pcu_sym.124
_audit_creation_date              2020-01-03
_audit_creation_method            'Materials Studio'
_symmetry_space_group_name_H-M    'P1'
_symmetry_Int_Tables_number       1
_symmetry_cell_setting            triclinic
loop_
_symmetry_equiv_pos_as_xyz
  x,y,z
_cell_length_a                    32.5601
_cell_length_b                    29.0552
_cell_length_c                    30.2779
_cell_angle_alpha                 90.0001
_cell_angle_beta                  101.3353
_cell_angle_gamma                 90.0000
loop_
_atom_site_label
_atom_site_type_symbol
_atom_site_fract_x
_atom_site_fract_y
_atom_site_fract_z
_atom_site_U_iso_or_equiv
_atom_site_adp_type
_atom_site_occupancy
C1     C     0.08758   0.16655   0.25074   0.00000  Uiso   1.00
C2     C     0.24575   0.16655   0.24926   0.00000  Uiso   1.00
C3     C     0.17159   0.16673   0.16631   0.00000  Uiso   1.00
C4     C     0.16174   0.16673   0.33369   0.00000  Uiso   1.00
C5     C     0.13734   0.02534   0.21853   0.00000  Uiso   1.00
C6     C     0.19654   0.30833   0.28097   0.00000  Uiso   1.00
C7     C     0.19599   0.02534   0.28147   0.00000  Uiso   1.00
C8     C     0.13679   0.30833   0.21903   0.00000  Uiso   1.00
C9     C     0.02126   0.12413   0.24978   0.00000  Uiso   1.00
C10    C     0.31185   0.20744   0.24798   0.00000  Uiso   1.00
C11    C     0.31207   0.12413   0.25022   0.00000  Uiso   1.00
C12    C     0.02148   0.20744   0.25202   0.00000  Uiso   1.00
C13    C     0.16648   0.20769   0.04864   0.00000  Uiso   1.00
C14    C     0.15040   0.12676   0.44988   0.00000  Uiso   1.00
C15    C     0.16686   0.20769   0.45136   0.00000  Uiso   1.00
C16    C     0.18293   0.12676   0.05012   0.00000  Uiso   1.00
C17    C     0.17661   0.20899   0.09529   0.00000  Uiso   1.00
C18    C     0.14430   0.12691   0.40268   0.00000  Uiso   1.00
C19    C     0.15673   0.20899   0.40471   0.00000  Uiso   1.00
C20    C     0.18903   0.12691   0.09732   0.00000  Uiso   1.00
C21    C     0.17959   0.16735   0.11961   0.00000  Uiso   1.00
C22    C     0.15374   0.16735   0.38039   0.00000  Uiso   1.00
C23    C     0.16962   0.16663   0.02505   0.00000  Uiso   1.00
C24    C     0.16371   0.16663   0.47495   0.00000  Uiso   1.00
C25    C     0.29038   0.16600   0.24893   0.00000  Uiso   1.00
C26    C     0.04295   0.16600   0.25107   0.00000  Uiso   1.00
Cu27   Cu    0.16667   0.21355   0.25000   0.00000  Uiso   1.00
Cu28   Cu    0.16667   0.11978   0.25000   0.00000  Uiso   1.00
H29    H     0.15874   0.24003   0.03161   0.00000  Uiso   1.00
H30    H     0.14262   0.09618   0.46688   0.00000  Uiso   1.00
H31    H     0.17459   0.24003   0.46839   0.00000  Uiso   1.00
H32    H     0.19072   0.09618   0.03312   0.00000  Uiso   1.00
H33    H     0.03716   0.09145   0.24929   0.00000  Uiso   1.00
H34    H     0.29559   0.23985   0.24404   0.00000  Uiso   1.00
H35    H     0.29617   0.09145   0.25071   0.00000  Uiso   1.00
H36    H     0.03774   0.23985   0.25596   0.00000  Uiso   1.00
N37    N     0.16667   0.28402   0.25000   0.00000  Uiso   1.00
N38    N     0.16667   0.04931   0.25000   0.00000  Uiso   1.00
O39    O     0.10655   0.20625   0.25000   0.00000  Uiso   1.00
O40    O     0.22679   0.12709   0.25001   0.00000  Uiso   1.00
O41    O     0.22679   0.20625   0.25001   0.00000  Uiso   1.00
O42    O     0.10655   0.12709   0.25000   0.00000  Uiso   1.00
O43    O     0.16666   0.20626   0.18573   0.00000  Uiso   1.00
O44    O     0.16667   0.12707   0.31427   0.00000  Uiso   1.00
O45    O     0.16667   0.20626   0.31427   0.00000  Uiso   1.00
O46    O     0.16666   0.12707   0.18573   0.00000  Uiso   1.00
S47    S     0.10005   0.05538   0.17381   0.00000  Uiso   1.00
O48    O     0.11244   0.04408   0.12980   0.00000  Uiso   1.00
O49    O     0.05667   0.03754   0.17306   0.00000  Uiso   1.00
O50    O     0.09287   0.11244   0.17133   0.00000  Uiso   1.00
H51    H     0.07262   0.11822   0.14288   0.00000  Uiso   1.00
S52    S     0.24027   0.27900   0.31874   0.00000  Uiso   1.00
O53    O     0.27861   0.28824   0.29962   0.00000  Uiso   1.00
O54    O     0.24783   0.29855   0.36541   0.00000  Uiso   1.00
O55    O     0.24014   0.22242   0.32915   0.00000  Uiso   1.00
H56    H     0.26905   0.21493   0.34479   0.00000  Uiso   1.00
S57    S     0.23329   0.05538   0.32619   0.00000  Uiso   1.00
O58    O     0.22089   0.04408   0.37020   0.00000  Uiso   1.00
O59    O     0.27667   0.03754   0.32694   0.00000  Uiso   1.00
O60    O     0.24047   0.11244   0.32867   0.00000  Uiso   1.00
H61    H     0.26072   0.11822   0.35713   0.00000  Uiso   1.00
S62    S     0.09306   0.27900   0.18126   0.00000  Uiso   1.00
O63    O     0.05472   0.28824   0.20038   0.00000  Uiso   1.00
O64    O     0.08550   0.29855   0.13459   0.00000  Uiso   1.00
O65    O     0.09319   0.22242   0.17085   0.00000  Uiso   1.00
H66    H     0.06428   0.21493   0.15521   0.00000  Uiso   1.00
S67    S     0.19976   0.26080   0.11908   0.00000  Uiso   1.00
O68    O     0.16658   0.29263   0.12890   0.00000  Uiso   1.00
O69    O     0.23124   0.25190   0.16165   0.00000  Uiso   1.00
O70    O     0.22414   0.28667   0.08172   0.00000  Uiso   1.00
H71    H     0.24711   0.26545   0.07829   0.00000  Uiso   1.00
S72    S     0.11205   0.08314   0.37335   0.00000  Uiso   1.00
O73    O     0.07847   0.10542   0.33895   0.00000  Uiso   1.00
O74    O     0.13670   0.05091   0.34997   0.00000  Uiso   1.00
O75    O     0.08927   0.05283   0.40931   0.00000  Uiso   1.00
H76    H     0.06627   0.03564   0.38995   0.00000  Uiso   1.00
S77    S     0.13357   0.26081   0.38092   0.00000  Uiso   1.00
O78    O     0.16675   0.29263   0.37110   0.00000  Uiso   1.00
O79    O     0.10209   0.25190   0.33835   0.00000  Uiso   1.00
O80    O     0.10919   0.28668   0.41828   0.00000  Uiso   1.00
H81    H     0.08622   0.26545   0.42171   0.00000  Uiso   1.00
S82    S     0.22128   0.08314   0.12665   0.00000  Uiso   1.00
O83    O     0.25486   0.10542   0.16105   0.00000  Uiso   1.00
O84    O     0.19664   0.05091   0.15003   0.00000  Uiso   1.00
O85    O     0.24406   0.05283   0.09069   0.00000  Uiso   1.00
H86    H     0.26706   0.03564   0.11005   0.00000  Uiso   1.00
C87    C     0.42091   0.16655   0.25074   0.00000  Uiso   1.00
C88    C     0.57909   0.16655   0.24926   0.00000  Uiso   1.00
C89    C     0.50493   0.16673   0.16631   0.00000  Uiso   1.00
C90    C     0.49507   0.16673   0.33369   0.00000  Uiso   1.00
C91    C     0.47068   0.02534   0.21853   0.00000  Uiso   1.00
C92    C     0.52988   0.30833   0.28097   0.00000  Uiso   1.00
C93    C     0.52932   0.02534   0.28147   0.00000  Uiso   1.00
C94    C     0.47012   0.30833   0.21903   0.00000  Uiso   1.00
C95    C     0.35459   0.12413   0.24978   0.00000  Uiso   1.00
C96    C     0.64519   0.20744   0.24798   0.00000  Uiso   1.00
C97    C     0.64541   0.12413   0.25022   0.00000  Uiso   1.00
C98    C     0.35481   0.20744   0.25202   0.00000  Uiso   1.00
C99    C     0.49981   0.20769   0.04864   0.00000  Uiso   1.00
C100   C     0.48374   0.12676   0.44988   0.00000  Uiso   1.00
C101   C     0.50019   0.20769   0.45136   0.00000  Uiso   1.00
C102   C     0.51626   0.12676   0.05012   0.00000  Uiso   1.00
C103   C     0.50994   0.20899   0.09529   0.00000  Uiso   1.00
C104   C     0.47763   0.12691   0.40268   0.00000  Uiso   1.00
C105   C     0.49006   0.20899   0.40471   0.00000  Uiso   1.00
C106   C     0.52236   0.12691   0.09732   0.00000  Uiso   1.00
C107   C     0.51293   0.16735   0.11961   0.00000  Uiso   1.00
C108   C     0.48707   0.16735   0.38039   0.00000  Uiso   1.00
C109   C     0.50295   0.16663   0.02505   0.00000  Uiso   1.00
C110   C     0.49704   0.16663   0.47495   0.00000  Uiso   1.00
C111   C     0.62371   0.16600   0.24893   0.00000  Uiso   1.00
C112   C     0.37628   0.16600   0.25107   0.00000  Uiso   1.00
Cu113  Cu    0.50000   0.21355   0.25000   0.00000  Uiso   1.00
Cu114  Cu    0.50000   0.11978   0.25000   0.00000  Uiso   1.00
H115   H     0.49208   0.24003   0.03161   0.00000  Uiso   1.00
H116   H     0.47595   0.09618   0.46688   0.00000  Uiso   1.00
H117   H     0.50792   0.24003   0.46839   0.00000  Uiso   1.00
H118   H     0.52405   0.09618   0.03312   0.00000  Uiso   1.00
H119   H     0.37050   0.09145   0.24929   0.00000  Uiso   1.00
H120   H     0.62893   0.23985   0.24404   0.00000  Uiso   1.00
H121   H     0.62950   0.09145   0.25071   0.00000  Uiso   1.00
H122   H     0.37107   0.23985   0.25596   0.00000  Uiso   1.00
N123   N     0.50000   0.28402   0.25000   0.00000  Uiso   1.00
N124   N     0.50000   0.04931   0.25000   0.00000  Uiso   1.00
O125   O     0.43988   0.20625   0.25000   0.00000  Uiso   1.00
O126   O     0.56012   0.12709   0.25001   0.00000  Uiso   1.00
O127   O     0.56012   0.20625   0.25001   0.00000  Uiso   1.00
O128   O     0.43988   0.12709   0.25000   0.00000  Uiso   1.00
O129   O     0.50000   0.20626   0.18573   0.00000  Uiso   1.00
O130   O     0.50000   0.12707   0.31427   0.00000  Uiso   1.00
O131   O     0.50000   0.20626   0.31427   0.00000  Uiso   1.00
O132   O     0.50000   0.12707   0.18573   0.00000  Uiso   1.00
S133   S     0.43338   0.05538   0.17381   0.00000  Uiso   1.00
O134   O     0.44578   0.04408   0.12980   0.00000  Uiso   1.00
O135   O     0.39000   0.03754   0.17306   0.00000  Uiso   1.00
O136   O     0.42620   0.11244   0.17133   0.00000  Uiso   1.00
H137   H     0.40595   0.11822   0.14288   0.00000  Uiso   1.00
S138   S     0.57360   0.27900   0.31874   0.00000  Uiso   1.00
O139   O     0.61194   0.28824   0.29962   0.00000  Uiso   1.00
O140   O     0.58116   0.29855   0.36541   0.00000  Uiso   1.00
O141   O     0.57347   0.22242   0.32915   0.00000  Uiso   1.00
H142   H     0.60238   0.21493   0.34479   0.00000  Uiso   1.00
S143   S     0.56662   0.05538   0.32619   0.00000  Uiso   1.00
O144   O     0.55422   0.04408   0.37020   0.00000  Uiso   1.00
O145   O     0.61000   0.03754   0.32694   0.00000  Uiso   1.00
O146   O     0.57380   0.11244   0.32867   0.00000  Uiso   1.00
H147   H     0.59405   0.11822   0.35713   0.00000  Uiso   1.00
S148   S     0.42640   0.27900   0.18126   0.00000  Uiso   1.00
O149   O     0.38806   0.28824   0.20038   0.00000  Uiso   1.00
O150   O     0.41884   0.29855   0.13459   0.00000  Uiso   1.00
O151   O     0.42653   0.22242   0.17085   0.00000  Uiso   1.00
H152   H     0.39762   0.21493   0.15521   0.00000  Uiso   1.00
S153   S     0.53309   0.26080   0.11908   0.00000  Uiso   1.00
O154   O     0.49991   0.29263   0.12890   0.00000  Uiso   1.00
O155   O     0.56457   0.25190   0.16165   0.00000  Uiso   1.00
O156   O     0.55747   0.28667   0.08172   0.00000  Uiso   1.00
H157   H     0.58045   0.26545   0.07829   0.00000  Uiso   1.00
S158   S     0.44539   0.08314   0.37335   0.00000  Uiso   1.00
O159   O     0.41180   0.10542   0.33895   0.00000  Uiso   1.00
O160   O     0.47003   0.05091   0.34997   0.00000  Uiso   1.00
O161   O     0.42261   0.05283   0.40931   0.00000  Uiso   1.00
H162   H     0.39960   0.03564   0.38995   0.00000  Uiso   1.00
S163   S     0.46691   0.26081   0.38092   0.00000  Uiso   1.00
O164   O     0.50009   0.29263   0.37110   0.00000  Uiso   1.00
O165   O     0.43543   0.25190   0.33835   0.00000  Uiso   1.00
O166   O     0.44253   0.28668   0.41828   0.00000  Uiso   1.00
H167   H     0.41955   0.26545   0.42171   0.00000  Uiso   1.00
S168   S     0.55461   0.08314   0.12665   0.00000  Uiso   1.00
O169   O     0.58820   0.10542   0.16105   0.00000  Uiso   1.00
O170   O     0.52997   0.05091   0.15003   0.00000  Uiso   1.00
O171   O     0.57739   0.05283   0.09069   0.00000  Uiso   1.00
H172   H     0.60040   0.03564   0.11005   0.00000  Uiso   1.00
C173   C     0.75425   0.16655   0.25074   0.00000  Uiso   1.00
C174   C     0.91242   0.16655   0.24926   0.00000  Uiso   1.00
C175   C     0.83826   0.16673   0.16631   0.00000  Uiso   1.00
C176   C     0.82841   0.16673   0.33369   0.00000  Uiso   1.00
C177   C     0.80401   0.02534   0.21853   0.00000  Uiso   1.00
C178   C     0.86321   0.30833   0.28097   0.00000  Uiso   1.00
C179   C     0.86266   0.02534   0.28147   0.00000  Uiso   1.00
C180   C     0.80346   0.30833   0.21903   0.00000  Uiso   1.00
C181   C     0.68793   0.12413   0.24978   0.00000  Uiso   1.00
C182   C     0.97852   0.20744   0.24798   0.00000  Uiso   1.00
C183   C     0.97874   0.12413   0.25022   0.00000  Uiso   1.00
C184   C     0.68815   0.20744   0.25202   0.00000  Uiso   1.00
C185   C     0.83314   0.20769   0.04864   0.00000  Uiso   1.00
C186   C     0.81707   0.12676   0.44988   0.00000  Uiso   1.00
C187   C     0.83352   0.20769   0.45136   0.00000  Uiso   1.00
C188   C     0.84960   0.12676   0.05012   0.00000  Uiso   1.00
C189   C     0.84327   0.20899   0.09529   0.00000  Uiso   1.00
C190   C     0.81097   0.12691   0.40268   0.00000  Uiso   1.00
C191   C     0.82339   0.20899   0.40471   0.00000  Uiso   1.00
C192   C     0.85570   0.12691   0.09732   0.00000  Uiso   1.00
C193   C     0.84626   0.16735   0.11961   0.00000  Uiso   1.00
C194   C     0.82041   0.16735   0.38039   0.00000  Uiso   1.00
C195   C     0.83629   0.16663   0.02505   0.00000  Uiso   1.00
C196   C     0.83038   0.16663   0.47495   0.00000  Uiso   1.00
C197   C     0.95705   0.16600   0.24893   0.00000  Uiso   1.00
C198   C     0.70962   0.16600   0.25107   0.00000  Uiso   1.00
Cu199  Cu    0.83333   0.21355   0.25000   0.00000  Uiso   1.00
Cu200  Cu    0.83333   0.11978   0.25000   0.00000  Uiso   1.00
H201   H     0.82541   0.24003   0.03161   0.00000  Uiso   1.00
H202   H     0.80928   0.09618   0.46688   0.00000  Uiso   1.00
H203   H     0.84126   0.24003   0.46839   0.00000  Uiso   1.00
H204   H     0.85738   0.09618   0.03312   0.00000  Uiso   1.00
H205   H     0.70383   0.09145   0.24929   0.00000  Uiso   1.00
H206   H     0.96226   0.23985   0.24404   0.00000  Uiso   1.00
H207   H     0.96284   0.09145   0.25071   0.00000  Uiso   1.00
H208   H     0.70441   0.23985   0.25596   0.00000  Uiso   1.00
N209   N     0.83333   0.28402   0.25000   0.00000  Uiso   1.00
N210   N     0.83333   0.04931   0.25000   0.00000  Uiso   1.00
O211   O     0.77321   0.20625   0.25000   0.00000  Uiso   1.00
O212   O     0.89345   0.12709   0.25001   0.00000  Uiso   1.00
O213   O     0.89345   0.20625   0.25001   0.00000  Uiso   1.00
O214   O     0.77321   0.12709   0.25000   0.00000  Uiso   1.00
O215   O     0.83333   0.20626   0.18573   0.00000  Uiso   1.00
O216   O     0.83334   0.12707   0.31427   0.00000  Uiso   1.00
O217   O     0.83334   0.20626   0.31427   0.00000  Uiso   1.00
O218   O     0.83333   0.12707   0.18573   0.00000  Uiso   1.00
S219   S     0.76671   0.05538   0.17381   0.00000  Uiso   1.00
O220   O     0.77911   0.04408   0.12980   0.00000  Uiso   1.00
O221   O     0.72333   0.03754   0.17306   0.00000  Uiso   1.00
O222   O     0.75953   0.11244   0.17133   0.00000  Uiso   1.00
H223   H     0.73928   0.11822   0.14288   0.00000  Uiso   1.00
S224   S     0.90694   0.27900   0.31874   0.00000  Uiso   1.00
O225   O     0.94527   0.28824   0.29962   0.00000  Uiso   1.00
O226   O     0.91450   0.29855   0.36541   0.00000  Uiso   1.00
O227   O     0.90681   0.22242   0.32915   0.00000  Uiso   1.00
H228   H     0.93572   0.21493   0.34479   0.00000  Uiso   1.00
S229   S     0.89995   0.05538   0.32619   0.00000  Uiso   1.00
O230   O     0.88756   0.04408   0.37020   0.00000  Uiso   1.00
O231   O     0.94333   0.03754   0.32694   0.00000  Uiso   1.00
O232   O     0.90713   0.11244   0.32867   0.00000  Uiso   1.00
H233   H     0.92738   0.11822   0.35713   0.00000  Uiso   1.00
S234   S     0.75973   0.27900   0.18126   0.00000  Uiso   1.00
O235   O     0.72139   0.28824   0.20038   0.00000  Uiso   1.00
O236   O     0.75217   0.29855   0.13459   0.00000  Uiso   1.00
O237   O     0.75986   0.22242   0.17085   0.00000  Uiso   1.00
H238   H     0.73095   0.21493   0.15521   0.00000  Uiso   1.00
S239   S     0.86643   0.26080   0.11908   0.00000  Uiso   1.00
O240   O     0.83325   0.29263   0.12890   0.00000  Uiso   1.00
O241   O     0.89791   0.25190   0.16165   0.00000  Uiso   1.00
O242   O     0.89081   0.28667   0.08172   0.00000  Uiso   1.00
H243   H     0.91378   0.26545   0.07829   0.00000  Uiso   1.00
S244   S     0.77872   0.08314   0.37335   0.00000  Uiso   1.00
O245   O     0.74514   0.10542   0.33895   0.00000  Uiso   1.00
O246   O     0.80336   0.05091   0.34997   0.00000  Uiso   1.00
O247   O     0.75594   0.05283   0.40931   0.00000  Uiso   1.00
H248   H     0.73294   0.03564   0.38995   0.00000  Uiso   1.00
S249   S     0.80024   0.26081   0.38092   0.00000  Uiso   1.00
O250   O     0.83342   0.29263   0.37110   0.00000  Uiso   1.00
O251   O     0.76876   0.25190   0.33835   0.00000  Uiso   1.00
O252   O     0.77586   0.28668   0.41828   0.00000  Uiso   1.00
H253   H     0.75289   0.26545   0.42171   0.00000  Uiso   1.00
S254   S     0.88795   0.08314   0.12665   0.00000  Uiso   1.00
O255   O     0.92153   0.10542   0.16105   0.00000  Uiso   1.00
O256   O     0.86330   0.05091   0.15003   0.00000  Uiso   1.00
O257   O     0.91072   0.05283   0.09069   0.00000  Uiso   1.00
H258   H     0.93373   0.03564   0.11005   0.00000  Uiso   1.00
C259   C     0.08758   0.49988   0.25074   0.00000  Uiso   1.00
C260   C     0.24575   0.49988   0.24926   0.00000  Uiso   1.00
C261   C     0.17159   0.50006   0.16631   0.00000  Uiso   1.00
C262   C     0.16174   0.50006   0.33369   0.00000  Uiso   1.00
C263   C     0.13734   0.35868   0.21853   0.00000  Uiso   1.00
C264   C     0.19654   0.64167   0.28097   0.00000  Uiso   1.00
C265   C     0.19599   0.35868   0.28147   0.00000  Uiso   1.00
C266   C     0.13679   0.64167   0.21903   0.00000  Uiso   1.00
C267   C     0.02126   0.45747   0.24978   0.00000  Uiso   1.00
C268   C     0.31185   0.54077   0.24798   0.00000  Uiso   1.00
C269   C     0.31207   0.45747   0.25022   0.00000  Uiso   1.00
C270   C     0.02148   0.54077   0.25202   0.00000  Uiso   1.00
C271   C     0.16648   0.54102   0.04864   0.00000  Uiso   1.00
C272   C     0.15040   0.46009   0.44988   0.00000  Uiso   1.00
C273   C     0.16686   0.54102   0.45136   0.00000  Uiso   1.00
C274   C     0.18293   0.46009   0.05012   0.00000  Uiso   1.00
C275   C     0.17661   0.54232   0.09529   0.00000  Uiso   1.00
C276   C     0.14430   0.46024   0.40268   0.00000  Uiso   1.00
C277   C     0.15673   0.54232   0.40471   0.00000  Uiso   1.00
C278   C     0.18903   0.46024   0.09732   0.00000  Uiso   1.00
C279   C     0.17959   0.50068   0.11961   0.00000  Uiso   1.00
C280   C     0.15374   0.50068   0.38039   0.00000  Uiso   1.00
C281   C     0.16962   0.49997   0.02505   0.00000  Uiso   1.00
C282   C     0.16371   0.49997   0.47495   0.00000  Uiso   1.00
C283   C     0.29038   0.49933   0.24893   0.00000  Uiso   1.00
C284   C     0.04295   0.49933   0.25107   0.00000  Uiso   1.00
Cu285  Cu    0.16667   0.54689   0.25000   0.00000  Uiso   1.00
Cu286  Cu    0.16667   0.45311   0.25000   0.00000  Uiso   1.00
H287   H     0.15874   0.57337   0.03161   0.00000  Uiso   1.00
H288   H     0.14262   0.42951   0.46688   0.00000  Uiso   1.00
H289   H     0.17459   0.57337   0.46839   0.00000  Uiso   1.00
H290   H     0.19072   0.42951   0.03312   0.00000  Uiso   1.00
H291   H     0.03716   0.42479   0.24929   0.00000  Uiso   1.00
H292   H     0.29559   0.57319   0.24404   0.00000  Uiso   1.00
H293   H     0.29617   0.42479   0.25071   0.00000  Uiso   1.00
H294   H     0.03774   0.57319   0.25596   0.00000  Uiso   1.00
N295   N     0.16667   0.61736   0.25000   0.00000  Uiso   1.00
N296   N     0.16667   0.38264   0.25000   0.00000  Uiso   1.00
O297   O     0.10655   0.53958   0.25000   0.00000  Uiso   1.00
O298   O     0.22679   0.46042   0.25001   0.00000  Uiso   1.00
O299   O     0.22679   0.53958   0.25001   0.00000  Uiso   1.00
O300   O     0.10655   0.46042   0.25000   0.00000  Uiso   1.00
O301   O     0.16666   0.53959   0.18573   0.00000  Uiso   1.00
O302   O     0.16667   0.46041   0.31427   0.00000  Uiso   1.00
O303   O     0.16667   0.53959   0.31427   0.00000  Uiso   1.00
O304   O     0.16666   0.46041   0.18573   0.00000  Uiso   1.00
S305   S     0.10005   0.38871   0.17381   0.00000  Uiso   1.00
O306   O     0.11244   0.37742   0.12980   0.00000  Uiso   1.00
O307   O     0.05667   0.37088   0.17306   0.00000  Uiso   1.00
O308   O     0.09287   0.44577   0.17133   0.00000  Uiso   1.00
H309   H     0.07262   0.45156   0.14288   0.00000  Uiso   1.00
S310   S     0.24027   0.61233   0.31874   0.00000  Uiso   1.00
O311   O     0.27861   0.62157   0.29962   0.00000  Uiso   1.00
O312   O     0.24783   0.63189   0.36541   0.00000  Uiso   1.00
O313   O     0.24014   0.55576   0.32915   0.00000  Uiso   1.00
H314   H     0.26905   0.54827   0.34479   0.00000  Uiso   1.00
S315   S     0.23329   0.38871   0.32619   0.00000  Uiso   1.00
O316   O     0.22089   0.37742   0.37020   0.00000  Uiso   1.00
O317   O     0.27667   0.37088   0.32694   0.00000  Uiso   1.00
O318   O     0.24047   0.44577   0.32867   0.00000  Uiso   1.00
H319   H     0.26072   0.45156   0.35713   0.00000  Uiso   1.00
S320   S     0.09306   0.61233   0.18126   0.00000  Uiso   1.00
O321   O     0.05472   0.62157   0.20038   0.00000  Uiso   1.00
O322   O     0.08550   0.63188   0.13459   0.00000  Uiso   1.00
O323   O     0.09319   0.55576   0.17085   0.00000  Uiso   1.00
H324   H     0.06428   0.54827   0.15521   0.00000  Uiso   1.00
S325   S     0.19976   0.59414   0.11908   0.00000  Uiso   1.00
O326   O     0.16658   0.62596   0.12890   0.00000  Uiso   1.00
O327   O     0.23124   0.58523   0.16165   0.00000  Uiso   1.00
O328   O     0.22414   0.62001   0.08172   0.00000  Uiso   1.00
H329   H     0.24711   0.59878   0.07829   0.00000  Uiso   1.00
S330   S     0.11205   0.41647   0.37335   0.00000  Uiso   1.00
O331   O     0.07847   0.43875   0.33895   0.00000  Uiso   1.00
O332   O     0.13670   0.38425   0.34997   0.00000  Uiso   1.00
O333   O     0.08927   0.38616   0.40931   0.00000  Uiso   1.00
H334   H     0.06627   0.36897   0.38995   0.00000  Uiso   1.00
S335   S     0.13357   0.59414   0.38092   0.00000  Uiso   1.00
O336   O     0.16675   0.62596   0.37110   0.00000  Uiso   1.00
O337   O     0.10209   0.58523   0.33835   0.00000  Uiso   1.00
O338   O     0.10919   0.62001   0.41828   0.00000  Uiso   1.00
H339   H     0.08622   0.59878   0.42171   0.00000  Uiso   1.00
S340   S     0.22128   0.41647   0.12665   0.00000  Uiso   1.00
O341   O     0.25486   0.43875   0.16105   0.00000  Uiso   1.00
O342   O     0.19664   0.38425   0.15003   0.00000  Uiso   1.00
O343   O     0.24406   0.38616   0.09069   0.00000  Uiso   1.00
H344   H     0.26706   0.36897   0.11005   0.00000  Uiso   1.00
C345   C     0.42091   0.49988   0.25074   0.00000  Uiso   1.00
C346   C     0.57909   0.49988   0.24926   0.00000  Uiso   1.00
C347   C     0.50493   0.50006   0.16631   0.00000  Uiso   1.00
C348   C     0.49507   0.50006   0.33369   0.00000  Uiso   1.00
C349   C     0.47068   0.35868   0.21853   0.00000  Uiso   1.00
C350   C     0.52988   0.64167   0.28097   0.00000  Uiso   1.00
C351   C     0.52932   0.35868   0.28147   0.00000  Uiso   1.00
C352   C     0.47012   0.64167   0.21903   0.00000  Uiso   1.00
C353   C     0.35459   0.45747   0.24978   0.00000  Uiso   1.00
C354   C     0.64519   0.54077   0.24798   0.00000  Uiso   1.00
C355   C     0.64541   0.45747   0.25022   0.00000  Uiso   1.00
C356   C     0.35481   0.54077   0.25202   0.00000  Uiso   1.00
C357   C     0.49981   0.54102   0.04864   0.00000  Uiso   1.00
C358   C     0.48374   0.46009   0.44988   0.00000  Uiso   1.00
C359   C     0.50019   0.54102   0.45136   0.00000  Uiso   1.00
C360   C     0.51626   0.46009   0.05012   0.00000  Uiso   1.00
C361   C     0.50994   0.54232   0.09529   0.00000  Uiso   1.00
C362   C     0.47763   0.46024   0.40268   0.00000  Uiso   1.00
C363   C     0.49006   0.54232   0.40471   0.00000  Uiso   1.00
C364   C     0.52236   0.46024   0.09732   0.00000  Uiso   1.00
C365   C     0.51293   0.50068   0.11961   0.00000  Uiso   1.00
C366   C     0.48707   0.50068   0.38039   0.00000  Uiso   1.00
C367   C     0.50295   0.49997   0.02505   0.00000  Uiso   1.00
C368   C     0.49704   0.49997   0.47495   0.00000  Uiso   1.00
C369   C     0.62371   0.49933   0.24893   0.00000  Uiso   1.00
C370   C     0.37628   0.49933   0.25107   0.00000  Uiso   1.00
Cu371  Cu    0.50000   0.54689   0.25000   0.00000  Uiso   1.00
Cu372  Cu    0.50000   0.45311   0.25000   0.00000  Uiso   1.00
H373   H     0.49208   0.57337   0.03161   0.00000  Uiso   1.00
H374   H     0.47595   0.42951   0.46688   0.00000  Uiso   1.00
H375   H     0.50792   0.57337   0.46839   0.00000  Uiso   1.00
H376   H     0.52405   0.42951   0.03312   0.00000  Uiso   1.00
H377   H     0.37050   0.42479   0.24929   0.00000  Uiso   1.00
H378   H     0.62893   0.57319   0.24404   0.00000  Uiso   1.00
H379   H     0.62950   0.42479   0.25071   0.00000  Uiso   1.00
H380   H     0.37107   0.57319   0.25596   0.00000  Uiso   1.00
N381   N     0.50000   0.61736   0.25000   0.00000  Uiso   1.00
N382   N     0.50000   0.38264   0.25000   0.00000  Uiso   1.00
O383   O     0.43988   0.53958   0.25000   0.00000  Uiso   1.00
O384   O     0.56012   0.46042   0.25001   0.00000  Uiso   1.00
O385   O     0.56012   0.53958   0.25001   0.00000  Uiso   1.00
O386   O     0.43988   0.46042   0.25000   0.00000  Uiso   1.00
O387   O     0.50000   0.53959   0.18573   0.00000  Uiso   1.00
O388   O     0.50000   0.46041   0.31427   0.00000  Uiso   1.00
O389   O     0.50000   0.53959   0.31427   0.00000  Uiso   1.00
O390   O     0.50000   0.46041   0.18573   0.00000  Uiso   1.00
S391   S     0.43338   0.38871   0.17381   0.00000  Uiso   1.00
O392   O     0.44578   0.37742   0.12980   0.00000  Uiso   1.00
O393   O     0.39000   0.37088   0.17306   0.00000  Uiso   1.00
O394   O     0.42620   0.44577   0.17133   0.00000  Uiso   1.00
H395   H     0.40595   0.45156   0.14288   0.00000  Uiso   1.00
S396   S     0.57360   0.61233   0.31874   0.00000  Uiso   1.00
O397   O     0.61194   0.62157   0.29962   0.00000  Uiso   1.00
O398   O     0.58116   0.63189   0.36541   0.00000  Uiso   1.00
O399   O     0.57347   0.55576   0.32915   0.00000  Uiso   1.00
H400   H     0.60238   0.54827   0.34479   0.00000  Uiso   1.00
S401   S     0.56662   0.38871   0.32619   0.00000  Uiso   1.00
O402   O     0.55422   0.37742   0.37020   0.00000  Uiso   1.00
O403   O     0.61000   0.37088   0.32694   0.00000  Uiso   1.00
O404   O     0.57380   0.44577   0.32867   0.00000  Uiso   1.00
H405   H     0.59405   0.45156   0.35713   0.00000  Uiso   1.00
S406   S     0.42640   0.61233   0.18126   0.00000  Uiso   1.00
O407   O     0.38806   0.62157   0.20038   0.00000  Uiso   1.00
O408   O     0.41884   0.63188   0.13459   0.00000  Uiso   1.00
O409   O     0.42653   0.55576   0.17085   0.00000  Uiso   1.00
H410   H     0.39762   0.54827   0.15521   0.00000  Uiso   1.00
S411   S     0.53309   0.59414   0.11908   0.00000  Uiso   1.00
O412   O     0.49991   0.62596   0.12890   0.00000  Uiso   1.00
O413   O     0.56457   0.58523   0.16165   0.00000  Uiso   1.00
O414   O     0.55747   0.62001   0.08172   0.00000  Uiso   1.00
H415   H     0.58045   0.59878   0.07829   0.00000  Uiso   1.00
S416   S     0.44539   0.41647   0.37335   0.00000  Uiso   1.00
O417   O     0.41180   0.43875   0.33895   0.00000  Uiso   1.00
O418   O     0.47003   0.38425   0.34997   0.00000  Uiso   1.00
O419   O     0.42261   0.38616   0.40931   0.00000  Uiso   1.00
H420   H     0.39960   0.36897   0.38995   0.00000  Uiso   1.00
S421   S     0.46691   0.59414   0.38092   0.00000  Uiso   1.00
O422   O     0.50009   0.62596   0.37110   0.00000  Uiso   1.00
O423   O     0.43543   0.58523   0.33835   0.00000  Uiso   1.00
O424   O     0.44253   0.62001   0.41828   0.00000  Uiso   1.00
H425   H     0.41955   0.59878   0.42171   0.00000  Uiso   1.00
S426   S     0.55461   0.41647   0.12665   0.00000  Uiso   1.00
O427   O     0.58820   0.43875   0.16105   0.00000  Uiso   1.00
O428   O     0.52997   0.38425   0.15003   0.00000  Uiso   1.00
O429   O     0.57739   0.38616   0.09069   0.00000  Uiso   1.00
H430   H     0.60040   0.36897   0.11005   0.00000  Uiso   1.00
C431   C     0.75425   0.49988   0.25074   0.00000  Uiso   1.00
C432   C     0.91242   0.49988   0.24926   0.00000  Uiso   1.00
C433   C     0.83826   0.50006   0.16631   0.00000  Uiso   1.00
C434   C     0.82841   0.50006   0.33369   0.00000  Uiso   1.00
C435   C     0.80401   0.35868   0.21853   0.00000  Uiso   1.00
C436   C     0.86321   0.64167   0.28097   0.00000  Uiso   1.00
C437   C     0.86266   0.35868   0.28147   0.00000  Uiso   1.00
C438   C     0.80346   0.64167   0.21903   0.00000  Uiso   1.00
C439   C     0.68793   0.45747   0.24978   0.00000  Uiso   1.00
C440   C     0.97852   0.54077   0.24798   0.00000  Uiso   1.00
C441   C     0.97874   0.45747   0.25022   0.00000  Uiso   1.00
C442   C     0.68815   0.54077   0.25202   0.00000  Uiso   1.00
C443   C     0.83314   0.54102   0.04864   0.00000  Uiso   1.00
C444   C     0.81707   0.46009   0.44988   0.00000  Uiso   1.00
C445   C     0.83352   0.54102   0.45136   0.00000  Uiso   1.00
C446   C     0.84960   0.46009   0.05012   0.00000  Uiso   1.00
C447   C     0.84327   0.54232   0.09529   0.00000  Uiso   1.00
C448   C     0.81097   0.46024   0.40268   0.00000  Uiso   1.00
C449   C     0.82339   0.54232   0.40471   0.00000  Uiso   1.00
C450   C     0.85570   0.46024   0.09732   0.00000  Uiso   1.00
C451   C     0.84626   0.50068   0.11961   0.00000  Uiso   1.00
C452   C     0.82041   0.50068   0.38039   0.00000  Uiso   1.00
C453   C     0.83629   0.49997   0.02505   0.00000  Uiso   1.00
C454   C     0.83038   0.49997   0.47495   0.00000  Uiso   1.00
C455   C     0.95705   0.49933   0.24893   0.00000  Uiso   1.00
C456   C     0.70962   0.49933   0.25107   0.00000  Uiso   1.00
Cu457  Cu    0.83333   0.54689   0.25000   0.00000  Uiso   1.00
Cu458  Cu    0.83333   0.45311   0.25000   0.00000  Uiso   1.00
H459   H     0.82541   0.57337   0.03161   0.00000  Uiso   1.00
H460   H     0.80928   0.42951   0.46688   0.00000  Uiso   1.00
H461   H     0.84126   0.57337   0.46839   0.00000  Uiso   1.00
H462   H     0.85738   0.42951   0.03312   0.00000  Uiso   1.00
H463   H     0.70383   0.42479   0.24929   0.00000  Uiso   1.00
H464   H     0.96226   0.57319   0.24404   0.00000  Uiso   1.00
H465   H     0.96284   0.42479   0.25071   0.00000  Uiso   1.00
H466   H     0.70441   0.57319   0.25596   0.00000  Uiso   1.00
N467   N     0.83333   0.61736   0.25000   0.00000  Uiso   1.00
N468   N     0.83333   0.38264   0.25000   0.00000  Uiso   1.00
O469   O     0.77321   0.53958   0.25000   0.00000  Uiso   1.00
O470   O     0.89345   0.46042   0.25001   0.00000  Uiso   1.00
O471   O     0.89345   0.53958   0.25001   0.00000  Uiso   1.00
O472   O     0.77321   0.46042   0.25000   0.00000  Uiso   1.00
O473   O     0.83333   0.53959   0.18573   0.00000  Uiso   1.00
O474   O     0.83334   0.46041   0.31427   0.00000  Uiso   1.00
O475   O     0.83334   0.53959   0.31427   0.00000  Uiso   1.00
O476   O     0.83333   0.46041   0.18573   0.00000  Uiso   1.00
S477   S     0.76671   0.38871   0.17381   0.00000  Uiso   1.00
O478   O     0.77911   0.37742   0.12980   0.00000  Uiso   1.00
O479   O     0.72333   0.37088   0.17306   0.00000  Uiso   1.00
O480   O     0.75953   0.44577   0.17133   0.00000  Uiso   1.00
H481   H     0.73928   0.45156   0.14288   0.00000  Uiso   1.00
S482   S     0.90694   0.61233   0.31874   0.00000  Uiso   1.00
O483   O     0.94527   0.62157   0.29962   0.00000  Uiso   1.00
O484   O     0.91450   0.63189   0.36541   0.00000  Uiso   1.00
O485   O     0.90681   0.55576   0.32915   0.00000  Uiso   1.00
H486   H     0.93572   0.54827   0.34479   0.00000  Uiso   1.00
S487   S     0.89995   0.38871   0.32619   0.00000  Uiso   1.00
O488   O     0.88756   0.37742   0.37020   0.00000  Uiso   1.00
O489   O     0.94333   0.37088   0.32694   0.00000  Uiso   1.00
O490   O     0.90713   0.44577   0.32867   0.00000  Uiso   1.00
H491   H     0.92738   0.45156   0.35713   0.00000  Uiso   1.00
S492   S     0.75973   0.61233   0.18126   0.00000  Uiso   1.00
O493   O     0.72139   0.62157   0.20038   0.00000  Uiso   1.00
O494   O     0.75217   0.63188   0.13459   0.00000  Uiso   1.00
O495   O     0.75986   0.55576   0.17085   0.00000  Uiso   1.00
H496   H     0.73095   0.54827   0.15521   0.00000  Uiso   1.00
S497   S     0.86643   0.59414   0.11908   0.00000  Uiso   1.00
O498   O     0.83325   0.62596   0.12890   0.00000  Uiso   1.00
O499   O     0.89791   0.58523   0.16165   0.00000  Uiso   1.00
O500   O     0.89081   0.62001   0.08172   0.00000  Uiso   1.00
H501   H     0.91378   0.59878   0.07829   0.00000  Uiso   1.00
S502   S     0.77872   0.41647   0.37335   0.00000  Uiso   1.00
O503   O     0.74514   0.43875   0.33895   0.00000  Uiso   1.00
O504   O     0.80336   0.38425   0.34997   0.00000  Uiso   1.00
O505   O     0.75594   0.38616   0.40931   0.00000  Uiso   1.00
H506   H     0.73294   0.36897   0.38995   0.00000  Uiso   1.00
S507   S     0.80024   0.59414   0.38092   0.00000  Uiso   1.00
O508   O     0.83342   0.62596   0.37110   0.00000  Uiso   1.00
O509   O     0.76876   0.58523   0.33835   0.00000  Uiso   1.00
O510   O     0.77586   0.62001   0.41828   0.00000  Uiso   1.00
H511   H     0.75289   0.59878   0.42171   0.00000  Uiso   1.00
S512   S     0.88795   0.41647   0.12665   0.00000  Uiso   1.00
O513   O     0.92153   0.43875   0.16105   0.00000  Uiso   1.00
O514   O     0.86330   0.38425   0.15003   0.00000  Uiso   1.00
O515   O     0.91072   0.38616   0.09069   0.00000  Uiso   1.00
H516   H     0.93373   0.36897   0.11005   0.00000  Uiso   1.00
C517   C     0.08758   0.83321   0.25074   0.00000  Uiso   1.00
C518   C     0.24575   0.83321   0.24926   0.00000  Uiso   1.00
C519   C     0.17159   0.83339   0.16631   0.00000  Uiso   1.00
C520   C     0.16174   0.83339   0.33369   0.00000  Uiso   1.00
C521   C     0.13734   0.69201   0.21853   0.00000  Uiso   1.00
C522   C     0.19654   0.97500   0.28097   0.00000  Uiso   1.00
C523   C     0.19599   0.69201   0.28147   0.00000  Uiso   1.00
C524   C     0.13679   0.97500   0.21903   0.00000  Uiso   1.00
C525   C     0.02126   0.79080   0.24978   0.00000  Uiso   1.00
C526   C     0.31185   0.87410   0.24798   0.00000  Uiso   1.00
C527   C     0.31207   0.79080   0.25022   0.00000  Uiso   1.00
C528   C     0.02148   0.87410   0.25202   0.00000  Uiso   1.00
C529   C     0.16648   0.87435   0.04864   0.00000  Uiso   1.00
C530   C     0.15040   0.79343   0.44988   0.00000  Uiso   1.00
C531   C     0.16686   0.87435   0.45136   0.00000  Uiso   1.00
C532   C     0.18293   0.79343   0.05012   0.00000  Uiso   1.00
C533   C     0.17661   0.87565   0.09529   0.00000  Uiso   1.00
C534   C     0.14430   0.79358   0.40268   0.00000  Uiso   1.00
C535   C     0.15673   0.87565   0.40471   0.00000  Uiso   1.00
C536   C     0.18903   0.79358   0.09732   0.00000  Uiso   1.00
C537   C     0.17959   0.83401   0.11961   0.00000  Uiso   1.00
C538   C     0.15374   0.83401   0.38039   0.00000  Uiso   1.00
C539   C     0.16962   0.83330   0.02505   0.00000  Uiso   1.00
C540   C     0.16371   0.83330   0.47495   0.00000  Uiso   1.00
C541   C     0.29038   0.83266   0.24893   0.00000  Uiso   1.00
C542   C     0.04295   0.83266   0.25107   0.00000  Uiso   1.00
Cu543  Cu    0.16667   0.88022   0.25000   0.00000  Uiso   1.00
Cu544  Cu    0.16667   0.78645   0.25000   0.00000  Uiso   1.00
H545   H     0.15874   0.90670   0.03161   0.00000  Uiso   1.00
H546   H     0.14262   0.76285   0.46688   0.00000  Uiso   1.00
H547   H     0.17459   0.90670   0.46839   0.00000  Uiso   1.00
H548   H     0.19072   0.76285   0.03312   0.00000  Uiso   1.00
H549   H     0.03716   0.75812   0.24929   0.00000  Uiso   1.00
H550   H     0.29559   0.90652   0.24404   0.00000  Uiso   1.00
H551   H     0.29617   0.75812   0.25071   0.00000  Uiso   1.00
H552   H     0.03774   0.90652   0.25596   0.00000  Uiso   1.00
N553   N     0.16667   0.95069   0.25000   0.00000  Uiso   1.00
N554   N     0.16667   0.71598   0.25000   0.00000  Uiso   1.00
O555   O     0.10655   0.87291   0.25000   0.00000  Uiso   1.00
O556   O     0.22679   0.79375   0.25001   0.00000  Uiso   1.00
O557   O     0.22679   0.87291   0.25001   0.00000  Uiso   1.00
O558   O     0.10655   0.79375   0.25000   0.00000  Uiso   1.00
O559   O     0.16666   0.87293   0.18573   0.00000  Uiso   1.00
O560   O     0.16667   0.79374   0.31427   0.00000  Uiso   1.00
O561   O     0.16667   0.87293   0.31427   0.00000  Uiso   1.00
O562   O     0.16666   0.79374   0.18573   0.00000  Uiso   1.00
S563   S     0.10005   0.72205   0.17381   0.00000  Uiso   1.00
O564   O     0.11244   0.71075   0.12980   0.00000  Uiso   1.00
O565   O     0.05667   0.70421   0.17306   0.00000  Uiso   1.00
O566   O     0.09287   0.77910   0.17133   0.00000  Uiso   1.00
H567   H     0.07262   0.78489   0.14288   0.00000  Uiso   1.00
S568   S     0.24027   0.94566   0.31874   0.00000  Uiso   1.00
O569   O     0.27861   0.95491   0.29962   0.00000  Uiso   1.00
O570   O     0.24783   0.96522   0.36541   0.00000  Uiso   1.00
O571   O     0.24014   0.88909   0.32915   0.00000  Uiso   1.00
H572   H     0.26905   0.88160   0.34479   0.00000  Uiso   1.00
S573   S     0.23329   0.72205   0.32619   0.00000  Uiso   1.00
O574   O     0.22089   0.71075   0.37020   0.00000  Uiso   1.00
O575   O     0.27667   0.70421   0.32694   0.00000  Uiso   1.00
O576   O     0.24047   0.77910   0.32867   0.00000  Uiso   1.00
H577   H     0.26072   0.78489   0.35713   0.00000  Uiso   1.00
S578   S     0.09306   0.94566   0.18126   0.00000  Uiso   1.00
O579   O     0.05472   0.95491   0.20038   0.00000  Uiso   1.00
O580   O     0.08550   0.96522   0.13459   0.00000  Uiso   1.00
O581   O     0.09319   0.88909   0.17085   0.00000  Uiso   1.00
H582   H     0.06428   0.88160   0.15521   0.00000  Uiso   1.00
S583   S     0.19976   0.92747   0.11908   0.00000  Uiso   1.00
O584   O     0.16658   0.95930   0.12890   0.00000  Uiso   1.00
O585   O     0.23124   0.91856   0.16165   0.00000  Uiso   1.00
O586   O     0.22414   0.95334   0.08172   0.00000  Uiso   1.00
H587   H     0.24711   0.93212   0.07829   0.00000  Uiso   1.00
S588   S     0.11205   0.74981   0.37335   0.00000  Uiso   1.00
O589   O     0.07847   0.77209   0.33895   0.00000  Uiso   1.00
O590   O     0.13670   0.71758   0.34997   0.00000  Uiso   1.00
O591   O     0.08927   0.71949   0.40931   0.00000  Uiso   1.00
H592   H     0.06627   0.70231   0.38995   0.00000  Uiso   1.00
S593   S     0.13357   0.92747   0.38092   0.00000  Uiso   1.00
O594   O     0.16675   0.95930   0.37110   0.00000  Uiso   1.00
O595   O     0.10209   0.91857   0.33835   0.00000  Uiso   1.00
O596   O     0.10919   0.95334   0.41828   0.00000  Uiso   1.00
H597   H     0.08622   0.93212   0.42171   0.00000  Uiso   1.00
S598   S     0.22128   0.74981   0.12665   0.00000  Uiso   1.00
O599   O     0.25486   0.77209   0.16105   0.00000  Uiso   1.00
O600   O     0.19664   0.71758   0.15003   0.00000  Uiso   1.00
O601   O     0.24406   0.71949   0.09069   0.00000  Uiso   1.00
H602   H     0.26706   0.70231   0.11005   0.00000  Uiso   1.00
C603   C     0.42091   0.83321   0.25074   0.00000  Uiso   1.00
C604   C     0.57909   0.83321   0.24926   0.00000  Uiso   1.00
C605   C     0.50493   0.83339   0.16631   0.00000  Uiso   1.00
C606   C     0.49507   0.83339   0.33369   0.00000  Uiso   1.00
C607   C     0.47068   0.69201   0.21853   0.00000  Uiso   1.00
C608   C     0.52988   0.97500   0.28097   0.00000  Uiso   1.00
C609   C     0.52932   0.69201   0.28147   0.00000  Uiso   1.00
C610   C     0.47012   0.97500   0.21903   0.00000  Uiso   1.00
C611   C     0.35459   0.79080   0.24978   0.00000  Uiso   1.00
C612   C     0.64519   0.87410   0.24798   0.00000  Uiso   1.00
C613   C     0.64541   0.79080   0.25022   0.00000  Uiso   1.00
C614   C     0.35481   0.87410   0.25202   0.00000  Uiso   1.00
C615   C     0.49981   0.87435   0.04864   0.00000  Uiso   1.00
C616   C     0.48374   0.79343   0.44988   0.00000  Uiso   1.00
C617   C     0.50019   0.87435   0.45136   0.00000  Uiso   1.00
C618   C     0.51626   0.79343   0.05012   0.00000  Uiso   1.00
C619   C     0.50994   0.87565   0.09529   0.00000  Uiso   1.00
C620   C     0.47763   0.79358   0.40268   0.00000  Uiso   1.00
C621   C     0.49006   0.87565   0.40471   0.00000  Uiso   1.00
C622   C     0.52236   0.79358   0.09732   0.00000  Uiso   1.00
C623   C     0.51293   0.83401   0.11961   0.00000  Uiso   1.00
C624   C     0.48707   0.83401   0.38039   0.00000  Uiso   1.00
C625   C     0.50295   0.83330   0.02505   0.00000  Uiso   1.00
C626   C     0.49704   0.83330   0.47495   0.00000  Uiso   1.00
C627   C     0.62371   0.83266   0.24893   0.00000  Uiso   1.00
C628   C     0.37628   0.83266   0.25107   0.00000  Uiso   1.00
Cu629  Cu    0.50000   0.88022   0.25000   0.00000  Uiso   1.00
Cu630  Cu    0.50000   0.78645   0.25000   0.00000  Uiso   1.00
H631   H     0.49208   0.90670   0.03161   0.00000  Uiso   1.00
H632   H     0.47595   0.76285   0.46688   0.00000  Uiso   1.00
H633   H     0.50792   0.90670   0.46839   0.00000  Uiso   1.00
H634   H     0.52405   0.76285   0.03312   0.00000  Uiso   1.00
H635   H     0.37050   0.75812   0.24929   0.00000  Uiso   1.00
H636   H     0.62893   0.90652   0.24404   0.00000  Uiso   1.00
H637   H     0.62950   0.75812   0.25071   0.00000  Uiso   1.00
H638   H     0.37107   0.90652   0.25596   0.00000  Uiso   1.00
N639   N     0.50000   0.95069   0.25000   0.00000  Uiso   1.00
N640   N     0.50000   0.71598   0.25000   0.00000  Uiso   1.00
O641   O     0.43988   0.87291   0.25000   0.00000  Uiso   1.00
O642   O     0.56012   0.79375   0.25001   0.00000  Uiso   1.00
O643   O     0.56012   0.87291   0.25001   0.00000  Uiso   1.00
O644   O     0.43988   0.79375   0.25000   0.00000  Uiso   1.00
O645   O     0.50000   0.87293   0.18573   0.00000  Uiso   1.00
O646   O     0.50000   0.79374   0.31427   0.00000  Uiso   1.00
O647   O     0.50000   0.87293   0.31427   0.00000  Uiso   1.00
O648   O     0.50000   0.79374   0.18573   0.00000  Uiso   1.00
S649   S     0.43338   0.72205   0.17381   0.00000  Uiso   1.00
O650   O     0.44578   0.71075   0.12980   0.00000  Uiso   1.00
O651   O     0.39000   0.70421   0.17306   0.00000  Uiso   1.00
O652   O     0.42620   0.77910   0.17133   0.00000  Uiso   1.00
H653   H     0.40595   0.78489   0.14288   0.00000  Uiso   1.00
S654   S     0.57360   0.94566   0.31874   0.00000  Uiso   1.00
O655   O     0.61194   0.95491   0.29962   0.00000  Uiso   1.00
O656   O     0.58116   0.96522   0.36541   0.00000  Uiso   1.00
O657   O     0.57347   0.88909   0.32915   0.00000  Uiso   1.00
H658   H     0.60238   0.88160   0.34479   0.00000  Uiso   1.00
S659   S     0.56662   0.72205   0.32619   0.00000  Uiso   1.00
O660   O     0.55422   0.71075   0.37020   0.00000  Uiso   1.00
O661   O     0.61000   0.70421   0.32694   0.00000  Uiso   1.00
O662   O     0.57380   0.77910   0.32867   0.00000  Uiso   1.00
H663   H     0.59405   0.78489   0.35713   0.00000  Uiso   1.00
S664   S     0.42640   0.94566   0.18126   0.00000  Uiso   1.00
O665   O     0.38806   0.95491   0.20038   0.00000  Uiso   1.00
O666   O     0.41884   0.96522   0.13459   0.00000  Uiso   1.00
O667   O     0.42653   0.88909   0.17085   0.00000  Uiso   1.00
H668   H     0.39762   0.88160   0.15521   0.00000  Uiso   1.00
S669   S     0.53309   0.92747   0.11908   0.00000  Uiso   1.00
O670   O     0.49991   0.95930   0.12890   0.00000  Uiso   1.00
O671   O     0.56457   0.91856   0.16165   0.00000  Uiso   1.00
O672   O     0.55747   0.95334   0.08172   0.00000  Uiso   1.00
H673   H     0.58045   0.93212   0.07829   0.00000  Uiso   1.00
S674   S     0.44539   0.74981   0.37335   0.00000  Uiso   1.00
O675   O     0.41180   0.77209   0.33895   0.00000  Uiso   1.00
O676   O     0.47003   0.71758   0.34997   0.00000  Uiso   1.00
O677   O     0.42261   0.71949   0.40931   0.00000  Uiso   1.00
H678   H     0.39960   0.70231   0.38995   0.00000  Uiso   1.00
S679   S     0.46691   0.92747   0.38092   0.00000  Uiso   1.00
O680   O     0.50009   0.95930   0.37110   0.00000  Uiso   1.00
O681   O     0.43543   0.91857   0.33835   0.00000  Uiso   1.00
O682   O     0.44253   0.95334   0.41828   0.00000  Uiso   1.00
H683   H     0.41955   0.93212   0.42171   0.00000  Uiso   1.00
S684   S     0.55461   0.74981   0.12665   0.00000  Uiso   1.00
O685   O     0.58820   0.77209   0.16105   0.00000  Uiso   1.00
O686   O     0.52997   0.71758   0.15003   0.00000  Uiso   1.00
O687   O     0.57739   0.71949   0.09069   0.00000  Uiso   1.00
H688   H     0.60040   0.70231   0.11005   0.00000  Uiso   1.00
C689   C     0.75425   0.83321   0.25074   0.00000  Uiso   1.00
C690   C     0.91242   0.83321   0.24926   0.00000  Uiso   1.00
C691   C     0.83826   0.83339   0.16631   0.00000  Uiso   1.00
C692   C     0.82841   0.83339   0.33369   0.00000  Uiso   1.00
C693   C     0.80401   0.69201   0.21853   0.00000  Uiso   1.00
C694   C     0.86321   0.97500   0.28097   0.00000  Uiso   1.00
C695   C     0.86266   0.69201   0.28147   0.00000  Uiso   1.00
C696   C     0.80346   0.97500   0.21903   0.00000  Uiso   1.00
C697   C     0.68793   0.79080   0.24978   0.00000  Uiso   1.00
C698   C     0.97852   0.87410   0.24798   0.00000  Uiso   1.00
C699   C     0.97874   0.79080   0.25022   0.00000  Uiso   1.00
C700   C     0.68815   0.87410   0.25202   0.00000  Uiso   1.00
C701   C     0.83314   0.87435   0.04864   0.00000  Uiso   1.00
C702   C     0.81707   0.79343   0.44988   0.00000  Uiso   1.00
C703   C     0.83352   0.87435   0.45136   0.00000  Uiso   1.00
C704   C     0.84960   0.79343   0.05012   0.00000  Uiso   1.00
C705   C     0.84327   0.87565   0.09529   0.00000  Uiso   1.00
C706   C     0.81097   0.79358   0.40268   0.00000  Uiso   1.00
C707   C     0.82339   0.87565   0.40471   0.00000  Uiso   1.00
C708   C     0.85570   0.79358   0.09732   0.00000  Uiso   1.00
C709   C     0.84626   0.83401   0.11961   0.00000  Uiso   1.00
C710   C     0.82041   0.83401   0.38039   0.00000  Uiso   1.00
C711   C     0.83629   0.83330   0.02505   0.00000  Uiso   1.00
C712   C     0.83038   0.83330   0.47495   0.00000  Uiso   1.00
C713   C     0.95705   0.83266   0.24893   0.00000  Uiso   1.00
C714   C     0.70962   0.83266   0.25107   0.00000  Uiso   1.00
Cu715  Cu    0.83333   0.88022   0.25000   0.00000  Uiso   1.00
Cu716  Cu    0.83333   0.78645   0.25000   0.00000  Uiso   1.00
H717   H     0.82541   0.90670   0.03161   0.00000  Uiso   1.00
H718   H     0.80928   0.76285   0.46688   0.00000  Uiso   1.00
H719   H     0.84126   0.90670   0.46839   0.00000  Uiso   1.00
H720   H     0.85738   0.76285   0.03312   0.00000  Uiso   1.00
H721   H     0.70383   0.75812   0.24929   0.00000  Uiso   1.00
H722   H     0.96226   0.90652   0.24404   0.00000  Uiso   1.00
H723   H     0.96284   0.75812   0.25071   0.00000  Uiso   1.00
H724   H     0.70441   0.90652   0.25596   0.00000  Uiso   1.00
N725   N     0.83333   0.95069   0.25000   0.00000  Uiso   1.00
N726   N     0.83333   0.71598   0.25000   0.00000  Uiso   1.00
O727   O     0.77321   0.87291   0.25000   0.00000  Uiso   1.00
O728   O     0.89345   0.79375   0.25001   0.00000  Uiso   1.00
O729   O     0.89345   0.87291   0.25001   0.00000  Uiso   1.00
O730   O     0.77321   0.79375   0.25000   0.00000  Uiso   1.00
O731   O     0.83333   0.87293   0.18573   0.00000  Uiso   1.00
O732   O     0.83334   0.79374   0.31427   0.00000  Uiso   1.00
O733   O     0.83334   0.87293   0.31427   0.00000  Uiso   1.00
O734   O     0.83333   0.79374   0.18573   0.00000  Uiso   1.00
S735   S     0.76671   0.72205   0.17381   0.00000  Uiso   1.00
O736   O     0.77911   0.71075   0.12980   0.00000  Uiso   1.00
O737   O     0.72333   0.70421   0.17306   0.00000  Uiso   1.00
O738   O     0.75953   0.77910   0.17133   0.00000  Uiso   1.00
H739   H     0.73928   0.78489   0.14288   0.00000  Uiso   1.00
S740   S     0.90694   0.94566   0.31874   0.00000  Uiso   1.00
O741   O     0.94527   0.95491   0.29962   0.00000  Uiso   1.00
O742   O     0.91450   0.96522   0.36541   0.00000  Uiso   1.00
O743   O     0.90681   0.88909   0.32915   0.00000  Uiso   1.00
H744   H     0.93572   0.88160   0.34479   0.00000  Uiso   1.00
S745   S     0.89995   0.72205   0.32619   0.00000  Uiso   1.00
O746   O     0.88756   0.71075   0.37020   0.00000  Uiso   1.00
O747   O     0.94333   0.70421   0.32694   0.00000  Uiso   1.00
O748   O     0.90713   0.77910   0.32867   0.00000  Uiso   1.00
H749   H     0.92738   0.78489   0.35713   0.00000  Uiso   1.00
S750   S     0.75973   0.94566   0.18126   0.00000  Uiso   1.00
O751   O     0.72139   0.95491   0.20038   0.00000  Uiso   1.00
O752   O     0.75217   0.96522   0.13459   0.00000  Uiso   1.00
O753   O     0.75986   0.88909   0.17085   0.00000  Uiso   1.00
H754   H     0.73095   0.88160   0.15521   0.00000  Uiso   1.00
S755   S     0.86643   0.92747   0.11908   0.00000  Uiso   1.00
O756   O     0.83325   0.95930   0.12890   0.00000  Uiso   1.00
O757   O     0.89791   0.91856   0.16165   0.00000  Uiso   1.00
O758   O     0.89081   0.95334   0.08172   0.00000  Uiso   1.00
H759   H     0.91378   0.93212   0.07829   0.00000  Uiso   1.00
S760   S     0.77872   0.74981   0.37335   0.00000  Uiso   1.00
O761   O     0.74514   0.77209   0.33895   0.00000  Uiso   1.00
O762   O     0.80336   0.71758   0.34997   0.00000  Uiso   1.00
O763   O     0.75594   0.71949   0.40931   0.00000  Uiso   1.00
H764   H     0.73294   0.70231   0.38995   0.00000  Uiso   1.00
S765   S     0.80024   0.92747   0.38092   0.00000  Uiso   1.00
O766   O     0.83342   0.95930   0.37110   0.00000  Uiso   1.00
O767   O     0.76876   0.91857   0.33835   0.00000  Uiso   1.00
O768   O     0.77586   0.95334   0.41828   0.00000  Uiso   1.00
H769   H     0.75289   0.93212   0.42171   0.00000  Uiso   1.00
S770   S     0.88795   0.74981   0.12665   0.00000  Uiso   1.00
O771   O     0.92153   0.77209   0.16105   0.00000  Uiso   1.00
O772   O     0.86330   0.71758   0.15003   0.00000  Uiso   1.00
O773   O     0.91072   0.71949   0.09069   0.00000  Uiso   1.00
H774   H     0.93373   0.70231   0.11005   0.00000  Uiso   1.00
C775   C     0.08758   0.16655   0.75074   0.00000  Uiso   1.00
C776   C     0.24575   0.16655   0.74926   0.00000  Uiso   1.00
C777   C     0.17159   0.16673   0.66631   0.00000  Uiso   1.00
C778   C     0.16174   0.16673   0.83369   0.00000  Uiso   1.00
C779   C     0.13734   0.02534   0.71853   0.00000  Uiso   1.00
C780   C     0.19654   0.30833   0.78097   0.00000  Uiso   1.00
C781   C     0.19599   0.02534   0.78147   0.00000  Uiso   1.00
C782   C     0.13679   0.30833   0.71903   0.00000  Uiso   1.00
C783   C     0.02126   0.12413   0.74978   0.00000  Uiso   1.00
C784   C     0.31185   0.20744   0.74798   0.00000  Uiso   1.00
C785   C     0.31207   0.12413   0.75022   0.00000  Uiso   1.00
C786   C     0.02148   0.20744   0.75202   0.00000  Uiso   1.00
C787   C     0.16648   0.20769   0.54864   0.00000  Uiso   1.00
C788   C     0.15040   0.12676   0.94988   0.00000  Uiso   1.00
C789   C     0.16686   0.20769   0.95136   0.00000  Uiso   1.00
C790   C     0.18293   0.12676   0.55012   0.00000  Uiso   1.00
C791   C     0.17661   0.20899   0.59529   0.00000  Uiso   1.00
C792   C     0.14430   0.12691   0.90268   0.00000  Uiso   1.00
C793   C     0.15673   0.20899   0.90471   0.00000  Uiso   1.00
C794   C     0.18903   0.12691   0.59732   0.00000  Uiso   1.00
C795   C     0.17959   0.16735   0.61961   0.00000  Uiso   1.00
C796   C     0.15374   0.16735   0.88039   0.00000  Uiso   1.00
C797   C     0.16962   0.16663   0.52505   0.00000  Uiso   1.00
C798   C     0.16371   0.16663   0.97495   0.00000  Uiso   1.00
C799   C     0.29038   0.16600   0.74893   0.00000  Uiso   1.00
C800   C     0.04295   0.16600   0.75107   0.00000  Uiso   1.00
Cu801  Cu    0.16667   0.21355   0.75000   0.00000  Uiso   1.00
Cu802  Cu    0.16667   0.11978   0.75000   0.00000  Uiso   1.00
H803   H     0.15874   0.24003   0.53161   0.00000  Uiso   1.00
H804   H     0.14262   0.09618   0.96688   0.00000  Uiso   1.00
H805   H     0.17459   0.24003   0.96839   0.00000  Uiso   1.00
H806   H     0.19072   0.09618   0.53312   0.00000  Uiso   1.00
H807   H     0.03716   0.09145   0.74929   0.00000  Uiso   1.00
H808   H     0.29559   0.23985   0.74404   0.00000  Uiso   1.00
H809   H     0.29617   0.09145   0.75071   0.00000  Uiso   1.00
H810   H     0.03774   0.23985   0.75596   0.00000  Uiso   1.00
N811   N     0.16667   0.28402   0.75000   0.00000  Uiso   1.00
N812   N     0.16667   0.04931   0.75000   0.00000  Uiso   1.00
O813   O     0.10655   0.20625   0.75000   0.00000  Uiso   1.00
O814   O     0.22679   0.12709   0.75001   0.00000  Uiso   1.00
O815   O     0.22679   0.20625   0.75001   0.00000  Uiso   1.00
O816   O     0.10655   0.12709   0.75000   0.00000  Uiso   1.00
O817   O     0.16666   0.20626   0.68573   0.00000  Uiso   1.00
O818   O     0.16667   0.12707   0.81427   0.00000  Uiso   1.00
O819   O     0.16667   0.20626   0.81427   0.00000  Uiso   1.00
O820   O     0.16666   0.12707   0.68573   0.00000  Uiso   1.00
S821   S     0.10005   0.05538   0.67381   0.00000  Uiso   1.00
O822   O     0.11244   0.04408   0.62980   0.00000  Uiso   1.00
O823   O     0.05667   0.03754   0.67306   0.00000  Uiso   1.00
O824   O     0.09287   0.11244   0.67133   0.00000  Uiso   1.00
H825   H     0.07262   0.11822   0.64288   0.00000  Uiso   1.00
S826   S     0.24027   0.27900   0.81874   0.00000  Uiso   1.00
O827   O     0.27861   0.28824   0.79962   0.00000  Uiso   1.00
O828   O     0.24783   0.29855   0.86541   0.00000  Uiso   1.00
O829   O     0.24014   0.22242   0.82915   0.00000  Uiso   1.00
H830   H     0.26905   0.21493   0.84479   0.00000  Uiso   1.00
S831   S     0.23329   0.05538   0.82619   0.00000  Uiso   1.00
O832   O     0.22089   0.04408   0.87020   0.00000  Uiso   1.00
O833   O     0.27667   0.03754   0.82694   0.00000  Uiso   1.00
O834   O     0.24047   0.11244   0.82867   0.00000  Uiso   1.00
H835   H     0.26072   0.11822   0.85713   0.00000  Uiso   1.00
S836   S     0.09306   0.27900   0.68126   0.00000  Uiso   1.00
O837   O     0.05472   0.28824   0.70038   0.00000  Uiso   1.00
O838   O     0.08550   0.29855   0.63459   0.00000  Uiso   1.00
O839   O     0.09319   0.22242   0.67085   0.00000  Uiso   1.00
H840   H     0.06428   0.21493   0.65521   0.00000  Uiso   1.00
S841   S     0.19976   0.26080   0.61908   0.00000  Uiso   1.00
O842   O     0.16658   0.29263   0.62890   0.00000  Uiso   1.00
O843   O     0.23124   0.25190   0.66165   0.00000  Uiso   1.00
O844   O     0.22414   0.28667   0.58172   0.00000  Uiso   1.00
H845   H     0.24711   0.26545   0.57829   0.00000  Uiso   1.00
S846   S     0.11205   0.08314   0.87335   0.00000  Uiso   1.00
O847   O     0.07847   0.10542   0.83895   0.00000  Uiso   1.00
O848   O     0.13670   0.05091   0.84997   0.00000  Uiso   1.00
O849   O     0.08927   0.05283   0.90931   0.00000  Uiso   1.00
H850   H     0.06627   0.03564   0.88995   0.00000  Uiso   1.00
S851   S     0.13357   0.26081   0.88092   0.00000  Uiso   1.00
O852   O     0.16675   0.29263   0.87110   0.00000  Uiso   1.00
O853   O     0.10209   0.25190   0.83835   0.00000  Uiso   1.00
O854   O     0.10919   0.28668   0.91828   0.00000  Uiso   1.00
H855   H     0.08622   0.26545   0.92171   0.00000  Uiso   1.00
S856   S     0.22128   0.08314   0.62665   0.00000  Uiso   1.00
O857   O     0.25486   0.10542   0.66105   0.00000  Uiso   1.00
O858   O     0.19664   0.05091   0.65003   0.00000  Uiso   1.00
O859   O     0.24406   0.05283   0.59069   0.00000  Uiso   1.00
H860   H     0.26706   0.03564   0.61005   0.00000  Uiso   1.00
C861   C     0.42091   0.16655   0.75074   0.00000  Uiso   1.00
C862   C     0.57909   0.16655   0.74926   0.00000  Uiso   1.00
C863   C     0.50493   0.16673   0.66631   0.00000  Uiso   1.00
C864   C     0.49507   0.16673   0.83369   0.00000  Uiso   1.00
C865   C     0.47068   0.02534   0.71853   0.00000  Uiso   1.00
C866   C     0.52988   0.30833   0.78097   0.00000  Uiso   1.00
C867   C     0.52932   0.02534   0.78147   0.00000  Uiso   1.00
C868   C     0.47012   0.30833   0.71903   0.00000  Uiso   1.00
C869   C     0.35459   0.12413   0.74978   0.00000  Uiso   1.00
C870   C     0.64519   0.20744   0.74798   0.00000  Uiso   1.00
C871   C     0.64541   0.12413   0.75022   0.00000  Uiso   1.00
C872   C     0.35481   0.20744   0.75202   0.00000  Uiso   1.00
C873   C     0.49981   0.20769   0.54864   0.00000  Uiso   1.00
C874   C     0.48374   0.12676   0.94988   0.00000  Uiso   1.00
C875   C     0.50019   0.20769   0.95136   0.00000  Uiso   1.00
C876   C     0.51626   0.12676   0.55012   0.00000  Uiso   1.00
C877   C     0.50994   0.20899   0.59529   0.00000  Uiso   1.00
C878   C     0.47763   0.12691   0.90268   0.00000  Uiso   1.00
C879   C     0.49006   0.20899   0.90471   0.00000  Uiso   1.00
C880   C     0.52236   0.12691   0.59732   0.00000  Uiso   1.00
C881   C     0.51293   0.16735   0.61961   0.00000  Uiso   1.00
C882   C     0.48707   0.16735   0.88039   0.00000  Uiso   1.00
C883   C     0.50295   0.16663   0.52505   0.00000  Uiso   1.00
C884   C     0.49704   0.16663   0.97495   0.00000  Uiso   1.00
C885   C     0.62371   0.16600   0.74893   0.00000  Uiso   1.00
C886   C     0.37628   0.16600   0.75107   0.00000  Uiso   1.00
Cu887  Cu    0.50000   0.21355   0.75000   0.00000  Uiso   1.00
Cu888  Cu    0.50000   0.11978   0.75000   0.00000  Uiso   1.00
H889   H     0.49208   0.24003   0.53161   0.00000  Uiso   1.00
H890   H     0.47595   0.09618   0.96688   0.00000  Uiso   1.00
H891   H     0.50792   0.24003   0.96839   0.00000  Uiso   1.00
H892   H     0.52405   0.09618   0.53312   0.00000  Uiso   1.00
H893   H     0.37050   0.09145   0.74929   0.00000  Uiso   1.00
H894   H     0.62893   0.23985   0.74404   0.00000  Uiso   1.00
H895   H     0.62950   0.09145   0.75071   0.00000  Uiso   1.00
H896   H     0.37107   0.23985   0.75596   0.00000  Uiso   1.00
N897   N     0.50000   0.28402   0.75000   0.00000  Uiso   1.00
N898   N     0.50000   0.04931   0.75000   0.00000  Uiso   1.00
O899   O     0.43988   0.20625   0.75000   0.00000  Uiso   1.00
O900   O     0.56012   0.12709   0.75001   0.00000  Uiso   1.00
O901   O     0.56012   0.20625   0.75001   0.00000  Uiso   1.00
O902   O     0.43988   0.12709   0.75000   0.00000  Uiso   1.00
O903   O     0.50000   0.20626   0.68573   0.00000  Uiso   1.00
O904   O     0.50000   0.12707   0.81427   0.00000  Uiso   1.00
O905   O     0.50000   0.20626   0.81427   0.00000  Uiso   1.00
O906   O     0.50000   0.12707   0.68573   0.00000  Uiso   1.00
S907   S     0.43338   0.05538   0.67381   0.00000  Uiso   1.00
O908   O     0.44578   0.04408   0.62980   0.00000  Uiso   1.00
O909   O     0.39000   0.03754   0.67306   0.00000  Uiso   1.00
O910   O     0.42620   0.11244   0.67133   0.00000  Uiso   1.00
H911   H     0.40595   0.11822   0.64288   0.00000  Uiso   1.00
S912   S     0.57360   0.27900   0.81874   0.00000  Uiso   1.00
O913   O     0.61194   0.28824   0.79962   0.00000  Uiso   1.00
O914   O     0.58116   0.29855   0.86541   0.00000  Uiso   1.00
O915   O     0.57347   0.22242   0.82915   0.00000  Uiso   1.00
H916   H     0.60238   0.21493   0.84479   0.00000  Uiso   1.00
S917   S     0.56662   0.05538   0.82619   0.00000  Uiso   1.00
O918   O     0.55422   0.04408   0.87020   0.00000  Uiso   1.00
O919   O     0.61000   0.03754   0.82694   0.00000  Uiso   1.00
O920   O     0.57380   0.11244   0.82867   0.00000  Uiso   1.00
H921   H     0.59405   0.11822   0.85713   0.00000  Uiso   1.00
S922   S     0.42640   0.27900   0.68126   0.00000  Uiso   1.00
O923   O     0.38806   0.28824   0.70038   0.00000  Uiso   1.00
O924   O     0.41884   0.29855   0.63459   0.00000  Uiso   1.00
O925   O     0.42653   0.22242   0.67085   0.00000  Uiso   1.00
H926   H     0.39762   0.21493   0.65521   0.00000  Uiso   1.00
S927   S     0.53309   0.26080   0.61908   0.00000  Uiso   1.00
O928   O     0.49991   0.29263   0.62890   0.00000  Uiso   1.00
O929   O     0.56457   0.25190   0.66165   0.00000  Uiso   1.00
O930   O     0.55747   0.28667   0.58172   0.00000  Uiso   1.00
H931   H     0.58045   0.26545   0.57829   0.00000  Uiso   1.00
S932   S     0.44539   0.08314   0.87335   0.00000  Uiso   1.00
O933   O     0.41180   0.10542   0.83895   0.00000  Uiso   1.00
O934   O     0.47003   0.05091   0.84997   0.00000  Uiso   1.00
O935   O     0.42261   0.05283   0.90931   0.00000  Uiso   1.00
H936   H     0.39960   0.03564   0.88995   0.00000  Uiso   1.00
S937   S     0.46691   0.26081   0.88092   0.00000  Uiso   1.00
O938   O     0.50009   0.29263   0.87110   0.00000  Uiso   1.00
O939   O     0.43543   0.25190   0.83835   0.00000  Uiso   1.00
O940   O     0.44253   0.28668   0.91828   0.00000  Uiso   1.00
H941   H     0.41955   0.26545   0.92171   0.00000  Uiso   1.00
S942   S     0.55461   0.08314   0.62665   0.00000  Uiso   1.00
O943   O     0.58820   0.10542   0.66105   0.00000  Uiso   1.00
O944   O     0.52997   0.05091   0.65003   0.00000  Uiso   1.00
O945   O     0.57739   0.05283   0.59069   0.00000  Uiso   1.00
H946   H     0.60040   0.03564   0.61005   0.00000  Uiso   1.00
C947   C     0.75425   0.16655   0.75074   0.00000  Uiso   1.00
C948   C     0.91242   0.16655   0.74926   0.00000  Uiso   1.00
C949   C     0.83826   0.16673   0.66631   0.00000  Uiso   1.00
C950   C     0.82841   0.16673   0.83369   0.00000  Uiso   1.00
C951   C     0.80401   0.02534   0.71853   0.00000  Uiso   1.00
C952   C     0.86321   0.30833   0.78097   0.00000  Uiso   1.00
C953   C     0.86266   0.02534   0.78147   0.00000  Uiso   1.00
C954   C     0.80346   0.30833   0.71903   0.00000  Uiso   1.00
C955   C     0.68793   0.12413   0.74978   0.00000  Uiso   1.00
C956   C     0.97852   0.20744   0.74798   0.00000  Uiso   1.00
C957   C     0.97874   0.12413   0.75022   0.00000  Uiso   1.00
C958   C     0.68815   0.20744   0.75202   0.00000  Uiso   1.00
C959   C     0.83314   0.20769   0.54864   0.00000  Uiso   1.00
C960   C     0.81707   0.12676   0.94988   0.00000  Uiso   1.00
C961   C     0.83352   0.20769   0.95136   0.00000  Uiso   1.00
C962   C     0.84960   0.12676   0.55012   0.00000  Uiso   1.00
C963   C     0.84327   0.20899   0.59529   0.00000  Uiso   1.00
C964   C     0.81097   0.12691   0.90268   0.00000  Uiso   1.00
C965   C     0.82339   0.20899   0.90471   0.00000  Uiso   1.00
C966   C     0.85570   0.12691   0.59732   0.00000  Uiso   1.00
C967   C     0.84626   0.16735   0.61961   0.00000  Uiso   1.00
C968   C     0.82041   0.16735   0.88039   0.00000  Uiso   1.00
C969   C     0.83629   0.16663   0.52505   0.00000  Uiso   1.00
C970   C     0.83038   0.16663   0.97495   0.00000  Uiso   1.00
C971   C     0.95705   0.16600   0.74893   0.00000  Uiso   1.00
C972   C     0.70962   0.16600   0.75107   0.00000  Uiso   1.00
Cu973  Cu    0.83333   0.21355   0.75000   0.00000  Uiso   1.00
Cu974  Cu    0.83333   0.11978   0.75000   0.00000  Uiso   1.00
H975   H     0.82541   0.24003   0.53161   0.00000  Uiso   1.00
H976   H     0.80928   0.09618   0.96688   0.00000  Uiso   1.00
H977   H     0.84126   0.24003   0.96839   0.00000  Uiso   1.00
H978   H     0.85738   0.09618   0.53312   0.00000  Uiso   1.00
H979   H     0.70383   0.09145   0.74929   0.00000  Uiso   1.00
H980   H     0.96226   0.23985   0.74404   0.00000  Uiso   1.00
H981   H     0.96284   0.09145   0.75071   0.00000  Uiso   1.00
H982   H     0.70441   0.23985   0.75596   0.00000  Uiso   1.00
N983   N     0.83333   0.28402   0.75000   0.00000  Uiso   1.00
N984   N     0.83333   0.04931   0.75000   0.00000  Uiso   1.00
O985   O     0.77321   0.20625   0.75000   0.00000  Uiso   1.00
O986   O     0.89345   0.12709   0.75001   0.00000  Uiso   1.00
O987   O     0.89345   0.20625   0.75001   0.00000  Uiso   1.00
O988   O     0.77321   0.12709   0.75000   0.00000  Uiso   1.00
O989   O     0.83333   0.20626   0.68573   0.00000  Uiso   1.00
O990   O     0.83334   0.12707   0.81427   0.00000  Uiso   1.00
O991   O     0.83334   0.20626   0.81427   0.00000  Uiso   1.00
O992   O     0.83333   0.12707   0.68573   0.00000  Uiso   1.00
S993   S     0.76671   0.05538   0.67381   0.00000  Uiso   1.00
O994   O     0.77911   0.04408   0.62980   0.00000  Uiso   1.00
O995   O     0.72333   0.03754   0.67306   0.00000  Uiso   1.00
O996   O     0.75953   0.11244   0.67133   0.00000  Uiso   1.00
H997   H     0.73928   0.11822   0.64288   0.00000  Uiso   1.00
S998   S     0.90694   0.27900   0.81874   0.00000  Uiso   1.00
O999   O     0.94527   0.28824   0.79962   0.00000  Uiso   1.00
O1000  O     0.91450   0.29855   0.86541   0.00000  Uiso   1.00
O1001  O     0.90681   0.22242   0.82915   0.00000  Uiso   1.00
H1002  H     0.93572   0.21493   0.84479   0.00000  Uiso   1.00
S1003  S     0.89995   0.05538   0.82619   0.00000  Uiso   1.00
O1004  O     0.88756   0.04408   0.87020   0.00000  Uiso   1.00
O1005  O     0.94333   0.03754   0.82694   0.00000  Uiso   1.00
O1006  O     0.90713   0.11244   0.82867   0.00000  Uiso   1.00
H1007  H     0.92738   0.11822   0.85713   0.00000  Uiso   1.00
S1008  S     0.75973   0.27900   0.68126   0.00000  Uiso   1.00
O1009  O     0.72139   0.28824   0.70038   0.00000  Uiso   1.00
O1010  O     0.75217   0.29855   0.63459   0.00000  Uiso   1.00
O1011  O     0.75986   0.22242   0.67085   0.00000  Uiso   1.00
H1012  H     0.73095   0.21493   0.65521   0.00000  Uiso   1.00
S1013  S     0.86643   0.26080   0.61908   0.00000  Uiso   1.00
O1014  O     0.83325   0.29263   0.62890   0.00000  Uiso   1.00
O1015  O     0.89791   0.25190   0.66165   0.00000  Uiso   1.00
O1016  O     0.89081   0.28667   0.58172   0.00000  Uiso   1.00
H1017  H     0.91378   0.26545   0.57829   0.00000  Uiso   1.00
S1018  S     0.77872   0.08314   0.87335   0.00000  Uiso   1.00
O1019  O     0.74514   0.10542   0.83895   0.00000  Uiso   1.00
O1020  O     0.80336   0.05091   0.84997   0.00000  Uiso   1.00
O1021  O     0.75594   0.05283   0.90931   0.00000  Uiso   1.00
H1022  H     0.73294   0.03564   0.88995   0.00000  Uiso   1.00
S1023  S     0.80024   0.26081   0.88092   0.00000  Uiso   1.00
O1024  O     0.83342   0.29263   0.87110   0.00000  Uiso   1.00
O1025  O     0.76876   0.25190   0.83835   0.00000  Uiso   1.00
O1026  O     0.77586   0.28668   0.91828   0.00000  Uiso   1.00
H1027  H     0.75289   0.26545   0.92171   0.00000  Uiso   1.00
S1028  S     0.88795   0.08314   0.62665   0.00000  Uiso   1.00
O1029  O     0.92153   0.10542   0.66105   0.00000  Uiso   1.00
O1030  O     0.86330   0.05091   0.65003   0.00000  Uiso   1.00
O1031  O     0.91072   0.05283   0.59069   0.00000  Uiso   1.00
H1032  H     0.93373   0.03564   0.61005   0.00000  Uiso   1.00
C1033  C     0.08758   0.49988   0.75074   0.00000  Uiso   1.00
C1034  C     0.24575   0.49988   0.74926   0.00000  Uiso   1.00
C1035  C     0.17159   0.50006   0.66631   0.00000  Uiso   1.00
C1036  C     0.16174   0.50006   0.83369   0.00000  Uiso   1.00
C1037  C     0.13734   0.35868   0.71853   0.00000  Uiso   1.00
C1038  C     0.19654   0.64167   0.78097   0.00000  Uiso   1.00
C1039  C     0.19599   0.35868   0.78147   0.00000  Uiso   1.00
C1040  C     0.13679   0.64167   0.71903   0.00000  Uiso   1.00
C1041  C     0.02126   0.45747   0.74978   0.00000  Uiso   1.00
C1042  C     0.31185   0.54077   0.74798   0.00000  Uiso   1.00
C1043  C     0.31207   0.45747   0.75022   0.00000  Uiso   1.00
C1044  C     0.02148   0.54077   0.75202   0.00000  Uiso   1.00
C1045  C     0.16648   0.54102   0.54864   0.00000  Uiso   1.00
C1046  C     0.15040   0.46009   0.94988   0.00000  Uiso   1.00
C1047  C     0.16686   0.54102   0.95136   0.00000  Uiso   1.00
C1048  C     0.18293   0.46009   0.55012   0.00000  Uiso   1.00
C1049  C     0.17661   0.54232   0.59529   0.00000  Uiso   1.00
C1050  C     0.14430   0.46024   0.90268   0.00000  Uiso   1.00
C1051  C     0.15673   0.54232   0.90471   0.00000  Uiso   1.00
C1052  C     0.18903   0.46024   0.59732   0.00000  Uiso   1.00
C1053  C     0.17959   0.50068   0.61961   0.00000  Uiso   1.00
C1054  C     0.15374   0.50068   0.88039   0.00000  Uiso   1.00
C1055  C     0.16962   0.49997   0.52505   0.00000  Uiso   1.00
C1056  C     0.16371   0.49997   0.97495   0.00000  Uiso   1.00
C1057  C     0.29038   0.49933   0.74893   0.00000  Uiso   1.00
C1058  C     0.04295   0.49933   0.75107   0.00000  Uiso   1.00
Cu1059 Cu    0.16667   0.54689   0.75000   0.00000  Uiso   1.00
Cu1060 Cu    0.16667   0.45311   0.75000   0.00000  Uiso   1.00
H1061  H     0.15874   0.57337   0.53161   0.00000  Uiso   1.00
H1062  H     0.14262   0.42951   0.96688   0.00000  Uiso   1.00
H1063  H     0.17459   0.57337   0.96839   0.00000  Uiso   1.00
H1064  H     0.19072   0.42951   0.53312   0.00000  Uiso   1.00
H1065  H     0.03716   0.42479   0.74929   0.00000  Uiso   1.00
H1066  H     0.29559   0.57319   0.74404   0.00000  Uiso   1.00
H1067  H     0.29617   0.42479   0.75071   0.00000  Uiso   1.00
H1068  H     0.03774   0.57319   0.75596   0.00000  Uiso   1.00
N1069  N     0.16667   0.61736   0.75000   0.00000  Uiso   1.00
N1070  N     0.16667   0.38264   0.75000   0.00000  Uiso   1.00
O1071  O     0.10655   0.53958   0.75000   0.00000  Uiso   1.00
O1072  O     0.22679   0.46042   0.75001   0.00000  Uiso   1.00
O1073  O     0.22679   0.53958   0.75001   0.00000  Uiso   1.00
O1074  O     0.10655   0.46042   0.75000   0.00000  Uiso   1.00
O1075  O     0.16666   0.53959   0.68573   0.00000  Uiso   1.00
O1076  O     0.16667   0.46041   0.81427   0.00000  Uiso   1.00
O1077  O     0.16667   0.53959   0.81427   0.00000  Uiso   1.00
O1078  O     0.16666   0.46041   0.68573   0.00000  Uiso   1.00
S1079  S     0.10005   0.38871   0.67381   0.00000  Uiso   1.00
O1080  O     0.11244   0.37742   0.62980   0.00000  Uiso   1.00
O1081  O     0.05667   0.37088   0.67306   0.00000  Uiso   1.00
O1082  O     0.09287   0.44577   0.67133   0.00000  Uiso   1.00
H1083  H     0.07262   0.45156   0.64288   0.00000  Uiso   1.00
S1084  S     0.24027   0.61233   0.81874   0.00000  Uiso   1.00
O1085  O     0.27861   0.62157   0.79962   0.00000  Uiso   1.00
O1086  O     0.24783   0.63189   0.86541   0.00000  Uiso   1.00
O1087  O     0.24014   0.55576   0.82915   0.00000  Uiso   1.00
H1088  H     0.26905   0.54827   0.84479   0.00000  Uiso   1.00
S1089  S     0.23329   0.38871   0.82619   0.00000  Uiso   1.00
O1090  O     0.22089   0.37742   0.87020   0.00000  Uiso   1.00
O1091  O     0.27667   0.37088   0.82694   0.00000  Uiso   1.00
O1092  O     0.24047   0.44577   0.82867   0.00000  Uiso   1.00
H1093  H     0.26072   0.45156   0.85713   0.00000  Uiso   1.00
S1094  S     0.09306   0.61233   0.68126   0.00000  Uiso   1.00
O1095  O     0.05472   0.62157   0.70038   0.00000  Uiso   1.00
O1096  O     0.08550   0.63188   0.63459   0.00000  Uiso   1.00
O1097  O     0.09319   0.55576   0.67085   0.00000  Uiso   1.00
H1098  H     0.06428   0.54827   0.65521   0.00000  Uiso   1.00
S1099  S     0.19976   0.59414   0.61908   0.00000  Uiso   1.00
O1100  O     0.16658   0.62596   0.62890   0.00000  Uiso   1.00
O1101  O     0.23124   0.58523   0.66165   0.00000  Uiso   1.00
O1102  O     0.22414   0.62001   0.58172   0.00000  Uiso   1.00
H1103  H     0.24711   0.59878   0.57829   0.00000  Uiso   1.00
S1104  S     0.11205   0.41647   0.87335   0.00000  Uiso   1.00
O1105  O     0.07847   0.43875   0.83895   0.00000  Uiso   1.00
O1106  O     0.13670   0.38425   0.84997   0.00000  Uiso   1.00
O1107  O     0.08927   0.38616   0.90931   0.00000  Uiso   1.00
H1108  H     0.06627   0.36897   0.88995   0.00000  Uiso   1.00
S1109  S     0.13357   0.59414   0.88092   0.00000  Uiso   1.00
O1110  O     0.16675   0.62596   0.87110   0.00000  Uiso   1.00
O1111  O     0.10209   0.58523   0.83835   0.00000  Uiso   1.00
O1112  O     0.10919   0.62001   0.91828   0.00000  Uiso   1.00
H1113  H     0.08622   0.59878   0.92171   0.00000  Uiso   1.00
S1114  S     0.22128   0.41647   0.62665   0.00000  Uiso   1.00
O1115  O     0.25486   0.43875   0.66105   0.00000  Uiso   1.00
O1116  O     0.19664   0.38425   0.65003   0.00000  Uiso   1.00
O1117  O     0.24406   0.38616   0.59069   0.00000  Uiso   1.00
H1118  H     0.26706   0.36897   0.61005   0.00000  Uiso   1.00
C1119  C     0.42091   0.49988   0.75074   0.00000  Uiso   1.00
C1120  C     0.57909   0.49988   0.74926   0.00000  Uiso   1.00
C1121  C     0.50493   0.50006   0.66631   0.00000  Uiso   1.00
C1122  C     0.49507   0.50006   0.83369   0.00000  Uiso   1.00
C1123  C     0.47068   0.35868   0.71853   0.00000  Uiso   1.00
C1124  C     0.52988   0.64167   0.78097   0.00000  Uiso   1.00
C1125  C     0.52932   0.35868   0.78147   0.00000  Uiso   1.00
C1126  C     0.47012   0.64167   0.71903   0.00000  Uiso   1.00
C1127  C     0.35459   0.45747   0.74978   0.00000  Uiso   1.00
C1128  C     0.64519   0.54077   0.74798   0.00000  Uiso   1.00
C1129  C     0.64541   0.45747   0.75022   0.00000  Uiso   1.00
C1130  C     0.35481   0.54077   0.75202   0.00000  Uiso   1.00
C1131  C     0.49981   0.54102   0.54864   0.00000  Uiso   1.00
C1132  C     0.48374   0.46009   0.94988   0.00000  Uiso   1.00
C1133  C     0.50019   0.54102   0.95136   0.00000  Uiso   1.00
C1134  C     0.51626   0.46009   0.55012   0.00000  Uiso   1.00
C1135  C     0.50994   0.54232   0.59529   0.00000  Uiso   1.00
C1136  C     0.47763   0.46024   0.90268   0.00000  Uiso   1.00
C1137  C     0.49006   0.54232   0.90471   0.00000  Uiso   1.00
C1138  C     0.52236   0.46024   0.59732   0.00000  Uiso   1.00
C1139  C     0.51293   0.50068   0.61961   0.00000  Uiso   1.00
C1140  C     0.48707   0.50068   0.88039   0.00000  Uiso   1.00
C1141  C     0.50295   0.49997   0.52505   0.00000  Uiso   1.00
C1142  C     0.49704   0.49997   0.97495   0.00000  Uiso   1.00
C1143  C     0.62371   0.49933   0.74893   0.00000  Uiso   1.00
C1144  C     0.37628   0.49933   0.75107   0.00000  Uiso   1.00
Cu1145 Cu    0.50000   0.54689   0.75000   0.00000  Uiso   1.00
Cu1146 Cu    0.50000   0.45311   0.75000   0.00000  Uiso   1.00
H1147  H     0.49208   0.57337   0.53161   0.00000  Uiso   1.00
H1148  H     0.47595   0.42951   0.96688   0.00000  Uiso   1.00
H1149  H     0.50792   0.57337   0.96839   0.00000  Uiso   1.00
H1150  H     0.52405   0.42951   0.53312   0.00000  Uiso   1.00
H1151  H     0.37050   0.42479   0.74929   0.00000  Uiso   1.00
H1152  H     0.62893   0.57319   0.74404   0.00000  Uiso   1.00
H1153  H     0.62950   0.42479   0.75071   0.00000  Uiso   1.00
H1154  H     0.37107   0.57319   0.75596   0.00000  Uiso   1.00
N1155  N     0.50000   0.61736   0.75000   0.00000  Uiso   1.00
N1156  N     0.50000   0.38264   0.75000   0.00000  Uiso   1.00
O1157  O     0.43988   0.53958   0.75000   0.00000  Uiso   1.00
O1158  O     0.56012   0.46042   0.75001   0.00000  Uiso   1.00
O1159  O     0.56012   0.53958   0.75001   0.00000  Uiso   1.00
O1160  O     0.43988   0.46042   0.75000   0.00000  Uiso   1.00
O1161  O     0.50000   0.53959   0.68573   0.00000  Uiso   1.00
O1162  O     0.50000   0.46041   0.81427   0.00000  Uiso   1.00
O1163  O     0.50000   0.53959   0.81427   0.00000  Uiso   1.00
O1164  O     0.50000   0.46041   0.68573   0.00000  Uiso   1.00
S1165  S     0.43338   0.38871   0.67381   0.00000  Uiso   1.00
O1166  O     0.44578   0.37742   0.62980   0.00000  Uiso   1.00
O1167  O     0.39000   0.37088   0.67306   0.00000  Uiso   1.00
O1168  O     0.42620   0.44577   0.67133   0.00000  Uiso   1.00
H1169  H     0.40595   0.45156   0.64288   0.00000  Uiso   1.00
S1170  S     0.57360   0.61233   0.81874   0.00000  Uiso   1.00
O1171  O     0.61194   0.62157   0.79962   0.00000  Uiso   1.00
O1172  O     0.58116   0.63189   0.86541   0.00000  Uiso   1.00
O1173  O     0.57347   0.55576   0.82915   0.00000  Uiso   1.00
H1174  H     0.60238   0.54827   0.84479   0.00000  Uiso   1.00
S1175  S     0.56662   0.38871   0.82619   0.00000  Uiso   1.00
O1176  O     0.55422   0.37742   0.87020   0.00000  Uiso   1.00
O1177  O     0.61000   0.37088   0.82694   0.00000  Uiso   1.00
O1178  O     0.57380   0.44577   0.82867   0.00000  Uiso   1.00
H1179  H     0.59405   0.45156   0.85713   0.00000  Uiso   1.00
S1180  S     0.42640   0.61233   0.68126   0.00000  Uiso   1.00
O1181  O     0.38806   0.62157   0.70038   0.00000  Uiso   1.00
O1182  O     0.41884   0.63188   0.63459   0.00000  Uiso   1.00
O1183  O     0.42653   0.55576   0.67085   0.00000  Uiso   1.00
H1184  H     0.39762   0.54827   0.65521   0.00000  Uiso   1.00
S1185  S     0.53309   0.59414   0.61908   0.00000  Uiso   1.00
O1186  O     0.49991   0.62596   0.62890   0.00000  Uiso   1.00
O1187  O     0.56457   0.58523   0.66165   0.00000  Uiso   1.00
O1188  O     0.55747   0.62001   0.58172   0.00000  Uiso   1.00
H1189  H     0.58045   0.59878   0.57829   0.00000  Uiso   1.00
S1190  S     0.44539   0.41647   0.87335   0.00000  Uiso   1.00
O1191  O     0.41180   0.43875   0.83895   0.00000  Uiso   1.00
O1192  O     0.47003   0.38425   0.84997   0.00000  Uiso   1.00
O1193  O     0.42261   0.38616   0.90931   0.00000  Uiso   1.00
H1194  H     0.39960   0.36897   0.88995   0.00000  Uiso   1.00
S1195  S     0.46691   0.59414   0.88092   0.00000  Uiso   1.00
O1196  O     0.50009   0.62596   0.87110   0.00000  Uiso   1.00
O1197  O     0.43543   0.58523   0.83835   0.00000  Uiso   1.00
O1198  O     0.44253   0.62001   0.91828   0.00000  Uiso   1.00
H1199  H     0.41955   0.59878   0.92171   0.00000  Uiso   1.00
S1200  S     0.55461   0.41647   0.62665   0.00000  Uiso   1.00
O1201  O     0.58820   0.43875   0.66105   0.00000  Uiso   1.00
O1202  O     0.52997   0.38425   0.65003   0.00000  Uiso   1.00
O1203  O     0.57739   0.38616   0.59069   0.00000  Uiso   1.00
H1204  H     0.60040   0.36897   0.61005   0.00000  Uiso   1.00
C1205  C     0.75425   0.49988   0.75074   0.00000  Uiso   1.00
C1206  C     0.91242   0.49988   0.74926   0.00000  Uiso   1.00
C1207  C     0.83826   0.50006   0.66631   0.00000  Uiso   1.00
C1208  C     0.82841   0.50006   0.83369   0.00000  Uiso   1.00
C1209  C     0.80401   0.35868   0.71853   0.00000  Uiso   1.00
C1210  C     0.86321   0.64167   0.78097   0.00000  Uiso   1.00
C1211  C     0.86266   0.35868   0.78147   0.00000  Uiso   1.00
C1212  C     0.80346   0.64167   0.71903   0.00000  Uiso   1.00
C1213  C     0.68793   0.45747   0.74978   0.00000  Uiso   1.00
C1214  C     0.97852   0.54077   0.74798   0.00000  Uiso   1.00
C1215  C     0.97874   0.45747   0.75022   0.00000  Uiso   1.00
C1216  C     0.68815   0.54077   0.75202   0.00000  Uiso   1.00
C1217  C     0.83314   0.54102   0.54864   0.00000  Uiso   1.00
C1218  C     0.81707   0.46009   0.94988   0.00000  Uiso   1.00
C1219  C     0.83352   0.54102   0.95136   0.00000  Uiso   1.00
C1220  C     0.84960   0.46009   0.55012   0.00000  Uiso   1.00
C1221  C     0.84327   0.54232   0.59529   0.00000  Uiso   1.00
C1222  C     0.81097   0.46024   0.90268   0.00000  Uiso   1.00
C1223  C     0.82339   0.54232   0.90471   0.00000  Uiso   1.00
C1224  C     0.85570   0.46024   0.59732   0.00000  Uiso   1.00
C1225  C     0.84626   0.50068   0.61961   0.00000  Uiso   1.00
C1226  C     0.82041   0.50068   0.88039   0.00000  Uiso   1.00
C1227  C     0.83629   0.49997   0.52505   0.00000  Uiso   1.00
C1228  C     0.83038   0.49997   0.97495   0.00000  Uiso   1.00
C1229  C     0.95705   0.49933   0.74893   0.00000  Uiso   1.00
C1230  C     0.70962   0.49933   0.75107   0.00000  Uiso   1.00
Cu1231 Cu    0.83333   0.54689   0.75000   0.00000  Uiso   1.00
Cu1232 Cu    0.83333   0.45311   0.75000   0.00000  Uiso   1.00
H1233  H     0.82541   0.57337   0.53161   0.00000  Uiso   1.00
H1234  H     0.80928   0.42951   0.96688   0.00000  Uiso   1.00
H1235  H     0.84126   0.57337   0.96839   0.00000  Uiso   1.00
H1236  H     0.85738   0.42951   0.53312   0.00000  Uiso   1.00
H1237  H     0.70383   0.42479   0.74929   0.00000  Uiso   1.00
H1238  H     0.96226   0.57319   0.74404   0.00000  Uiso   1.00
H1239  H     0.96284   0.42479   0.75071   0.00000  Uiso   1.00
H1240  H     0.70441   0.57319   0.75596   0.00000  Uiso   1.00
N1241  N     0.83333   0.61736   0.75000   0.00000  Uiso   1.00
N1242  N     0.83333   0.38264   0.75000   0.00000  Uiso   1.00
O1243  O     0.77321   0.53958   0.75000   0.00000  Uiso   1.00
O1244  O     0.89345   0.46042   0.75001   0.00000  Uiso   1.00
O1245  O     0.89345   0.53958   0.75001   0.00000  Uiso   1.00
O1246  O     0.77321   0.46042   0.75000   0.00000  Uiso   1.00
O1247  O     0.83333   0.53959   0.68573   0.00000  Uiso   1.00
O1248  O     0.83334   0.46041   0.81427   0.00000  Uiso   1.00
O1249  O     0.83334   0.53959   0.81427   0.00000  Uiso   1.00
O1250  O     0.83333   0.46041   0.68573   0.00000  Uiso   1.00
S1251  S     0.76671   0.38871   0.67381   0.00000  Uiso   1.00
O1252  O     0.77911   0.37742   0.62980   0.00000  Uiso   1.00
O1253  O     0.72333   0.37088   0.67306   0.00000  Uiso   1.00
O1254  O     0.75953   0.44577   0.67133   0.00000  Uiso   1.00
H1255  H     0.73928   0.45156   0.64288   0.00000  Uiso   1.00
S1256  S     0.90694   0.61233   0.81874   0.00000  Uiso   1.00
O1257  O     0.94527   0.62157   0.79962   0.00000  Uiso   1.00
O1258  O     0.91450   0.63189   0.86541   0.00000  Uiso   1.00
O1259  O     0.90681   0.55576   0.82915   0.00000  Uiso   1.00
H1260  H     0.93572   0.54827   0.84479   0.00000  Uiso   1.00
S1261  S     0.89995   0.38871   0.82619   0.00000  Uiso   1.00
O1262  O     0.88756   0.37742   0.87020   0.00000  Uiso   1.00
O1263  O     0.94333   0.37088   0.82694   0.00000  Uiso   1.00
O1264  O     0.90713   0.44577   0.82867   0.00000  Uiso   1.00
H1265  H     0.92738   0.45156   0.85713   0.00000  Uiso   1.00
S1266  S     0.75973   0.61233   0.68126   0.00000  Uiso   1.00
O1267  O     0.72139   0.62157   0.70038   0.00000  Uiso   1.00
O1268  O     0.75217   0.63188   0.63459   0.00000  Uiso   1.00
O1269  O     0.75986   0.55576   0.67085   0.00000  Uiso   1.00
H1270  H     0.73095   0.54827   0.65521   0.00000  Uiso   1.00
S1271  S     0.86643   0.59414   0.61908   0.00000  Uiso   1.00
O1272  O     0.83325   0.62596   0.62890   0.00000  Uiso   1.00
O1273  O     0.89791   0.58523   0.66165   0.00000  Uiso   1.00
O1274  O     0.89081   0.62001   0.58172   0.00000  Uiso   1.00
H1275  H     0.91378   0.59878   0.57829   0.00000  Uiso   1.00
S1276  S     0.77872   0.41647   0.87335   0.00000  Uiso   1.00
O1277  O     0.74514   0.43875   0.83895   0.00000  Uiso   1.00
O1278  O     0.80336   0.38425   0.84997   0.00000  Uiso   1.00
O1279  O     0.75594   0.38616   0.90931   0.00000  Uiso   1.00
H1280  H     0.73294   0.36897   0.88995   0.00000  Uiso   1.00
S1281  S     0.80024   0.59414   0.88092   0.00000  Uiso   1.00
O1282  O     0.83342   0.62596   0.87110   0.00000  Uiso   1.00
O1283  O     0.76876   0.58523   0.83835   0.00000  Uiso   1.00
O1284  O     0.77586   0.62001   0.91828   0.00000  Uiso   1.00
H1285  H     0.75289   0.59878   0.92171   0.00000  Uiso   1.00
S1286  S     0.88795   0.41647   0.62665   0.00000  Uiso   1.00
O1287  O     0.92153   0.43875   0.66105   0.00000  Uiso   1.00
O1288  O     0.86330   0.38425   0.65003   0.00000  Uiso   1.00
O1289  O     0.91072   0.38616   0.59069   0.00000  Uiso   1.00
H1290  H     0.93373   0.36897   0.61005   0.00000  Uiso   1.00
C1291  C     0.08758   0.83321   0.75074   0.00000  Uiso   1.00
C1292  C     0.24575   0.83321   0.74926   0.00000  Uiso   1.00
C1293  C     0.17159   0.83339   0.66631   0.00000  Uiso   1.00
C1294  C     0.16174   0.83339   0.83369   0.00000  Uiso   1.00
C1295  C     0.13734   0.69201   0.71853   0.00000  Uiso   1.00
C1296  C     0.19654   0.97500   0.78097   0.00000  Uiso   1.00
C1297  C     0.19599   0.69201   0.78147   0.00000  Uiso   1.00
C1298  C     0.13679   0.97500   0.71903   0.00000  Uiso   1.00
C1299  C     0.02126   0.79080   0.74978   0.00000  Uiso   1.00
C1300  C     0.31185   0.87410   0.74798   0.00000  Uiso   1.00
C1301  C     0.31207   0.79080   0.75022   0.00000  Uiso   1.00
C1302  C     0.02148   0.87410   0.75202   0.00000  Uiso   1.00
C1303  C     0.16648   0.87435   0.54864   0.00000  Uiso   1.00
C1304  C     0.15040   0.79343   0.94988   0.00000  Uiso   1.00
C1305  C     0.16686   0.87435   0.95136   0.00000  Uiso   1.00
C1306  C     0.18293   0.79343   0.55012   0.00000  Uiso   1.00
C1307  C     0.17661   0.87565   0.59529   0.00000  Uiso   1.00
C1308  C     0.14430   0.79358   0.90268   0.00000  Uiso   1.00
C1309  C     0.15673   0.87565   0.90471   0.00000  Uiso   1.00
C1310  C     0.18903   0.79358   0.59732   0.00000  Uiso   1.00
C1311  C     0.17959   0.83401   0.61961   0.00000  Uiso   1.00
C1312  C     0.15374   0.83401   0.88039   0.00000  Uiso   1.00
C1313  C     0.16962   0.83330   0.52505   0.00000  Uiso   1.00
C1314  C     0.16371   0.83330   0.97495   0.00000  Uiso   1.00
C1315  C     0.29038   0.83266   0.74893   0.00000  Uiso   1.00
C1316  C     0.04295   0.83266   0.75107   0.00000  Uiso   1.00
Cu1317 Cu    0.16667   0.88022   0.75000   0.00000  Uiso   1.00
Cu1318 Cu    0.16667   0.78645   0.75000   0.00000  Uiso   1.00
H1319  H     0.15874   0.90670   0.53161   0.00000  Uiso   1.00
H1320  H     0.14262   0.76285   0.96688   0.00000  Uiso   1.00
H1321  H     0.17459   0.90670   0.96839   0.00000  Uiso   1.00
H1322  H     0.19072   0.76285   0.53312   0.00000  Uiso   1.00
H1323  H     0.03716   0.75812   0.74929   0.00000  Uiso   1.00
H1324  H     0.29559   0.90652   0.74404   0.00000  Uiso   1.00
H1325  H     0.29617   0.75812   0.75071   0.00000  Uiso   1.00
H1326  H     0.03774   0.90652   0.75596   0.00000  Uiso   1.00
N1327  N     0.16667   0.95069   0.75000   0.00000  Uiso   1.00
N1328  N     0.16667   0.71598   0.75000   0.00000  Uiso   1.00
O1329  O     0.10655   0.87291   0.75000   0.00000  Uiso   1.00
O1330  O     0.22679   0.79375   0.75001   0.00000  Uiso   1.00
O1331  O     0.22679   0.87291   0.75001   0.00000  Uiso   1.00
O1332  O     0.10655   0.79375   0.75000   0.00000  Uiso   1.00
O1333  O     0.16666   0.87293   0.68573   0.00000  Uiso   1.00
O1334  O     0.16667   0.79374   0.81427   0.00000  Uiso   1.00
O1335  O     0.16667   0.87293   0.81427   0.00000  Uiso   1.00
O1336  O     0.16666   0.79374   0.68573   0.00000  Uiso   1.00
S1337  S     0.10005   0.72205   0.67381   0.00000  Uiso   1.00
O1338  O     0.11244   0.71075   0.62980   0.00000  Uiso   1.00
O1339  O     0.05667   0.70421   0.67306   0.00000  Uiso   1.00
O1340  O     0.09287   0.77910   0.67133   0.00000  Uiso   1.00
H1341  H     0.07262   0.78489   0.64288   0.00000  Uiso   1.00
S1342  S     0.24027   0.94566   0.81874   0.00000  Uiso   1.00
O1343  O     0.27861   0.95491   0.79962   0.00000  Uiso   1.00
O1344  O     0.24783   0.96522   0.86541   0.00000  Uiso   1.00
O1345  O     0.24014   0.88909   0.82915   0.00000  Uiso   1.00
H1346  H     0.26905   0.88160   0.84479   0.00000  Uiso   1.00
S1347  S     0.23329   0.72205   0.82619   0.00000  Uiso   1.00
O1348  O     0.22089   0.71075   0.87020   0.00000  Uiso   1.00
O1349  O     0.27667   0.70421   0.82694   0.00000  Uiso   1.00
O1350  O     0.24047   0.77910   0.82867   0.00000  Uiso   1.00
H1351  H     0.26072   0.78489   0.85713   0.00000  Uiso   1.00
S1352  S     0.09306   0.94566   0.68126   0.00000  Uiso   1.00
O1353  O     0.05472   0.95491   0.70038   0.00000  Uiso   1.00
O1354  O     0.08550   0.96522   0.63459   0.00000  Uiso   1.00
O1355  O     0.09319   0.88909   0.67085   0.00000  Uiso   1.00
H1356  H     0.06428   0.88160   0.65521   0.00000  Uiso   1.00
S1357  S     0.19976   0.92747   0.61908   0.00000  Uiso   1.00
O1358  O     0.16658   0.95930   0.62890   0.00000  Uiso   1.00
O1359  O     0.23124   0.91856   0.66165   0.00000  Uiso   1.00
O1360  O     0.22414   0.95334   0.58172   0.00000  Uiso   1.00
H1361  H     0.24711   0.93212   0.57829   0.00000  Uiso   1.00
S1362  S     0.11205   0.74981   0.87335   0.00000  Uiso   1.00
O1363  O     0.07847   0.77209   0.83895   0.00000  Uiso   1.00
O1364  O     0.13670   0.71758   0.84997   0.00000  Uiso   1.00
O1365  O     0.08927   0.71949   0.90931   0.00000  Uiso   1.00
H1366  H     0.06627   0.70231   0.88995   0.00000  Uiso   1.00
S1367  S     0.13357   0.92747   0.88092   0.00000  Uiso   1.00
O1368  O     0.16675   0.95930   0.87110   0.00000  Uiso   1.00
O1369  O     0.10209   0.91857   0.83835   0.00000  Uiso   1.00
O1370  O     0.10919   0.95334   0.91828   0.00000  Uiso   1.00
H1371  H     0.08622   0.93212   0.92171   0.00000  Uiso   1.00
S1372  S     0.22128   0.74981   0.62665   0.00000  Uiso   1.00
O1373  O     0.25486   0.77209   0.66105   0.00000  Uiso   1.00
O1374  O     0.19664   0.71758   0.65003   0.00000  Uiso   1.00
O1375  O     0.24406   0.71949   0.59069   0.00000  Uiso   1.00
H1376  H     0.26706   0.70231   0.61005   0.00000  Uiso   1.00
C1377  C     0.42091   0.83321   0.75074   0.00000  Uiso   1.00
C1378  C     0.57909   0.83321   0.74926   0.00000  Uiso   1.00
C1379  C     0.50493   0.83339   0.66631   0.00000  Uiso   1.00
C1380  C     0.49507   0.83339   0.83369   0.00000  Uiso   1.00
C1381  C     0.47068   0.69201   0.71853   0.00000  Uiso   1.00
C1382  C     0.52988   0.97500   0.78097   0.00000  Uiso   1.00
C1383  C     0.52932   0.69201   0.78147   0.00000  Uiso   1.00
C1384  C     0.47012   0.97500   0.71903   0.00000  Uiso   1.00
C1385  C     0.35459   0.79080   0.74978   0.00000  Uiso   1.00
C1386  C     0.64519   0.87410   0.74798   0.00000  Uiso   1.00
C1387  C     0.64541   0.79080   0.75022   0.00000  Uiso   1.00
C1388  C     0.35481   0.87410   0.75202   0.00000  Uiso   1.00
C1389  C     0.49981   0.87435   0.54864   0.00000  Uiso   1.00
C1390  C     0.48374   0.79343   0.94988   0.00000  Uiso   1.00
C1391  C     0.50019   0.87435   0.95136   0.00000  Uiso   1.00
C1392  C     0.51626   0.79343   0.55012   0.00000  Uiso   1.00
C1393  C     0.50994   0.87565   0.59529   0.00000  Uiso   1.00
C1394  C     0.47763   0.79358   0.90268   0.00000  Uiso   1.00
C1395  C     0.49006   0.87565   0.90471   0.00000  Uiso   1.00
C1396  C     0.52236   0.79358   0.59732   0.00000  Uiso   1.00
C1397  C     0.51293   0.83401   0.61961   0.00000  Uiso   1.00
C1398  C     0.48707   0.83401   0.88039   0.00000  Uiso   1.00
C1399  C     0.50295   0.83330   0.52505   0.00000  Uiso   1.00
C1400  C     0.49704   0.83330   0.97495   0.00000  Uiso   1.00
C1401  C     0.62371   0.83266   0.74893   0.00000  Uiso   1.00
C1402  C     0.37628   0.83266   0.75107   0.00000  Uiso   1.00
Cu1403 Cu    0.50000   0.88022   0.75000   0.00000  Uiso   1.00
Cu1404 Cu    0.50000   0.78645   0.75000   0.00000  Uiso   1.00
H1405  H     0.49208   0.90670   0.53161   0.00000  Uiso   1.00
H1406  H     0.47595   0.76285   0.96688   0.00000  Uiso   1.00
H1407  H     0.50792   0.90670   0.96839   0.00000  Uiso   1.00
H1408  H     0.52405   0.76285   0.53312   0.00000  Uiso   1.00
H1409  H     0.37050   0.75812   0.74929   0.00000  Uiso   1.00
H1410  H     0.62893   0.90652   0.74404   0.00000  Uiso   1.00
H1411  H     0.62950   0.75812   0.75071   0.00000  Uiso   1.00
H1412  H     0.37107   0.90652   0.75596   0.00000  Uiso   1.00
N1413  N     0.50000   0.95069   0.75000   0.00000  Uiso   1.00
N1414  N     0.50000   0.71598   0.75000   0.00000  Uiso   1.00
O1415  O     0.43988   0.87291   0.75000   0.00000  Uiso   1.00
O1416  O     0.56012   0.79375   0.75001   0.00000  Uiso   1.00
O1417  O     0.56012   0.87291   0.75001   0.00000  Uiso   1.00
O1418  O     0.43988   0.79375   0.75000   0.00000  Uiso   1.00
O1419  O     0.50000   0.87293   0.68573   0.00000  Uiso   1.00
O1420  O     0.50000   0.79374   0.81427   0.00000  Uiso   1.00
O1421  O     0.50000   0.87293   0.81427   0.00000  Uiso   1.00
O1422  O     0.50000   0.79374   0.68573   0.00000  Uiso   1.00
S1423  S     0.43338   0.72205   0.67381   0.00000  Uiso   1.00
O1424  O     0.44578   0.71075   0.62980   0.00000  Uiso   1.00
O1425  O     0.39000   0.70421   0.67306   0.00000  Uiso   1.00
O1426  O     0.42620   0.77910   0.67133   0.00000  Uiso   1.00
H1427  H     0.40595   0.78489   0.64288   0.00000  Uiso   1.00
S1428  S     0.57360   0.94566   0.81874   0.00000  Uiso   1.00
O1429  O     0.61194   0.95491   0.79962   0.00000  Uiso   1.00
O1430  O     0.58116   0.96522   0.86541   0.00000  Uiso   1.00
O1431  O     0.57347   0.88909   0.82915   0.00000  Uiso   1.00
H1432  H     0.60238   0.88160   0.84479   0.00000  Uiso   1.00
S1433  S     0.56662   0.72205   0.82619   0.00000  Uiso   1.00
O1434  O     0.55422   0.71075   0.87020   0.00000  Uiso   1.00
O1435  O     0.61000   0.70421   0.82694   0.00000  Uiso   1.00
O1436  O     0.57380   0.77910   0.82867   0.00000  Uiso   1.00
H1437  H     0.59405   0.78489   0.85713   0.00000  Uiso   1.00
S1438  S     0.42640   0.94566   0.68126   0.00000  Uiso   1.00
O1439  O     0.38806   0.95491   0.70038   0.00000  Uiso   1.00
O1440  O     0.41884   0.96522   0.63459   0.00000  Uiso   1.00
O1441  O     0.42653   0.88909   0.67085   0.00000  Uiso   1.00
H1442  H     0.39762   0.88160   0.65521   0.00000  Uiso   1.00
S1443  S     0.53309   0.92747   0.61908   0.00000  Uiso   1.00
O1444  O     0.49991   0.95930   0.62890   0.00000  Uiso   1.00
O1445  O     0.56457   0.91856   0.66165   0.00000  Uiso   1.00
O1446  O     0.55747   0.95334   0.58172   0.00000  Uiso   1.00
H1447  H     0.58045   0.93212   0.57829   0.00000  Uiso   1.00
S1448  S     0.44539   0.74981   0.87335   0.00000  Uiso   1.00
O1449  O     0.41180   0.77209   0.83895   0.00000  Uiso   1.00
O1450  O     0.47003   0.71758   0.84997   0.00000  Uiso   1.00
O1451  O     0.42261   0.71949   0.90931   0.00000  Uiso   1.00
H1452  H     0.39960   0.70231   0.88995   0.00000  Uiso   1.00
S1453  S     0.46691   0.92747   0.88092   0.00000  Uiso   1.00
O1454  O     0.50009   0.95930   0.87110   0.00000  Uiso   1.00
O1455  O     0.43543   0.91857   0.83835   0.00000  Uiso   1.00
O1456  O     0.44253   0.95334   0.91828   0.00000  Uiso   1.00
H1457  H     0.41955   0.93212   0.92171   0.00000  Uiso   1.00
S1458  S     0.55461   0.74981   0.62665   0.00000  Uiso   1.00
O1459  O     0.58820   0.77209   0.66105   0.00000  Uiso   1.00
O1460  O     0.52997   0.71758   0.65003   0.00000  Uiso   1.00
O1461  O     0.57739   0.71949   0.59069   0.00000  Uiso   1.00
H1462  H     0.60040   0.70231   0.61005   0.00000  Uiso   1.00
C1463  C     0.75425   0.83321   0.75074   0.00000  Uiso   1.00
C1464  C     0.91242   0.83321   0.74926   0.00000  Uiso   1.00
C1465  C     0.83826   0.83339   0.66631   0.00000  Uiso   1.00
C1466  C     0.82841   0.83339   0.83369   0.00000  Uiso   1.00
C1467  C     0.80401   0.69201   0.71853   0.00000  Uiso   1.00
C1468  C     0.86321   0.97500   0.78097   0.00000  Uiso   1.00
C1469  C     0.86266   0.69201   0.78147   0.00000  Uiso   1.00
C1470  C     0.80346   0.97500   0.71903   0.00000  Uiso   1.00
C1471  C     0.68793   0.79080   0.74978   0.00000  Uiso   1.00
C1472  C     0.97852   0.87410   0.74798   0.00000  Uiso   1.00
C1473  C     0.97874   0.79080   0.75022   0.00000  Uiso   1.00
C1474  C     0.68815   0.87410   0.75202   0.00000  Uiso   1.00
C1475  C     0.83314   0.87435   0.54864   0.00000  Uiso   1.00
C1476  C     0.81707   0.79343   0.94988   0.00000  Uiso   1.00
C1477  C     0.83352   0.87435   0.95136   0.00000  Uiso   1.00
C1478  C     0.84960   0.79343   0.55012   0.00000  Uiso   1.00
C1479  C     0.84327   0.87565   0.59529   0.00000  Uiso   1.00
C1480  C     0.81097   0.79358   0.90268   0.00000  Uiso   1.00
C1481  C     0.82339   0.87565   0.90471   0.00000  Uiso   1.00
C1482  C     0.85570   0.79358   0.59732   0.00000  Uiso   1.00
C1483  C     0.84626   0.83401   0.61961   0.00000  Uiso   1.00
C1484  C     0.82041   0.83401   0.88039   0.00000  Uiso   1.00
C1485  C     0.83629   0.83330   0.52505   0.00000  Uiso   1.00
C1486  C     0.83038   0.83330   0.97495   0.00000  Uiso   1.00
C1487  C     0.95705   0.83266   0.74893   0.00000  Uiso   1.00
C1488  C     0.70962   0.83266   0.75107   0.00000  Uiso   1.00
Cu1489 Cu    0.83333   0.88022   0.75000   0.00000  Uiso   1.00
Cu1490 Cu    0.83333   0.78645   0.75000   0.00000  Uiso   1.00
H1491  H     0.82541   0.90670   0.53161   0.00000  Uiso   1.00
H1492  H     0.80928   0.76285   0.96688   0.00000  Uiso   1.00
H1493  H     0.84126   0.90670   0.96839   0.00000  Uiso   1.00
H1494  H     0.85738   0.76285   0.53312   0.00000  Uiso   1.00
H1495  H     0.70383   0.75812   0.74929   0.00000  Uiso   1.00
H1496  H     0.96226   0.90652   0.74404   0.00000  Uiso   1.00
H1497  H     0.96284   0.75812   0.75071   0.00000  Uiso   1.00
H1498  H     0.70441   0.90652   0.75596   0.00000  Uiso   1.00
N1499  N     0.83333   0.95069   0.75000   0.00000  Uiso   1.00
N1500  N     0.83333   0.71598   0.75000   0.00000  Uiso   1.00
O1501  O     0.77321   0.87291   0.75000   0.00000  Uiso   1.00
O1502  O     0.89345   0.79375   0.75001   0.00000  Uiso   1.00
O1503  O     0.89345   0.87291   0.75001   0.00000  Uiso   1.00
O1504  O     0.77321   0.79375   0.75000   0.00000  Uiso   1.00
O1505  O     0.83333   0.87293   0.68573   0.00000  Uiso   1.00
O1506  O     0.83334   0.79374   0.81427   0.00000  Uiso   1.00
O1507  O     0.83334   0.87293   0.81427   0.00000  Uiso   1.00
O1508  O     0.83333   0.79374   0.68573   0.00000  Uiso   1.00
S1509  S     0.76671   0.72205   0.67381   0.00000  Uiso   1.00
O1510  O     0.77911   0.71075   0.62980   0.00000  Uiso   1.00
O1511  O     0.72333   0.70421   0.67306   0.00000  Uiso   1.00
O1512  O     0.75953   0.77910   0.67133   0.00000  Uiso   1.00
H1513  H     0.73928   0.78489   0.64288   0.00000  Uiso   1.00
S1514  S     0.90694   0.94566   0.81874   0.00000  Uiso   1.00
O1515  O     0.94527   0.95491   0.79962   0.00000  Uiso   1.00
O1516  O     0.91450   0.96522   0.86541   0.00000  Uiso   1.00
O1517  O     0.90681   0.88909   0.82915   0.00000  Uiso   1.00
H1518  H     0.93572   0.88160   0.84479   0.00000  Uiso   1.00
S1519  S     0.89995   0.72205   0.82619   0.00000  Uiso   1.00
O1520  O     0.88756   0.71075   0.87020   0.00000  Uiso   1.00
O1521  O     0.94333   0.70421   0.82694   0.00000  Uiso   1.00
O1522  O     0.90713   0.77910   0.82867   0.00000  Uiso   1.00
H1523  H     0.92738   0.78489   0.85713   0.00000  Uiso   1.00
S1524  S     0.75973   0.94566   0.68126   0.00000  Uiso   1.00
O1525  O     0.72139   0.95491   0.70038   0.00000  Uiso   1.00
O1526  O     0.75217   0.96522   0.63459   0.00000  Uiso   1.00
O1527  O     0.75986   0.88909   0.67085   0.00000  Uiso   1.00
H1528  H     0.73095   0.88160   0.65521   0.00000  Uiso   1.00
S1529  S     0.86643   0.92747   0.61908   0.00000  Uiso   1.00
O1530  O     0.83325   0.95930   0.62890   0.00000  Uiso   1.00
O1531  O     0.89791   0.91856   0.66165   0.00000  Uiso   1.00
O1532  O     0.89081   0.95334   0.58172   0.00000  Uiso   1.00
H1533  H     0.91378   0.93212   0.57829   0.00000  Uiso   1.00
S1534  S     0.77872   0.74981   0.87335   0.00000  Uiso   1.00
O1535  O     0.74514   0.77209   0.83895   0.00000  Uiso   1.00
O1536  O     0.80336   0.71758   0.84997   0.00000  Uiso   1.00
O1537  O     0.75594   0.71949   0.90931   0.00000  Uiso   1.00
H1538  H     0.73294   0.70231   0.88995   0.00000  Uiso   1.00
S1539  S     0.80024   0.92747   0.88092   0.00000  Uiso   1.00
O1540  O     0.83342   0.95930   0.87110   0.00000  Uiso   1.00
O1541  O     0.76876   0.91857   0.83835   0.00000  Uiso   1.00
O1542  O     0.77586   0.95334   0.91828   0.00000  Uiso   1.00
H1543  H     0.75289   0.93212   0.92171   0.00000  Uiso   1.00
S1544  S     0.88795   0.74981   0.62665   0.00000  Uiso   1.00
O1545  O     0.92153   0.77209   0.66105   0.00000  Uiso   1.00
O1546  O     0.86330   0.71758   0.65003   0.00000  Uiso   1.00
O1547  O     0.91072   0.71949   0.59069   0.00000  Uiso   1.00
H1548  H     0.93373   0.70231   0.61005   0.00000  Uiso   1.00
loop_
_geom_bond_atom_site_label_1
_geom_bond_atom_site_label_2
_geom_bond_distance
_geom_bond_site_symmetry_2
_ccdc_geom_bond_type
C1     C26     1.455   .     S
C1     O39     1.311   .     A
C1     O42     1.305   .     A
C2     O41     1.311   .     A
C2     O40     1.305   .     A
C2     C25     1.455   .     S
C3     O43     1.315   .     A
C3     C21     1.487   .     S
C3     O46     1.318   .     A
C4     O45     1.315   .     A
C4     O44     1.318   .     A
C4     C22     1.487   .     S
C5     S47     1.850   .     S
C5     N38     1.395   .     A
C5     C524    1.463   1_545 S
C6     N37     1.402   .     A
C6     S52     1.850   .     S
C6     C265    1.463   .     S
C7     N38     1.395   .     A
C7     S57     1.850   .     S
C7     C522    1.463   1_545 S
C8     N37     1.402   .     A
C8     S62     1.850   .     S
C8     C263    1.463   .     S
C9     H33     1.083   .     S
C9     C26     1.403   .     A
C9     C183    1.387   1_455 S
C10    H34     1.076   .     S
C10    C25     1.395   .     A
C10    C98     1.380   .     S
C11    H35     1.083   .     S
C11    C25     1.403   .     A
C11    C95     1.387   .     S
C12    H36     1.076   .     S
C12    C26     1.395   .     A
C12    C182    1.380   1_455 S
C13    H29     1.078   .     S
C13    C23     1.404   .     A
C13    C17     1.386   .     A
C14    C18     1.404   .     A
C14    C24     1.406   .     A
C14    H30     1.082   .     S
C15    C19     1.386   .     A
C15    C24     1.404   .     A
C15    H31     1.078   .     S
C16    C20     1.404   .     A
C16    C23     1.406   .     A
C16    H32     1.082   .     S
C17    S67     1.772   .     S
C17    C21     1.410   .     A
C18    S72     1.773   .     S
C18    C22     1.418   .     A
C19    S77     1.772   .     S
C19    C22     1.410   .     A
C20    S82     1.773   .     S
C20    C21     1.418   .     A
C23    C798    1.491   1_554 S
C24    C797    1.491   .     S
Cu27   O39     1.969   .     S
Cu27   O45     1.957   .     S
Cu27   O41     1.969   .     S
Cu27   N37     2.048   .     S
Cu27   O43     1.957   .     S
Cu27   Cu28    2.725   .     S
Cu28   O46     1.957   .     S
Cu28   O40     1.969   .     S
Cu28   O44     1.957   .     S
Cu28   N38     2.048   .     S
Cu28   O42     1.969   .     S
S47    O49     1.500   .     D
S47    O50     1.674   .     S
S47    O48     1.503   .     D
O50    H51     0.991   .     S
S52    O55     1.674   .     S
S52    O54     1.498   .     D
S52    O53     1.500   .     D
O55    H56     0.991   .     S
S57    O59     1.500   .     D
S57    O60     1.674   .     S
S57    O58     1.503   .     D
O60    H61     0.991   .     S
S62    O64     1.498   .     D
S62    O63     1.500   .     D
S62    O65     1.674   .     S
O65    H66     0.991   .     S
S67    O68     1.496   .     D
S67    O69     1.503   .     D
S67    O70     1.681   .     S
O70    H71     0.991   .     S
S72    O75     1.682   .     S
S72    O74     1.498   .     D
S72    O73     1.501   .     D
O75    H76     0.991   .     S
S77    O78     1.496   .     D
S77    O79     1.503   .     D
S77    O80     1.681   .     S
O80    H81     0.991   .     S
S82    O83     1.501   .     D
S82    O84     1.498   .     D
S82    O85     1.682   .     S
O85    H86     0.991   .     S
C87    C112    1.455   .     S
C87    O125    1.311   .     A
C87    O128    1.305   .     A
C88    O127    1.311   .     A
C88    O126    1.305   .     A
C88    C111    1.455   .     S
C89    O129    1.315   .     A
C89    C107    1.487   .     S
C89    O132    1.318   .     A
C90    O131    1.315   .     A
C90    O130    1.318   .     A
C90    C108    1.487   .     S
C91    S133    1.850   .     S
C91    N124    1.395   .     A
C91    C610    1.463   1_545 S
C92    N123    1.402   .     A
C92    S138    1.850   .     S
C92    C351    1.463   .     S
C93    N124    1.395   .     A
C93    S143    1.850   .     S
C93    C608    1.463   1_545 S
C94    N123    1.402   .     A
C94    S148    1.850   .     S
C94    C349    1.463   .     S
C95    H119    1.083   .     S
C95    C112    1.403   .     A
C96    H120    1.076   .     S
C96    C111    1.395   .     A
C96    C184    1.380   .     S
C97    H121    1.083   .     S
C97    C111    1.403   .     A
C97    C181    1.387   .     S
C98    H122    1.076   .     S
C98    C112    1.395   .     A
C99    H115    1.078   .     S
C99    C109    1.404   .     A
C99    C103    1.386   .     A
C100   C104    1.404   .     A
C100   C110    1.406   .     A
C100   H116    1.082   .     S
C101   C105    1.386   .     A
C101   C110    1.404   .     A
C101   H117    1.078   .     S
C102   C106    1.404   .     A
C102   C109    1.406   .     A
C102   H118    1.082   .     S
C103   S153    1.772   .     S
C103   C107    1.410   .     A
C104   S158    1.773   .     S
C104   C108    1.418   .     A
C105   S163    1.772   .     S
C105   C108    1.410   .     A
C106   S168    1.773   .     S
C106   C107    1.418   .     A
C109   C884    1.491   1_554 S
C110   C883    1.491   .     S
Cu113  O125    1.969   .     S
Cu113  O131    1.957   .     S
Cu113  O127    1.969   .     S
Cu113  N123    2.048   .     S
Cu113  O129    1.957   .     S
Cu113  Cu114   2.725   .     S
Cu114  O132    1.957   .     S
Cu114  O126    1.969   .     S
Cu114  O130    1.957   .     S
Cu114  N124    2.048   .     S
Cu114  O128    1.969   .     S
S133   O135    1.500   .     D
S133   O136    1.674   .     S
S133   O134    1.503   .     D
O136   H137    0.991   .     S
S138   O141    1.674   .     S
S138   O140    1.498   .     D
S138   O139    1.500   .     D
O141   H142    0.991   .     S
S143   O145    1.500   .     D
S143   O146    1.674   .     S
S143   O144    1.503   .     D
O146   H147    0.991   .     S
S148   O150    1.498   .     D
S148   O149    1.500   .     D
S148   O151    1.674   .     S
O151   H152    0.991   .     S
S153   O154    1.496   .     D
S153   O155    1.503   .     D
S153   O156    1.681   .     S
O156   H157    0.991   .     S
S158   O161    1.682   .     S
S158   O160    1.498   .     D
S158   O159    1.501   .     D
O161   H162    0.991   .     S
S163   O164    1.496   .     D
S163   O165    1.503   .     D
S163   O166    1.681   .     S
O166   H167    0.991   .     S
S168   O169    1.501   .     D
S168   O170    1.498   .     D
S168   O171    1.682   .     S
O171   H172    0.991   .     S
C173   C198    1.455   .     S
C173   O211    1.311   .     A
C173   O214    1.305   .     A
C174   O213    1.311   .     A
C174   O212    1.305   .     A
C174   C197    1.455   .     S
C175   O215    1.315   .     A
C175   C193    1.487   .     S
C175   O218    1.318   .     A
C176   O217    1.315   .     A
C176   O216    1.318   .     A
C176   C194    1.487   .     S
C177   S219    1.850   .     S
C177   N210    1.395   .     A
C177   C696    1.463   1_545 S
C178   N209    1.402   .     A
C178   S224    1.850   .     S
C178   C437    1.463   .     S
C179   N210    1.395   .     A
C179   S229    1.850   .     S
C179   C694    1.463   1_545 S
C180   N209    1.402   .     A
C180   S234    1.850   .     S
C180   C435    1.463   .     S
C181   H205    1.083   .     S
C181   C198    1.403   .     A
C182   H206    1.076   .     S
C182   C197    1.395   .     A
C182   C12     1.380   1_655 S
C183   H207    1.083   .     S
C183   C197    1.403   .     A
C183   C9      1.387   1_655 S
C184   H208    1.076   .     S
C184   C198    1.395   .     A
C185   H201    1.078   .     S
C185   C195    1.404   .     A
C185   C189    1.386   .     A
C186   C190    1.404   .     A
C186   C196    1.406   .     A
C186   H202    1.082   .     S
C187   C191    1.386   .     A
C187   C196    1.404   .     A
C187   H203    1.078   .     S
C188   C192    1.404   .     A
C188   C195    1.406   .     A
C188   H204    1.082   .     S
C189   S239    1.772   .     S
C189   C193    1.410   .     A
C190   S244    1.773   .     S
C190   C194    1.418   .     A
C191   S249    1.772   .     S
C191   C194    1.410   .     A
C192   S254    1.773   .     S
C192   C193    1.418   .     A
C195   C970    1.491   1_554 S
C196   C969    1.491   .     S
Cu199  O211    1.969   .     S
Cu199  O217    1.957   .     S
Cu199  O213    1.969   .     S
Cu199  N209    2.048   .     S
Cu199  O215    1.957   .     S
Cu199  Cu200   2.725   .     S
Cu200  O218    1.957   .     S
Cu200  O212    1.969   .     S
Cu200  O216    1.957   .     S
Cu200  N210    2.048   .     S
Cu200  O214    1.969   .     S
S219   O221    1.500   .     D
S219   O222    1.674   .     S
S219   O220    1.503   .     D
O222   H223    0.991   .     S
S224   O227    1.674   .     S
S224   O226    1.498   .     D
S224   O225    1.500   .     D
O227   H228    0.991   .     S
S229   O231    1.500   .     D
S229   O232    1.674   .     S
S229   O230    1.503   .     D
O232   H233    0.991   .     S
S234   O236    1.498   .     D
S234   O235    1.500   .     D
S234   O237    1.674   .     S
O237   H238    0.991   .     S
S239   O240    1.496   .     D
S239   O241    1.503   .     D
S239   O242    1.681   .     S
O242   H243    0.991   .     S
S244   O247    1.682   .     S
S244   O246    1.498   .     D
S244   O245    1.501   .     D
O247   H248    0.991   .     S
S249   O250    1.496   .     D
S249   O251    1.503   .     D
S249   O252    1.681   .     S
O252   H253    0.991   .     S
S254   O255    1.501   .     D
S254   O256    1.498   .     D
S254   O257    1.682   .     S
O257   H258    0.991   .     S
C259   C284    1.455   .     S
C259   O297    1.311   .     A
C259   O300    1.305   .     A
C260   O299    1.311   .     A
C260   O298    1.305   .     A
C260   C283    1.455   .     S
C261   O301    1.315   .     A
C261   C279    1.487   .     S
C261   O304    1.318   .     A
C262   O303    1.315   .     A
C262   O302    1.318   .     A
C262   C280    1.487   .     S
C263   S305    1.850   .     S
C263   N296    1.395   .     A
C264   N295    1.402   .     A
C264   S310    1.850   .     S
C264   C523    1.463   .     S
C265   N296    1.395   .     A
C265   S315    1.850   .     S
C266   N295    1.402   .     A
C266   S320    1.850   .     S
C266   C521    1.463   .     S
C267   H291    1.083   .     S
C267   C284    1.403   .     A
C267   C441    1.387   1_455 S
C268   H292    1.076   .     S
C268   C283    1.395   .     A
C268   C356    1.380   .     S
C269   H293    1.083   .     S
C269   C283    1.403   .     A
C269   C353    1.387   .     S
C270   H294    1.076   .     S
C270   C284    1.395   .     A
C270   C440    1.380   1_455 S
C271   H287    1.078   .     S
C271   C281    1.404   .     A
C271   C275    1.386   .     A
C272   C276    1.404   .     A
C272   C282    1.406   .     A
C272   H288    1.082   .     S
C273   C277    1.386   .     A
C273   C282    1.404   .     A
C273   H289    1.078   .     S
C274   C278    1.404   .     A
C274   C281    1.406   .     A
C274   H290    1.082   .     S
C275   S325    1.772   .     S
C275   C279    1.410   .     A
C276   S330    1.773   .     S
C276   C280    1.418   .     A
C277   S335    1.772   .     S
C277   C280    1.410   .     A
C278   S340    1.773   .     S
C278   C279    1.418   .     A
C281   C1056   1.491   1_554 S
C282   C1055   1.491   .     S
Cu285  O297    1.969   .     S
Cu285  O303    1.957   .     S
Cu285  O299    1.969   .     S
Cu285  N295    2.048   .     S
Cu285  O301    1.957   .     S
Cu285  Cu286   2.725   .     S
Cu286  O304    1.957   .     S
Cu286  O298    1.969   .     S
Cu286  O302    1.957   .     S
Cu286  N296    2.048   .     S
Cu286  O300    1.969   .     S
S305   O307    1.500   .     D
S305   O308    1.674   .     S
S305   O306    1.503   .     D
O308   H309    0.991   .     S
S310   O313    1.674   .     S
S310   O312    1.498   .     D
S310   O311    1.500   .     D
O313   H314    0.991   .     S
S315   O317    1.500   .     D
S315   O318    1.674   .     S
S315   O316    1.503   .     D
O318   H319    0.991   .     S
S320   O322    1.498   .     D
S320   O321    1.500   .     D
S320   O323    1.674   .     S
O323   H324    0.991   .     S
S325   O326    1.496   .     D
S325   O327    1.503   .     D
S325   O328    1.681   .     S
O328   H329    0.991   .     S
S330   O333    1.682   .     S
S330   O332    1.498   .     D
S330   O331    1.501   .     D
O333   H334    0.991   .     S
S335   O336    1.496   .     D
S335   O337    1.503   .     D
S335   O338    1.681   .     S
O338   H339    0.991   .     S
S340   O341    1.501   .     D
S340   O342    1.498   .     D
S340   O343    1.682   .     S
O343   H344    0.991   .     S
C345   C370    1.455   .     S
C345   O383    1.311   .     A
C345   O386    1.305   .     A
C346   O385    1.311   .     A
C346   O384    1.305   .     A
C346   C369    1.455   .     S
C347   O387    1.315   .     A
C347   C365    1.487   .     S
C347   O390    1.318   .     A
C348   O389    1.315   .     A
C348   O388    1.318   .     A
C348   C366    1.487   .     S
C349   S391    1.850   .     S
C349   N382    1.395   .     A
C350   N381    1.402   .     A
C350   S396    1.850   .     S
C350   C609    1.463   .     S
C351   N382    1.395   .     A
C351   S401    1.850   .     S
C352   N381    1.402   .     A
C352   S406    1.850   .     S
C352   C607    1.463   .     S
C353   H377    1.083   .     S
C353   C370    1.403   .     A
C354   H378    1.076   .     S
C354   C369    1.395   .     A
C354   C442    1.380   .     S
C355   H379    1.083   .     S
C355   C369    1.403   .     A
C355   C439    1.387   .     S
C356   H380    1.076   .     S
C356   C370    1.395   .     A
C357   H373    1.078   .     S
C357   C367    1.404   .     A
C357   C361    1.386   .     A
C358   C362    1.404   .     A
C358   C368    1.406   .     A
C358   H374    1.082   .     S
C359   C363    1.386   .     A
C359   C368    1.404   .     A
C359   H375    1.078   .     S
C360   C364    1.404   .     A
C360   C367    1.406   .     A
C360   H376    1.082   .     S
C361   S411    1.772   .     S
C361   C365    1.410   .     A
C362   S416    1.773   .     S
C362   C366    1.418   .     A
C363   S421    1.772   .     S
C363   C366    1.410   .     A
C364   S426    1.773   .     S
C364   C365    1.418   .     A
C367   C1142   1.491   1_554 S
C368   C1141   1.491   .     S
Cu371  O383    1.969   .     S
Cu371  O389    1.957   .     S
Cu371  O385    1.969   .     S
Cu371  N381    2.048   .     S
Cu371  O387    1.957   .     S
Cu371  Cu372   2.725   .     S
Cu372  O390    1.957   .     S
Cu372  O384    1.969   .     S
Cu372  O388    1.957   .     S
Cu372  N382    2.048   .     S
Cu372  O386    1.969   .     S
S391   O393    1.500   .     D
S391   O394    1.674   .     S
S391   O392    1.503   .     D
O394   H395    0.991   .     S
S396   O399    1.674   .     S
S396   O398    1.498   .     D
S396   O397    1.500   .     D
O399   H400    0.991   .     S
S401   O403    1.500   .     D
S401   O404    1.674   .     S
S401   O402    1.503   .     D
O404   H405    0.991   .     S
S406   O408    1.498   .     D
S406   O407    1.500   .     D
S406   O409    1.674   .     S
O409   H410    0.991   .     S
S411   O412    1.496   .     D
S411   O413    1.503   .     D
S411   O414    1.681   .     S
O414   H415    0.991   .     S
S416   O419    1.682   .     S
S416   O418    1.498   .     D
S416   O417    1.501   .     D
O419   H420    0.991   .     S
S421   O422    1.496   .     D
S421   O423    1.503   .     D
S421   O424    1.681   .     S
O424   H425    0.991   .     S
S426   O427    1.501   .     D
S426   O428    1.498   .     D
S426   O429    1.682   .     S
O429   H430    0.991   .     S
C431   C456    1.455   .     S
C431   O469    1.311   .     A
C431   O472    1.305   .     A
C432   O471    1.311   .     A
C432   O470    1.305   .     A
C432   C455    1.455   .     S
C433   O473    1.315   .     A
C433   C451    1.487   .     S
C433   O476    1.318   .     A
C434   O475    1.315   .     A
C434   O474    1.318   .     A
C434   C452    1.487   .     S
C435   S477    1.850   .     S
C435   N468    1.395   .     A
C436   N467    1.402   .     A
C436   S482    1.850   .     S
C436   C695    1.463   .     S
C437   N468    1.395   .     A
C437   S487    1.850   .     S
C438   N467    1.402   .     A
C438   S492    1.850   .     S
C438   C693    1.463   .     S
C439   H463    1.083   .     S
C439   C456    1.403   .     A
C440   H464    1.076   .     S
C440   C455    1.395   .     A
C440   C270    1.380   1_655 S
C441   H465    1.083   .     S
C441   C455    1.403   .     A
C441   C267    1.387   1_655 S
C442   H466    1.076   .     S
C442   C456    1.395   .     A
C443   H459    1.078   .     S
C443   C453    1.404   .     A
C443   C447    1.386   .     A
C444   C448    1.404   .     A
C444   C454    1.406   .     A
C444   H460    1.082   .     S
C445   C449    1.386   .     A
C445   C454    1.404   .     A
C445   H461    1.078   .     S
C446   C450    1.404   .     A
C446   C453    1.406   .     A
C446   H462    1.082   .     S
C447   S497    1.772   .     S
C447   C451    1.410   .     A
C448   S502    1.773   .     S
C448   C452    1.418   .     A
C449   S507    1.772   .     S
C449   C452    1.410   .     A
C450   S512    1.773   .     S
C450   C451    1.418   .     A
C453   C1228   1.491   1_554 S
C454   C1227   1.491   .     S
Cu457  O469    1.969   .     S
Cu457  O475    1.957   .     S
Cu457  O471    1.969   .     S
Cu457  N467    2.048   .     S
Cu457  O473    1.957   .     S
Cu457  Cu458   2.725   .     S
Cu458  O476    1.957   .     S
Cu458  O470    1.969   .     S
Cu458  O474    1.957   .     S
Cu458  N468    2.048   .     S
Cu458  O472    1.969   .     S
S477   O479    1.500   .     D
S477   O480    1.674   .     S
S477   O478    1.503   .     D
O480   H481    0.991   .     S
S482   O485    1.674   .     S
S482   O484    1.498   .     D
S482   O483    1.500   .     D
O485   H486    0.991   .     S
S487   O489    1.500   .     D
S487   O490    1.674   .     S
S487   O488    1.503   .     D
O490   H491    0.991   .     S
S492   O494    1.498   .     D
S492   O493    1.500   .     D
S492   O495    1.674   .     S
O495   H496    0.991   .     S
S497   O498    1.496   .     D
S497   O499    1.503   .     D
S497   O500    1.681   .     S
O500   H501    0.991   .     S
S502   O505    1.682   .     S
S502   O504    1.498   .     D
S502   O503    1.501   .     D
O505   H506    0.991   .     S
S507   O508    1.496   .     D
S507   O509    1.503   .     D
S507   O510    1.681   .     S
O510   H511    0.991   .     S
S512   O513    1.501   .     D
S512   O514    1.498   .     D
S512   O515    1.682   .     S
O515   H516    0.991   .     S
C517   C542    1.455   .     S
C517   O555    1.311   .     A
C517   O558    1.305   .     A
C518   O557    1.311   .     A
C518   O556    1.305   .     A
C518   C541    1.455   .     S
C519   O559    1.315   .     A
C519   C537    1.487   .     S
C519   O562    1.318   .     A
C520   O561    1.315   .     A
C520   O560    1.318   .     A
C520   C538    1.487   .     S
C521   S563    1.850   .     S
C521   N554    1.395   .     A
C522   N553    1.402   .     A
C522   S568    1.850   .     S
C522   C7      1.463   1_565 S
C523   N554    1.395   .     A
C523   S573    1.850   .     S
C524   N553    1.402   .     A
C524   S578    1.850   .     S
C524   C5      1.463   1_565 S
C525   H549    1.083   .     S
C525   C542    1.403   .     A
C525   C699    1.387   1_455 S
C526   H550    1.076   .     S
C526   C541    1.395   .     A
C526   C614    1.380   .     S
C527   H551    1.083   .     S
C527   C541    1.403   .     A
C527   C611    1.387   .     S
C528   H552    1.076   .     S
C528   C542    1.395   .     A
C528   C698    1.380   1_455 S
C529   H545    1.078   .     S
C529   C539    1.404   .     A
C529   C533    1.386   .     A
C530   C534    1.404   .     A
C530   C540    1.406   .     A
C530   H546    1.082   .     S
C531   C535    1.386   .     A
C531   C540    1.404   .     A
C531   H547    1.078   .     S
C532   C536    1.404   .     A
C532   C539    1.406   .     A
C532   H548    1.082   .     S
C533   S583    1.772   .     S
C533   C537    1.410   .     A
C534   S588    1.773   .     S
C534   C538    1.418   .     A
C535   S593    1.772   .     S
C535   C538    1.410   .     A
C536   S598    1.773   .     S
C536   C537    1.418   .     A
C539   C1314   1.491   1_554 S
C540   C1313   1.491   .     S
Cu543  O555    1.969   .     S
Cu543  O561    1.957   .     S
Cu543  O557    1.969   .     S
Cu543  N553    2.048   .     S
Cu543  O559    1.957   .     S
Cu543  Cu544   2.725   .     S
Cu544  O562    1.957   .     S
Cu544  O556    1.969   .     S
Cu544  O560    1.957   .     S
Cu544  N554    2.048   .     S
Cu544  O558    1.969   .     S
S563   O565    1.500   .     D
S563   O566    1.674   .     S
S563   O564    1.503   .     D
O566   H567    0.991   .     S
S568   O571    1.674   .     S
S568   O570    1.498   .     D
S568   O569    1.500   .     D
O571   H572    0.991   .     S
S573   O575    1.500   .     D
S573   O576    1.674   .     S
S573   O574    1.503   .     D
O576   H577    0.991   .     S
S578   O580    1.498   .     D
S578   O579    1.500   .     D
S578   O581    1.674   .     S
O581   H582    0.991   .     S
S583   O584    1.496   .     D
S583   O585    1.503   .     D
S583   O586    1.681   .     S
O586   H587    0.991   .     S
S588   O591    1.682   .     S
S588   O590    1.498   .     D
S588   O589    1.501   .     D
O591   H592    0.991   .     S
S593   O594    1.496   .     D
S593   O595    1.503   .     D
S593   O596    1.681   .     S
O596   H597    0.991   .     S
S598   O599    1.501   .     D
S598   O600    1.498   .     D
S598   O601    1.682   .     S
O601   H602    0.991   .     S
C603   C628    1.455   .     S
C603   O641    1.311   .     A
C603   O644    1.305   .     A
C604   O643    1.311   .     A
C604   O642    1.305   .     A
C604   C627    1.455   .     S
C605   O645    1.315   .     A
C605   C623    1.487   .     S
C605   O648    1.318   .     A
C606   O647    1.315   .     A
C606   O646    1.318   .     A
C606   C624    1.487   .     S
C607   S649    1.850   .     S
C607   N640    1.395   .     A
C608   N639    1.402   .     A
C608   S654    1.850   .     S
C608   C93     1.463   1_565 S
C609   N640    1.395   .     A
C609   S659    1.850   .     S
C610   N639    1.402   .     A
C610   S664    1.850   .     S
C610   C91     1.463   1_565 S
C611   H635    1.083   .     S
C611   C628    1.403   .     A
C612   H636    1.076   .     S
C612   C627    1.395   .     A
C612   C700    1.380   .     S
C613   H637    1.083   .     S
C613   C627    1.403   .     A
C613   C697    1.387   .     S
C614   H638    1.076   .     S
C614   C628    1.395   .     A
C615   H631    1.078   .     S
C615   C625    1.404   .     A
C615   C619    1.386   .     A
C616   C620    1.404   .     A
C616   C626    1.406   .     A
C616   H632    1.082   .     S
C617   C621    1.386   .     A
C617   C626    1.404   .     A
C617   H633    1.078   .     S
C618   C622    1.404   .     A
C618   C625    1.406   .     A
C618   H634    1.082   .     S
C619   S669    1.772   .     S
C619   C623    1.410   .     A
C620   S674    1.773   .     S
C620   C624    1.418   .     A
C621   S679    1.772   .     S
C621   C624    1.410   .     A
C622   S684    1.773   .     S
C622   C623    1.418   .     A
C625   C1400   1.491   1_554 S
C626   C1399   1.491   .     S
Cu629  O641    1.969   .     S
Cu629  O647    1.957   .     S
Cu629  O643    1.969   .     S
Cu629  N639    2.048   .     S
Cu629  O645    1.957   .     S
Cu629  Cu630   2.725   .     S
Cu630  O648    1.957   .     S
Cu630  O642    1.969   .     S
Cu630  O646    1.957   .     S
Cu630  N640    2.048   .     S
Cu630  O644    1.969   .     S
S649   O651    1.500   .     D
S649   O652    1.674   .     S
S649   O650    1.503   .     D
O652   H653    0.991   .     S
S654   O657    1.674   .     S
S654   O656    1.498   .     D
S654   O655    1.500   .     D
O657   H658    0.991   .     S
S659   O661    1.500   .     D
S659   O662    1.674   .     S
S659   O660    1.503   .     D
O662   H663    0.991   .     S
S664   O666    1.498   .     D
S664   O665    1.500   .     D
S664   O667    1.674   .     S
O667   H668    0.991   .     S
S669   O670    1.496   .     D
S669   O671    1.503   .     D
S669   O672    1.681   .     S
O672   H673    0.991   .     S
S674   O677    1.682   .     S
S674   O676    1.498   .     D
S674   O675    1.501   .     D
O677   H678    0.991   .     S
S679   O680    1.496   .     D
S679   O681    1.503   .     D
S679   O682    1.681   .     S
O682   H683    0.991   .     S
S684   O685    1.501   .     D
S684   O686    1.498   .     D
S684   O687    1.682   .     S
O687   H688    0.991   .     S
C689   C714    1.455   .     S
C689   O727    1.311   .     A
C689   O730    1.305   .     A
C690   O729    1.311   .     A
C690   O728    1.305   .     A
C690   C713    1.455   .     S
C691   O731    1.315   .     A
C691   C709    1.487   .     S
C691   O734    1.318   .     A
C692   O733    1.315   .     A
C692   O732    1.318   .     A
C692   C710    1.487   .     S
C693   S735    1.850   .     S
C693   N726    1.395   .     A
C694   N725    1.402   .     A
C694   S740    1.850   .     S
C694   C179    1.463   1_565 S
C695   N726    1.395   .     A
C695   S745    1.850   .     S
C696   N725    1.402   .     A
C696   S750    1.850   .     S
C696   C177    1.463   1_565 S
C697   H721    1.083   .     S
C697   C714    1.403   .     A
C698   H722    1.076   .     S
C698   C713    1.395   .     A
C698   C528    1.380   1_655 S
C699   H723    1.083   .     S
C699   C713    1.403   .     A
C699   C525    1.387   1_655 S
C700   H724    1.076   .     S
C700   C714    1.395   .     A
C701   H717    1.078   .     S
C701   C711    1.404   .     A
C701   C705    1.386   .     A
C702   C706    1.404   .     A
C702   C712    1.406   .     A
C702   H718    1.082   .     S
C703   C707    1.386   .     A
C703   C712    1.404   .     A
C703   H719    1.078   .     S
C704   C708    1.404   .     A
C704   C711    1.406   .     A
C704   H720    1.082   .     S
C705   S755    1.772   .     S
C705   C709    1.410   .     A
C706   S760    1.773   .     S
C706   C710    1.418   .     A
C707   S765    1.772   .     S
C707   C710    1.410   .     A
C708   S770    1.773   .     S
C708   C709    1.418   .     A
C711   C1486   1.491   1_554 S
C712   C1485   1.491   .     S
Cu715  O727    1.969   .     S
Cu715  O733    1.957   .     S
Cu715  O729    1.969   .     S
Cu715  N725    2.048   .     S
Cu715  O731    1.957   .     S
Cu715  Cu716   2.725   .     S
Cu716  O734    1.957   .     S
Cu716  O728    1.969   .     S
Cu716  O732    1.957   .     S
Cu716  N726    2.048   .     S
Cu716  O730    1.969   .     S
S735   O737    1.500   .     D
S735   O738    1.674   .     S
S735   O736    1.503   .     D
O738   H739    0.991   .     S
S740   O743    1.674   .     S
S740   O742    1.498   .     D
S740   O741    1.500   .     D
O743   H744    0.991   .     S
S745   O747    1.500   .     D
S745   O748    1.674   .     S
S745   O746    1.503   .     D
O748   H749    0.991   .     S
S750   O752    1.498   .     D
S750   O751    1.500   .     D
S750   O753    1.674   .     S
O753   H754    0.991   .     S
S755   O756    1.496   .     D
S755   O757    1.503   .     D
S755   O758    1.681   .     S
O758   H759    0.991   .     S
S760   O763    1.682   .     S
S760   O762    1.498   .     D
S760   O761    1.501   .     D
O763   H764    0.991   .     S
S765   O766    1.496   .     D
S765   O767    1.503   .     D
S765   O768    1.681   .     S
O768   H769    0.991   .     S
S770   O771    1.501   .     D
S770   O772    1.498   .     D
S770   O773    1.682   .     S
O773   H774    0.991   .     S
C775   C800    1.455   .     S
C775   O813    1.311   .     A
C775   O816    1.305   .     A
C776   O815    1.311   .     A
C776   O814    1.305   .     A
C776   C799    1.455   .     S
C777   O817    1.315   .     A
C777   C795    1.487   .     S
C777   O820    1.318   .     A
C778   O819    1.315   .     A
C778   O818    1.318   .     A
C778   C796    1.487   .     S
C779   S821    1.850   .     S
C779   N812    1.395   .     A
C779   C1298   1.463   1_545 S
C780   N811    1.402   .     A
C780   S826    1.850   .     S
C780   C1039   1.463   .     S
C781   N812    1.395   .     A
C781   S831    1.850   .     S
C781   C1296   1.463   1_545 S
C782   N811    1.402   .     A
C782   S836    1.850   .     S
C782   C1037   1.463   .     S
C783   H807    1.083   .     S
C783   C800    1.403   .     A
C783   C957    1.387   1_455 S
C784   H808    1.076   .     S
C784   C799    1.395   .     A
C784   C872    1.380   .     S
C785   H809    1.083   .     S
C785   C799    1.403   .     A
C785   C869    1.387   .     S
C786   H810    1.076   .     S
C786   C800    1.395   .     A
C786   C956    1.380   1_455 S
C787   H803    1.078   .     S
C787   C797    1.404   .     A
C787   C791    1.386   .     A
C788   C792    1.404   .     A
C788   C798    1.406   .     A
C788   H804    1.082   .     S
C789   C793    1.386   .     A
C789   C798    1.404   .     A
C789   H805    1.078   .     S
C790   C794    1.404   .     A
C790   C797    1.406   .     A
C790   H806    1.082   .     S
C791   S841    1.772   .     S
C791   C795    1.410   .     A
C792   S846    1.773   .     S
C792   C796    1.418   .     A
C793   S851    1.772   .     S
C793   C796    1.410   .     A
C794   S856    1.773   .     S
C794   C795    1.418   .     A
C798   C23     1.491   1_556 S
Cu801  O813    1.969   .     S
Cu801  O819    1.957   .     S
Cu801  O815    1.969   .     S
Cu801  N811    2.048   .     S
Cu801  O817    1.957   .     S
Cu801  Cu802   2.725   .     S
Cu802  O820    1.957   .     S
Cu802  O814    1.969   .     S
Cu802  O818    1.957   .     S
Cu802  N812    2.048   .     S
Cu802  O816    1.969   .     S
S821   O823    1.500   .     D
S821   O824    1.674   .     S
S821   O822    1.503   .     D
O824   H825    0.991   .     S
S826   O829    1.674   .     S
S826   O828    1.498   .     D
S826   O827    1.500   .     D
O829   H830    0.991   .     S
S831   O833    1.500   .     D
S831   O834    1.674   .     S
S831   O832    1.503   .     D
O834   H835    0.991   .     S
S836   O838    1.498   .     D
S836   O837    1.500   .     D
S836   O839    1.674   .     S
O839   H840    0.991   .     S
S841   O842    1.496   .     D
S841   O843    1.503   .     D
S841   O844    1.681   .     S
O844   H845    0.991   .     S
S846   O849    1.682   .     S
S846   O848    1.498   .     D
S846   O847    1.501   .     D
O849   H850    0.991   .     S
S851   O852    1.496   .     D
S851   O853    1.503   .     D
S851   O854    1.681   .     S
O854   H855    0.991   .     S
S856   O857    1.501   .     D
S856   O858    1.498   .     D
S856   O859    1.682   .     S
O859   H860    0.991   .     S
C861   C886    1.455   .     S
C861   O899    1.311   .     A
C861   O902    1.305   .     A
C862   O901    1.311   .     A
C862   O900    1.305   .     A
C862   C885    1.455   .     S
C863   O903    1.315   .     A
C863   C881    1.487   .     S
C863   O906    1.318   .     A
C864   O905    1.315   .     A
C864   O904    1.318   .     A
C864   C882    1.487   .     S
C865   S907    1.850   .     S
C865   N898    1.395   .     A
C865   C1384   1.463   1_545 S
C866   N897    1.402   .     A
C866   S912    1.850   .     S
C866   C1125   1.463   .     S
C867   N898    1.395   .     A
C867   S917    1.850   .     S
C867   C1382   1.463   1_545 S
C868   N897    1.402   .     A
C868   S922    1.850   .     S
C868   C1123   1.463   .     S
C869   H893    1.083   .     S
C869   C886    1.403   .     A
C870   H894    1.076   .     S
C870   C885    1.395   .     A
C870   C958    1.380   .     S
C871   H895    1.083   .     S
C871   C885    1.403   .     A
C871   C955    1.387   .     S
C872   H896    1.076   .     S
C872   C886    1.395   .     A
C873   H889    1.078   .     S
C873   C883    1.404   .     A
C873   C877    1.386   .     A
C874   C878    1.404   .     A
C874   C884    1.406   .     A
C874   H890    1.082   .     S
C875   C879    1.386   .     A
C875   C884    1.404   .     A
C875   H891    1.078   .     S
C876   C880    1.404   .     A
C876   C883    1.406   .     A
C876   H892    1.082   .     S
C877   S927    1.772   .     S
C877   C881    1.410   .     A
C878   S932    1.773   .     S
C878   C882    1.418   .     A
C879   S937    1.772   .     S
C879   C882    1.410   .     A
C880   S942    1.773   .     S
C880   C881    1.418   .     A
C884   C109    1.491   1_556 S
Cu887  O899    1.969   .     S
Cu887  O905    1.957   .     S
Cu887  O901    1.969   .     S
Cu887  N897    2.048   .     S
Cu887  O903    1.957   .     S
Cu887  Cu888   2.725   .     S
Cu888  O906    1.957   .     S
Cu888  O900    1.969   .     S
Cu888  O904    1.957   .     S
Cu888  N898    2.048   .     S
Cu888  O902    1.969   .     S
S907   O909    1.500   .     D
S907   O910    1.674   .     S
S907   O908    1.503   .     D
O910   H911    0.991   .     S
S912   O915    1.674   .     S
S912   O914    1.498   .     D
S912   O913    1.500   .     D
O915   H916    0.991   .     S
S917   O919    1.500   .     D
S917   O920    1.674   .     S
S917   O918    1.503   .     D
O920   H921    0.991   .     S
S922   O924    1.498   .     D
S922   O923    1.500   .     D
S922   O925    1.674   .     S
O925   H926    0.991   .     S
S927   O928    1.496   .     D
S927   O929    1.503   .     D
S927   O930    1.681   .     S
O930   H931    0.991   .     S
S932   O935    1.682   .     S
S932   O934    1.498   .     D
S932   O933    1.501   .     D
O935   H936    0.991   .     S
S937   O938    1.496   .     D
S937   O939    1.503   .     D
S937   O940    1.681   .     S
O940   H941    0.991   .     S
S942   O943    1.501   .     D
S942   O944    1.498   .     D
S942   O945    1.682   .     S
O945   H946    0.991   .     S
C947   C972    1.455   .     S
C947   O985    1.311   .     A
C947   O988    1.305   .     A
C948   O987    1.311   .     A
C948   O986    1.305   .     A
C948   C971    1.455   .     S
C949   O989    1.315   .     A
C949   C967    1.487   .     S
C949   O992    1.318   .     A
C950   O991    1.315   .     A
C950   O990    1.318   .     A
C950   C968    1.487   .     S
C951   S993    1.850   .     S
C951   N984    1.395   .     A
C951   C1470   1.463   1_545 S
C952   N983    1.402   .     A
C952   S998    1.850   .     S
C952   C1211   1.463   .     S
C953   N984    1.395   .     A
C953   S1003   1.850   .     S
C953   C1468   1.463   1_545 S
C954   N983    1.402   .     A
C954   S1008   1.850   .     S
C954   C1209   1.463   .     S
C955   H979    1.083   .     S
C955   C972    1.403   .     A
C956   H980    1.076   .     S
C956   C971    1.395   .     A
C956   C786    1.380   1_655 S
C957   H981    1.083   .     S
C957   C971    1.403   .     A
C957   C783    1.387   1_655 S
C958   H982    1.076   .     S
C958   C972    1.395   .     A
C959   H975    1.078   .     S
C959   C969    1.404   .     A
C959   C963    1.386   .     A
C960   C964    1.404   .     A
C960   C970    1.406   .     A
C960   H976    1.082   .     S
C961   C965    1.386   .     A
C961   C970    1.404   .     A
C961   H977    1.078   .     S
C962   C966    1.404   .     A
C962   C969    1.406   .     A
C962   H978    1.082   .     S
C963   S1013   1.772   .     S
C963   C967    1.410   .     A
C964   S1018   1.773   .     S
C964   C968    1.418   .     A
C965   S1023   1.772   .     S
C965   C968    1.410   .     A
C966   S1028   1.773   .     S
C966   C967    1.418   .     A
C970   C195    1.491   1_556 S
Cu973  O985    1.969   .     S
Cu973  O991    1.957   .     S
Cu973  O987    1.969   .     S
Cu973  N983    2.048   .     S
Cu973  O989    1.957   .     S
Cu973  Cu974   2.725   .     S
Cu974  O992    1.957   .     S
Cu974  O986    1.969   .     S
Cu974  O990    1.957   .     S
Cu974  N984    2.048   .     S
Cu974  O988    1.969   .     S
S993   O995    1.500   .     D
S993   O996    1.674   .     S
S993   O994    1.503   .     D
O996   H997    0.991   .     S
S998   O1001   1.674   .     S
S998   O1000   1.498   .     D
S998   O999    1.500   .     D
O1001  H1002   0.991   .     S
S1003  O1005   1.500   .     D
S1003  O1006   1.674   .     S
S1003  O1004   1.503   .     D
O1006  H1007   0.991   .     S
S1008  O1010   1.498   .     D
S1008  O1009   1.500   .     D
S1008  O1011   1.674   .     S
O1011  H1012   0.991   .     S
S1013  O1014   1.496   .     D
S1013  O1015   1.503   .     D
S1013  O1016   1.681   .     S
O1016  H1017   0.991   .     S
S1018  O1021   1.682   .     S
S1018  O1020   1.498   .     D
S1018  O1019   1.501   .     D
O1021  H1022   0.991   .     S
S1023  O1024   1.496   .     D
S1023  O1025   1.503   .     D
S1023  O1026   1.681   .     S
O1026  H1027   0.991   .     S
S1028  O1029   1.501   .     D
S1028  O1030   1.498   .     D
S1028  O1031   1.682   .     S
O1031  H1032   0.991   .     S
C1033  C1058   1.455   .     S
C1033  O1071   1.311   .     A
C1033  O1074   1.305   .     A
C1034  O1073   1.311   .     A
C1034  O1072   1.305   .     A
C1034  C1057   1.455   .     S
C1035  O1075   1.315   .     A
C1035  C1053   1.487   .     S
C1035  O1078   1.318   .     A
C1036  O1077   1.315   .     A
C1036  O1076   1.318   .     A
C1036  C1054   1.487   .     S
C1037  S1079   1.850   .     S
C1037  N1070   1.395   .     A
C1038  N1069   1.402   .     A
C1038  S1084   1.850   .     S
C1038  C1297   1.463   .     S
C1039  N1070   1.395   .     A
C1039  S1089   1.850   .     S
C1040  N1069   1.402   .     A
C1040  S1094   1.850   .     S
C1040  C1295   1.463   .     S
C1041  H1065   1.083   .     S
C1041  C1058   1.403   .     A
C1041  C1215   1.387   1_455 S
C1042  H1066   1.076   .     S
C1042  C1057   1.395   .     A
C1042  C1130   1.380   .     S
C1043  H1067   1.083   .     S
C1043  C1057   1.403   .     A
C1043  C1127   1.387   .     S
C1044  H1068   1.076   .     S
C1044  C1058   1.395   .     A
C1044  C1214   1.380   1_455 S
C1045  H1061   1.078   .     S
C1045  C1055   1.404   .     A
C1045  C1049   1.386   .     A
C1046  C1050   1.404   .     A
C1046  C1056   1.406   .     A
C1046  H1062   1.082   .     S
C1047  C1051   1.386   .     A
C1047  C1056   1.404   .     A
C1047  H1063   1.078   .     S
C1048  C1052   1.404   .     A
C1048  C1055   1.406   .     A
C1048  H1064   1.082   .     S
C1049  S1099   1.772   .     S
C1049  C1053   1.410   .     A
C1050  S1104   1.773   .     S
C1050  C1054   1.418   .     A
C1051  S1109   1.772   .     S
C1051  C1054   1.410   .     A
C1052  S1114   1.773   .     S
C1052  C1053   1.418   .     A
C1056  C281    1.491   1_556 S
Cu1059 O1071   1.969   .     S
Cu1059 O1077   1.957   .     S
Cu1059 O1073   1.969   .     S
Cu1059 N1069   2.048   .     S
Cu1059 O1075   1.957   .     S
Cu1059 Cu1060  2.725   .     S
Cu1060 O1078   1.957   .     S
Cu1060 O1072   1.969   .     S
Cu1060 O1076   1.957   .     S
Cu1060 N1070   2.048   .     S
Cu1060 O1074   1.969   .     S
S1079  O1081   1.500   .     D
S1079  O1082   1.674   .     S
S1079  O1080   1.503   .     D
O1082  H1083   0.991   .     S
S1084  O1087   1.674   .     S
S1084  O1086   1.498   .     D
S1084  O1085   1.500   .     D
O1087  H1088   0.991   .     S
S1089  O1091   1.500   .     D
S1089  O1092   1.674   .     S
S1089  O1090   1.503   .     D
O1092  H1093   0.991   .     S
S1094  O1096   1.498   .     D
S1094  O1095   1.500   .     D
S1094  O1097   1.674   .     S
O1097  H1098   0.991   .     S
S1099  O1100   1.496   .     D
S1099  O1101   1.503   .     D
S1099  O1102   1.681   .     S
O1102  H1103   0.991   .     S
S1104  O1107   1.682   .     S
S1104  O1106   1.498   .     D
S1104  O1105   1.501   .     D
O1107  H1108   0.991   .     S
S1109  O1110   1.496   .     D
S1109  O1111   1.503   .     D
S1109  O1112   1.681   .     S
O1112  H1113   0.991   .     S
S1114  O1115   1.501   .     D
S1114  O1116   1.498   .     D
S1114  O1117   1.682   .     S
O1117  H1118   0.991   .     S
C1119  C1144   1.455   .     S
C1119  O1157   1.311   .     A
C1119  O1160   1.305   .     A
C1120  O1159   1.311   .     A
C1120  O1158   1.305   .     A
C1120  C1143   1.455   .     S
C1121  O1161   1.315   .     A
C1121  C1139   1.487   .     S
C1121  O1164   1.318   .     A
C1122  O1163   1.315   .     A
C1122  O1162   1.318   .     A
C1122  C1140   1.487   .     S
C1123  S1165   1.850   .     S
C1123  N1156   1.395   .     A
C1124  N1155   1.402   .     A
C1124  S1170   1.850   .     S
C1124  C1383   1.463   .     S
C1125  N1156   1.395   .     A
C1125  S1175   1.850   .     S
C1126  N1155   1.402   .     A
C1126  S1180   1.850   .     S
C1126  C1381   1.463   .     S
C1127  H1151   1.083   .     S
C1127  C1144   1.403   .     A
C1128  H1152   1.076   .     S
C1128  C1143   1.395   .     A
C1128  C1216   1.380   .     S
C1129  H1153   1.083   .     S
C1129  C1143   1.403   .     A
C1129  C1213   1.387   .     S
C1130  H1154   1.076   .     S
C1130  C1144   1.395   .     A
C1131  H1147   1.078   .     S
C1131  C1141   1.404   .     A
C1131  C1135   1.386   .     A
C1132  C1136   1.404   .     A
C1132  C1142   1.406   .     A
C1132  H1148   1.082   .     S
C1133  C1137   1.386   .     A
C1133  C1142   1.404   .     A
C1133  H1149   1.078   .     S
C1134  C1138   1.404   .     A
C1134  C1141   1.406   .     A
C1134  H1150   1.082   .     S
C1135  S1185   1.772   .     S
C1135  C1139   1.410   .     A
C1136  S1190   1.773   .     S
C1136  C1140   1.418   .     A
C1137  S1195   1.772   .     S
C1137  C1140   1.410   .     A
C1138  S1200   1.773   .     S
C1138  C1139   1.418   .     A
C1142  C367    1.491   1_556 S
Cu1145 O1157   1.969   .     S
Cu1145 O1163   1.957   .     S
Cu1145 O1159   1.969   .     S
Cu1145 N1155   2.048   .     S
Cu1145 O1161   1.957   .     S
Cu1145 Cu1146  2.725   .     S
Cu1146 O1164   1.957   .     S
Cu1146 O1158   1.969   .     S
Cu1146 O1162   1.957   .     S
Cu1146 N1156   2.048   .     S
Cu1146 O1160   1.969   .     S
S1165  O1167   1.500   .     D
S1165  O1168   1.674   .     S
S1165  O1166   1.503   .     D
O1168  H1169   0.991   .     S
S1170  O1173   1.674   .     S
S1170  O1172   1.498   .     D
S1170  O1171   1.500   .     D
O1173  H1174   0.991   .     S
S1175  O1177   1.500   .     D
S1175  O1178   1.674   .     S
S1175  O1176   1.503   .     D
O1178  H1179   0.991   .     S
S1180  O1182   1.498   .     D
S1180  O1181   1.500   .     D
S1180  O1183   1.674   .     S
O1183  H1184   0.991   .     S
S1185  O1186   1.496   .     D
S1185  O1187   1.503   .     D
S1185  O1188   1.681   .     S
O1188  H1189   0.991   .     S
S1190  O1193   1.682   .     S
S1190  O1192   1.498   .     D
S1190  O1191   1.501   .     D
O1193  H1194   0.991   .     S
S1195  O1196   1.496   .     D
S1195  O1197   1.503   .     D
S1195  O1198   1.681   .     S
O1198  H1199   0.991   .     S
S1200  O1201   1.501   .     D
S1200  O1202   1.498   .     D
S1200  O1203   1.682   .     S
O1203  H1204   0.991   .     S
C1205  C1230   1.455   .     S
C1205  O1243   1.311   .     A
C1205  O1246   1.305   .     A
C1206  O1245   1.311   .     A
C1206  O1244   1.305   .     A
C1206  C1229   1.455   .     S
C1207  O1247   1.315   .     A
C1207  C1225   1.487   .     S
C1207  O1250   1.318   .     A
C1208  O1249   1.315   .     A
C1208  O1248   1.318   .     A
C1208  C1226   1.487   .     S
C1209  S1251   1.850   .     S
C1209  N1242   1.395   .     A
C1210  N1241   1.402   .     A
C1210  S1256   1.850   .     S
C1210  C1469   1.463   .     S
C1211  N1242   1.395   .     A
C1211  S1261   1.850   .     S
C1212  N1241   1.402   .     A
C1212  S1266   1.850   .     S
C1212  C1467   1.463   .     S
C1213  H1237   1.083   .     S
C1213  C1230   1.403   .     A
C1214  H1238   1.076   .     S
C1214  C1229   1.395   .     A
C1214  C1044   1.380   1_655 S
C1215  H1239   1.083   .     S
C1215  C1229   1.403   .     A
C1215  C1041   1.387   1_655 S
C1216  H1240   1.076   .     S
C1216  C1230   1.395   .     A
C1217  H1233   1.078   .     S
C1217  C1227   1.404   .     A
C1217  C1221   1.386   .     A
C1218  C1222   1.404   .     A
C1218  C1228   1.406   .     A
C1218  H1234   1.082   .     S
C1219  C1223   1.386   .     A
C1219  C1228   1.404   .     A
C1219  H1235   1.078   .     S
C1220  C1224   1.404   .     A
C1220  C1227   1.406   .     A
C1220  H1236   1.082   .     S
C1221  S1271   1.772   .     S
C1221  C1225   1.410   .     A
C1222  S1276   1.773   .     S
C1222  C1226   1.418   .     A
C1223  S1281   1.772   .     S
C1223  C1226   1.410   .     A
C1224  S1286   1.773   .     S
C1224  C1225   1.418   .     A
C1228  C453    1.491   1_556 S
Cu1231 O1243   1.969   .     S
Cu1231 O1249   1.957   .     S
Cu1231 O1245   1.969   .     S
Cu1231 N1241   2.048   .     S
Cu1231 O1247   1.957   .     S
Cu1231 Cu1232  2.725   .     S
Cu1232 O1250   1.957   .     S
Cu1232 O1244   1.969   .     S
Cu1232 O1248   1.957   .     S
Cu1232 N1242   2.048   .     S
Cu1232 O1246   1.969   .     S
S1251  O1253   1.500   .     D
S1251  O1254   1.674   .     S
S1251  O1252   1.503   .     D
O1254  H1255   0.991   .     S
S1256  O1259   1.674   .     S
S1256  O1258   1.498   .     D
S1256  O1257   1.500   .     D
O1259  H1260   0.991   .     S
S1261  O1263   1.500   .     D
S1261  O1264   1.674   .     S
S1261  O1262   1.503   .     D
O1264  H1265   0.991   .     S
S1266  O1268   1.498   .     D
S1266  O1267   1.500   .     D
S1266  O1269   1.674   .     S
O1269  H1270   0.991   .     S
S1271  O1272   1.496   .     D
S1271  O1273   1.503   .     D
S1271  O1274   1.681   .     S
O1274  H1275   0.991   .     S
S1276  O1279   1.682   .     S
S1276  O1278   1.498   .     D
S1276  O1277   1.501   .     D
O1279  H1280   0.991   .     S
S1281  O1282   1.496   .     D
S1281  O1283   1.503   .     D
S1281  O1284   1.681   .     S
O1284  H1285   0.991   .     S
S1286  O1287   1.501   .     D
S1286  O1288   1.498   .     D
S1286  O1289   1.682   .     S
O1289  H1290   0.991   .     S
C1291  C1316   1.455   .     S
C1291  O1329   1.311   .     A
C1291  O1332   1.305   .     A
C1292  O1331   1.311   .     A
C1292  O1330   1.305   .     A
C1292  C1315   1.455   .     S
C1293  O1333   1.315   .     A
C1293  C1311   1.487   .     S
C1293  O1336   1.318   .     A
C1294  O1335   1.315   .     A
C1294  O1334   1.318   .     A
C1294  C1312   1.487   .     S
C1295  S1337   1.850   .     S
C1295  N1328   1.395   .     A
C1296  N1327   1.402   .     A
C1296  S1342   1.850   .     S
C1296  C781    1.463   1_565 S
C1297  N1328   1.395   .     A
C1297  S1347   1.850   .     S
C1298  N1327   1.402   .     A
C1298  S1352   1.850   .     S
C1298  C779    1.463   1_565 S
C1299  H1323   1.083   .     S
C1299  C1316   1.403   .     A
C1299  C1473   1.387   1_455 S
C1300  H1324   1.076   .     S
C1300  C1315   1.395   .     A
C1300  C1388   1.380   .     S
C1301  H1325   1.083   .     S
C1301  C1315   1.403   .     A
C1301  C1385   1.387   .     S
C1302  H1326   1.076   .     S
C1302  C1316   1.395   .     A
C1302  C1472   1.380   1_455 S
C1303  H1319   1.078   .     S
C1303  C1313   1.404   .     A
C1303  C1307   1.386   .     A
C1304  C1308   1.404   .     A
C1304  C1314   1.406   .     A
C1304  H1320   1.082   .     S
C1305  C1309   1.386   .     A
C1305  C1314   1.404   .     A
C1305  H1321   1.078   .     S
C1306  C1310   1.404   .     A
C1306  C1313   1.406   .     A
C1306  H1322   1.082   .     S
C1307  S1357   1.772   .     S
C1307  C1311   1.410   .     A
C1308  S1362   1.773   .     S
C1308  C1312   1.418   .     A
C1309  S1367   1.772   .     S
C1309  C1312   1.410   .     A
C1310  S1372   1.773   .     S
C1310  C1311   1.418   .     A
C1314  C539    1.491   1_556 S
Cu1317 O1329   1.969   .     S
Cu1317 O1335   1.957   .     S
Cu1317 O1331   1.969   .     S
Cu1317 N1327   2.048   .     S
Cu1317 O1333   1.957   .     S
Cu1317 Cu1318  2.725   .     S
Cu1318 O1336   1.957   .     S
Cu1318 O1330   1.969   .     S
Cu1318 O1334   1.957   .     S
Cu1318 N1328   2.048   .     S
Cu1318 O1332   1.969   .     S
S1337  O1339   1.500   .     D
S1337  O1340   1.674   .     S
S1337  O1338   1.503   .     D
O1340  H1341   0.991   .     S
S1342  O1345   1.674   .     S
S1342  O1344   1.498   .     D
S1342  O1343   1.500   .     D
O1345  H1346   0.991   .     S
S1347  O1349   1.500   .     D
S1347  O1350   1.674   .     S
S1347  O1348   1.503   .     D
O1350  H1351   0.991   .     S
S1352  O1354   1.498   .     D
S1352  O1353   1.500   .     D
S1352  O1355   1.674   .     S
O1355  H1356   0.991   .     S
S1357  O1358   1.496   .     D
S1357  O1359   1.503   .     D
S1357  O1360   1.681   .     S
O1360  H1361   0.991   .     S
S1362  O1365   1.682   .     S
S1362  O1364   1.498   .     D
S1362  O1363   1.501   .     D
O1365  H1366   0.991   .     S
S1367  O1368   1.496   .     D
S1367  O1369   1.503   .     D
S1367  O1370   1.681   .     S
O1370  H1371   0.991   .     S
S1372  O1373   1.501   .     D
S1372  O1374   1.498   .     D
S1372  O1375   1.682   .     S
O1375  H1376   0.991   .     S
C1377  C1402   1.455   .     S
C1377  O1415   1.311   .     A
C1377  O1418   1.305   .     A
C1378  O1417   1.311   .     A
C1378  O1416   1.305   .     A
C1378  C1401   1.455   .     S
C1379  O1419   1.315   .     A
C1379  C1397   1.487   .     S
C1379  O1422   1.318   .     A
C1380  O1421   1.315   .     A
C1380  O1420   1.318   .     A
C1380  C1398   1.487   .     S
C1381  S1423   1.850   .     S
C1381  N1414   1.395   .     A
C1382  N1413   1.402   .     A
C1382  S1428   1.850   .     S
C1382  C867    1.463   1_565 S
C1383  N1414   1.395   .     A
C1383  S1433   1.850   .     S
C1384  N1413   1.402   .     A
C1384  S1438   1.850   .     S
C1384  C865    1.463   1_565 S
C1385  H1409   1.083   .     S
C1385  C1402   1.403   .     A
C1386  H1410   1.076   .     S
C1386  C1401   1.395   .     A
C1386  C1474   1.380   .     S
C1387  H1411   1.083   .     S
C1387  C1401   1.403   .     A
C1387  C1471   1.387   .     S
C1388  H1412   1.076   .     S
C1388  C1402   1.395   .     A
C1389  H1405   1.078   .     S
C1389  C1399   1.404   .     A
C1389  C1393   1.386   .     A
C1390  C1394   1.404   .     A
C1390  C1400   1.406   .     A
C1390  H1406   1.082   .     S
C1391  C1395   1.386   .     A
C1391  C1400   1.404   .     A
C1391  H1407   1.078   .     S
C1392  C1396   1.404   .     A
C1392  C1399   1.406   .     A
C1392  H1408   1.082   .     S
C1393  S1443   1.772   .     S
C1393  C1397   1.410   .     A
C1394  S1448   1.773   .     S
C1394  C1398   1.418   .     A
C1395  S1453   1.772   .     S
C1395  C1398   1.410   .     A
C1396  S1458   1.773   .     S
C1396  C1397   1.418   .     A
C1400  C625    1.491   1_556 S
Cu1403 O1415   1.969   .     S
Cu1403 O1421   1.957   .     S
Cu1403 O1417   1.969   .     S
Cu1403 N1413   2.048   .     S
Cu1403 O1419   1.957   .     S
Cu1403 Cu1404  2.725   .     S
Cu1404 O1422   1.957   .     S
Cu1404 O1416   1.969   .     S
Cu1404 O1420   1.957   .     S
Cu1404 N1414   2.048   .     S
Cu1404 O1418   1.969   .     S
S1423  O1425   1.500   .     D
S1423  O1426   1.674   .     S
S1423  O1424   1.503   .     D
O1426  H1427   0.991   .     S
S1428  O1431   1.674   .     S
S1428  O1430   1.498   .     D
S1428  O1429   1.500   .     D
O1431  H1432   0.991   .     S
S1433  O1435   1.500   .     D
S1433  O1436   1.674   .     S
S1433  O1434   1.503   .     D
O1436  H1437   0.991   .     S
S1438  O1440   1.498   .     D
S1438  O1439   1.500   .     D
S1438  O1441   1.674   .     S
O1441  H1442   0.991   .     S
S1443  O1444   1.496   .     D
S1443  O1445   1.503   .     D
S1443  O1446   1.681   .     S
O1446  H1447   0.991   .     S
S1448  O1451   1.682   .     S
S1448  O1450   1.498   .     D
S1448  O1449   1.501   .     D
O1451  H1452   0.991   .     S
S1453  O1454   1.496   .     D
S1453  O1455   1.503   .     D
S1453  O1456   1.681   .     S
O1456  H1457   0.991   .     S
S1458  O1459   1.501   .     D
S1458  O1460   1.498   .     D
S1458  O1461   1.682   .     S
O1461  H1462   0.991   .     S
C1463  C1488   1.455   .     S
C1463  O1501   1.311   .     A
C1463  O1504   1.305   .     A
C1464  O1503   1.311   .     A
C1464  O1502   1.305   .     A
C1464  C1487   1.455   .     S
C1465  O1505   1.315   .     A
C1465  C1483   1.487   .     S
C1465  O1508   1.318   .     A
C1466  O1507   1.315   .     A
C1466  O1506   1.318   .     A
C1466  C1484   1.487   .     S
C1467  S1509   1.850   .     S
C1467  N1500   1.395   .     A
C1468  N1499   1.402   .     A
C1468  S1514   1.850   .     S
C1468  C953    1.463   1_565 S
C1469  N1500   1.395   .     A
C1469  S1519   1.850   .     S
C1470  N1499   1.402   .     A
C1470  S1524   1.850   .     S
C1470  C951    1.463   1_565 S
C1471  H1495   1.083   .     S
C1471  C1488   1.403   .     A
C1472  H1496   1.076   .     S
C1472  C1487   1.395   .     A
C1472  C1302   1.380   1_655 S
C1473  H1497   1.083   .     S
C1473  C1487   1.403   .     A
C1473  C1299   1.387   1_655 S
C1474  H1498   1.076   .     S
C1474  C1488   1.395   .     A
C1475  H1491   1.078   .     S
C1475  C1485   1.404   .     A
C1475  C1479   1.386   .     A
C1476  C1480   1.404   .     A
C1476  C1486   1.406   .     A
C1476  H1492   1.082   .     S
C1477  C1481   1.386   .     A
C1477  C1486   1.404   .     A
C1477  H1493   1.078   .     S
C1478  C1482   1.404   .     A
C1478  C1485   1.406   .     A
C1478  H1494   1.082   .     S
C1479  S1529   1.772   .     S
C1479  C1483   1.410   .     A
C1480  S1534   1.773   .     S
C1480  C1484   1.418   .     A
C1481  S1539   1.772   .     S
C1481  C1484   1.410   .     A
C1482  S1544   1.773   .     S
C1482  C1483   1.418   .     A
C1486  C711    1.491   1_556 S
Cu1489 O1501   1.969   .     S
Cu1489 O1507   1.957   .     S
Cu1489 O1503   1.969   .     S
Cu1489 N1499   2.048   .     S
Cu1489 O1505   1.957   .     S
Cu1489 Cu1490  2.725   .     S
Cu1490 O1508   1.957   .     S
Cu1490 O1502   1.969   .     S
Cu1490 O1506   1.957   .     S
Cu1490 N1500   2.048   .     S
Cu1490 O1504   1.969   .     S
S1509  O1511   1.500   .     D
S1509  O1512   1.674   .     S
S1509  O1510   1.503   .     D
O1512  H1513   0.991   .     S
S1514  O1517   1.674   .     S
S1514  O1516   1.498   .     D
S1514  O1515   1.500   .     D
O1517  H1518   0.991   .     S
S1519  O1521   1.500   .     D
S1519  O1522   1.674   .     S
S1519  O1520   1.503   .     D
O1522  H1523   0.991   .     S
S1524  O1526   1.498   .     D
S1524  O1525   1.500   .     D
S1524  O1527   1.674   .     S
O1527  H1528   0.991   .     S
S1529  O1530   1.496   .     D
S1529  O1531   1.503   .     D
S1529  O1532   1.681   .     S
O1532  H1533   0.991   .     S
S1534  O1537   1.682   .     S
S1534  O1536   1.498   .     D
S1534  O1535   1.501   .     D
O1537  H1538   0.991   .     S
S1539  O1540   1.496   .     D
S1539  O1541   1.503   .     D
S1539  O1542   1.681   .     S
O1542  H1543   0.991   .     S
S1544  O1545   1.501   .     D
S1544  O1546   1.498   .     D
S1544  O1547   1.682   .     S
O1547  H1548   0.991   .     S
