data_str_m1_o1_o2_pcu_sym.78
_audit_creation_date              2020-01-03
_audit_creation_method            'Materials Studio'
_symmetry_space_group_name_H-M    'P1'
_symmetry_Int_Tables_number       1
_symmetry_cell_setting            triclinic
loop_
_symmetry_equiv_pos_as_xyz
  x,y,z
_cell_length_a                    36.8826
_cell_length_b                    36.8699
_cell_length_c                    35.0352
_cell_angle_alpha                 90.2629
_cell_angle_beta                  89.6194
_cell_angle_gamma                 90.3569
loop_
_atom_site_label
_atom_site_type_symbol
_atom_site_fract_x
_atom_site_fract_y
_atom_site_fract_z
_atom_site_U_iso_or_equiv
_atom_site_adp_type
_atom_site_occupancy
C1     C     0.21987   0.01237   0.04246   0.00000  Uiso   1.00
C2     C     0.03063   0.26378   0.45783   0.00000  Uiso   1.00
C3     C     0.34661   0.39957   0.75108   0.00000  Uiso   1.00
C4     C     0.39954   0.15386   0.24615   0.00000  Uiso   1.00
C5     C     0.10071   0.34583   0.75359   0.00000  Uiso   1.00
C6     C     0.34608   0.39951   0.24595   0.00000  Uiso   1.00
C7     C     0.15389   0.10040   0.75246   0.00000  Uiso   1.00
C8     C     0.09662   0.15006   0.74607   0.00000  Uiso   1.00
C9     C     0.40296   0.34936   0.25132   0.00000  Uiso   1.00
C10    C     0.14968   0.40376   0.74617   0.00000  Uiso   1.00
C11    C     0.35064   0.09584   0.25345   0.00000  Uiso   1.00
C12    C     0.40464   0.35053   0.74493   0.00000  Uiso   1.00
C13    C     0.23494   0.47010   0.54305   0.00000  Uiso   1.00
C14    C     0.09646   0.14984   0.25248   0.00000  Uiso   1.00
C15    C     0.35109   0.09476   0.74345   0.00000  Uiso   1.00
C16    C     0.15076   0.40218   0.25011   0.00000  Uiso   1.00
C17    C     0.25041   0.00107   0.10235   0.00000  Uiso   1.00
C18    C     0.25051   0.49986   0.89779   0.00000  Uiso   1.00
C19    C     0.49731   0.24983   0.10287   0.00000  Uiso   1.00
C20    C     0.49882   0.25024   0.89775   0.00000  Uiso   1.00
C21    C     0.00013   0.24984   0.60241   0.00000  Uiso   1.00
C22    C     0.00027   0.25008   0.39778   0.00000  Uiso   1.00
C23    C     0.24653   0.00011   0.60319   0.00000  Uiso   1.00
C24    C     0.23650   0.03262   0.45814   0.00000  Uiso   1.00
C25    C     0.24914   0.00067   0.39796   0.00000  Uiso   1.00
C26    C     0.19053   0.05783   0.01023   0.00000  Uiso   1.00
C27    C     0.15348   0.06700   0.99400   0.00000  Uiso   1.00
C28    C     0.31304   0.05970   0.98637   0.00000  Uiso   1.00
C29    C     0.35161   0.06915   0.99889   0.00000  Uiso   1.00
C30    C     0.44097   0.18821   0.01121   0.00000  Uiso   1.00
C31    C     0.43116   0.15047   0.99639   0.00000  Uiso   1.00
C32    C     0.43770   0.31090   0.98946   0.00000  Uiso   1.00
C33    C     0.43026   0.34691   0.00967   0.00000  Uiso   1.00
C34    C     0.31021   0.44213   0.01114   0.00000  Uiso   1.00
C35    C     0.03162   0.23879   0.54248   0.00000  Uiso   1.00
C36    C     0.34736   0.43126   0.99588   0.00000  Uiso   1.00
C37    C     0.18907   0.43957   0.98854   0.00000  Uiso   1.00
C38    C     0.15030   0.42983   0.00074   0.00000  Uiso   1.00
C39    C     0.05111   0.31410   0.01220   0.00000  Uiso   1.00
C40    C     0.06028   0.35169   0.99682   0.00000  Uiso   1.00
C41    C     0.05913   0.19153   0.98751   0.00000  Uiso   1.00
C42    C     0.07038   0.15330   0.99922   0.00000  Uiso   1.00
C43    C     0.43903   0.30571   0.51154   0.00000  Uiso   1.00
C44    C     0.40137   0.31526   0.49725   0.00000  Uiso   1.00
C45    C     0.06008   0.31049   0.48849   0.00000  Uiso   1.00
C46    C     0.47099   0.23477   0.45830   0.00000  Uiso   1.00
C47    C     0.09784   0.32140   0.50209   0.00000  Uiso   1.00
C48    C     0.18685   0.44435   0.51119   0.00000  Uiso   1.00
C49    C     0.17418   0.40809   0.49520   0.00000  Uiso   1.00
C50    C     0.19522   0.06841   0.49023   0.00000  Uiso   1.00
C51    C     0.19282   0.10478   0.51109   0.00000  Uiso   1.00
C52    C     0.06278   0.19383   0.51064   0.00000  Uiso   1.00
C53    C     0.10065   0.18477   0.49591   0.00000  Uiso   1.00
C54    C     0.44043   0.18763   0.48750   0.00000  Uiso   1.00
C55    C     0.40211   0.17691   0.50030   0.00000  Uiso   1.00
C56    C     0.30699   0.05836   0.51491   0.00000  Uiso   1.00
C57    C     0.25783   0.03216   0.54453   0.00000  Uiso   1.00
C58    C     0.31979   0.09355   0.49646   0.00000  Uiso   1.00
C59    C     0.30591   0.43551   0.48412   0.00000  Uiso   1.00
C60    C     0.31208   0.39580   0.49486   0.00000  Uiso   1.00
C61    C     0.11501   0.45926   0.18961   0.00000  Uiso   1.00
C62    C     0.08173   0.47179   0.16813   0.00000  Uiso   1.00
C63    C     0.38886   0.03734   0.80245   0.00000  Uiso   1.00
C64    C     0.42281   0.02818   0.82471   0.00000  Uiso   1.00
C65    C     0.04033   0.11385   0.19071   0.00000  Uiso   1.00
C66    C     0.02978   0.08118   0.16658   0.00000  Uiso   1.00
C67    C     0.46257   0.38868   0.80350   0.00000  Uiso   1.00
C68    C     0.26087   0.47131   0.45912   0.00000  Uiso   1.00
C69    C     0.47377   0.42183   0.82673   0.00000  Uiso   1.00
C70    C     0.38644   0.03805   0.19259   0.00000  Uiso   1.00
C71    C     0.41863   0.02647   0.16822   0.00000  Uiso   1.00
C72    C     0.11269   0.46137   0.80689   0.00000  Uiso   1.00
C73    C     0.07945   0.47171   0.83043   0.00000  Uiso   1.00
C74    C     0.45194   0.37942   0.17916   0.00000  Uiso   1.00
C75    C     0.46561   0.41039   0.15447   0.00000  Uiso   1.00
C76    C     0.03563   0.11114   0.80058   0.00000  Uiso   1.00
C77    C     0.02291   0.07764   0.82195   0.00000  Uiso   1.00
C78    C     0.12521   0.09061   0.83612   0.00000  Uiso   1.00
C79    C     0.21849   0.00742   0.08206   0.00000  Uiso   1.00
C80    C     0.11942   0.06664   0.87050   0.00000  Uiso   1.00
C81    C     0.36407   0.41080   0.16239   0.00000  Uiso   1.00
C82    C     0.35649   0.43906   0.13314   0.00000  Uiso   1.00
C83    C     0.09009   0.37162   0.83806   0.00000  Uiso   1.00
C84    C     0.06333   0.36630   0.87020   0.00000  Uiso   1.00
C85    C     0.41005   0.12795   0.16125   0.00000  Uiso   1.00
C86    C     0.43518   0.12568   0.12693   0.00000  Uiso   1.00
C87    C     0.37238   0.41018   0.83468   0.00000  Uiso   1.00
C88    C     0.37347   0.43579   0.86804   0.00000  Uiso   1.00
C89    C     0.12897   0.08916   0.16181   0.00000  Uiso   1.00
C90    C     0.28146   0.01243   0.91746   0.00000  Uiso   1.00
C91    C     0.12931   0.06327   0.12828   0.00000  Uiso   1.00
C92    C     0.40726   0.12874   0.83406   0.00000  Uiso   1.00
C93    C     0.43094   0.12884   0.86870   0.00000  Uiso   1.00
C94    C     0.08408   0.37273   0.15966   0.00000  Uiso   1.00
C95    C     0.05534   0.37442   0.12854   0.00000  Uiso   1.00
C96    C     0.36310   0.21283   0.69418   0.00000  Uiso   1.00
C97    C     0.33159   0.22645   0.67009   0.00000  Uiso   1.00
C98    C     0.13884   0.28723   0.30212   0.00000  Uiso   1.00
C99    C     0.17270   0.27807   0.32472   0.00000  Uiso   1.00
C100   C     0.28970   0.36660   0.68957   0.00000  Uiso   1.00
C101   C     0.49235   0.21750   0.08223   0.00000  Uiso   1.00
C102   C     0.27196   0.33814   0.66395   0.00000  Uiso   1.00
C103   C     0.21233   0.13860   0.30467   0.00000  Uiso   1.00
C104   C     0.22332   0.17193   0.32786   0.00000  Uiso   1.00
C105   C     0.13631   0.28801   0.69250   0.00000  Uiso   1.00
C106   C     0.16852   0.27664   0.66805   0.00000  Uiso   1.00
C107   C     0.36316   0.21131   0.30733   0.00000  Uiso   1.00
C108   C     0.33027   0.22159   0.33135   0.00000  Uiso   1.00
C109   C     0.20855   0.13169   0.68622   0.00000  Uiso   1.00
C110   C     0.22541   0.16089   0.66132   0.00000  Uiso   1.00
C111   C     0.28893   0.36336   0.30656   0.00000  Uiso   1.00
C112   C     0.28098   0.01341   0.95783   0.00000  Uiso   1.00
C113   C     0.48581   0.28107   0.91755   0.00000  Uiso   1.00
C114   C     0.27777   0.33063   0.33028   0.00000  Uiso   1.00
C115   C     0.37708   0.34071   0.33530   0.00000  Uiso   1.00
C116   C     0.36787   0.31891   0.37019   0.00000  Uiso   1.00
C117   C     0.12274   0.16231   0.66230   0.00000  Uiso   1.00
C118   C     0.10434   0.18841   0.63618   0.00000  Uiso   1.00
C119   C     0.34176   0.12166   0.33805   0.00000  Uiso   1.00
C120   C     0.31649   0.11708   0.37147   0.00000  Uiso   1.00
C121   C     0.15950   0.37790   0.66144   0.00000  Uiso   1.00
C122   C     0.18440   0.37767   0.62695   0.00000  Uiso   1.00
C123   C     0.12219   0.16062   0.33604   0.00000  Uiso   1.00
C124   C     0.28268   0.49561   0.08184   0.00000  Uiso   1.00
C125   C     0.12257   0.18623   0.36944   0.00000  Uiso   1.00
C126   C     0.36304   0.32877   0.66058   0.00000  Uiso   1.00
C127   C     0.39134   0.31495   0.63274   0.00000  Uiso   1.00
C128   C     0.15864   0.37735   0.33203   0.00000  Uiso   1.00
C129   C     0.18281   0.37647   0.36589   0.00000  Uiso   1.00
C130   C     0.33920   0.12642   0.65728   0.00000  Uiso   1.00
C131   C     0.31240   0.12121   0.62507   0.00000  Uiso   1.00
C132   C     0.16073   0.48491   0.08992   0.00000  Uiso   1.00
C133   C     0.34366   0.01055   0.90657   0.00000  Uiso   1.00
C134   C     0.01482   0.15979   0.08907   0.00000  Uiso   1.00
C135   C     0.22030   0.48652   0.91816   0.00000  Uiso   1.00
C136   C     0.48601   0.34358   0.90702   0.00000  Uiso   1.00
C137   C     0.34031   0.01949   0.08816   0.00000  Uiso   1.00
C138   C     0.15932   0.49080   0.90621   0.00000  Uiso   1.00
C139   C     0.45346   0.31817   0.10250   0.00000  Uiso   1.00
C140   C     0.00621   0.15744   0.90851   0.00000  Uiso   1.00
C141   C     0.41108   0.23086   0.59078   0.00000  Uiso   1.00
C142   C     0.09367   0.26228   0.40704   0.00000  Uiso   1.00
C143   C     0.26502   0.41044   0.58639   0.00000  Uiso   1.00
C144   C     0.23800   0.09484   0.40640   0.00000  Uiso   1.00
C145   C     0.08904   0.26835   0.59113   0.00000  Uiso   1.00
C146   C     0.49977   0.28250   0.08266   0.00000  Uiso   1.00
C147   C     0.40856   0.24259   0.40841   0.00000  Uiso   1.00
C148   C     0.20258   0.06765   0.60366   0.00000  Uiso   1.00
C149   C     0.25090   0.40873   0.40917   0.00000  Uiso   1.00
C150   C     0.01064   0.21961   0.91821   0.00000  Uiso   1.00
C151   C     0.46802   0.25535   0.58223   0.00000  Uiso   1.00
C152   C     0.03121   0.26262   0.41744   0.00000  Uiso   1.00
C153   C     0.24170   0.46802   0.58221   0.00000  Uiso   1.00
C154   C     0.23762   0.03228   0.41773   0.00000  Uiso   1.00
C155   C     0.03231   0.24405   0.58200   0.00000  Uiso   1.00
C156   C     0.48661   0.21881   0.04277   0.00000  Uiso   1.00
C157   C     0.46992   0.23703   0.41817   0.00000  Uiso   1.00
C158   C     0.24894   0.03285   0.58313   0.00000  Uiso   1.00
C159   C     0.26006   0.46992   0.41905   0.00000  Uiso   1.00
C160   C     0.25074   0.00024   0.02138   0.00000  Uiso   1.00
C161   C     0.25090   0.49957   0.97862   0.00000  Uiso   1.00
C162   C     0.49695   0.25060   0.02182   0.00000  Uiso   1.00
C163   C     0.49731   0.25078   0.97884   0.00000  Uiso   1.00
C164   C     0.00058   0.24945   0.52147   0.00000  Uiso   1.00
C165   C     0.00080   0.24927   0.47863   0.00000  Uiso   1.00
C166   C     0.24700   0.00144   0.52232   0.00000  Uiso   1.00
C167   C     0.48348   0.28061   0.95778   0.00000  Uiso   1.00
C168   C     0.24796   0.00192   0.47927   0.00000  Uiso   1.00
C169   C     0.24981   0.00011   0.35530   0.00000  Uiso   1.00
C170   C     0.24896   0.49994   0.64503   0.00000  Uiso   1.00
C171   C     0.49998   0.25013   0.35514   0.00000  Uiso   1.00
C172   C     0.00007   0.25000   0.64491   0.00000  Uiso   1.00
C173   C     0.49979   0.25006   0.85520   0.00000  Uiso   1.00
C174   C     0.49918   0.24991   0.14498   0.00000  Uiso   1.00
C175   C     0.25003   0.00006   0.85515   0.00000  Uiso   1.00
C176   C     0.25012   0.00032   0.14485   0.00000  Uiso   1.00
C177   C     0.18117   0.07116   0.24831   0.00000  Uiso   1.00
C178   C     0.28158   0.48910   0.04254   0.00000  Uiso   1.00
C179   C     0.31904   0.42879   0.75115   0.00000  Uiso   1.00
C180   C     0.42882   0.18111   0.24815   0.00000  Uiso   1.00
C181   C     0.07124   0.31880   0.75184   0.00000  Uiso   1.00
C182   C     0.31904   0.42894   0.24829   0.00000  Uiso   1.00
C183   C     0.18102   0.07110   0.75153   0.00000  Uiso   1.00
C184   C     0.07115   0.31854   0.24762   0.00000  Uiso   1.00
C185   C     0.42890   0.18086   0.75125   0.00000  Uiso   1.00
C186   C     0.17886   0.43109   0.74819   0.00000  Uiso   1.00
C187   C     0.32124   0.06877   0.25181   0.00000  Uiso   1.00
C188   C     0.43134   0.32115   0.74800   0.00000  Uiso   1.00
C189   C     0.22095   0.48527   0.95834   0.00000  Uiso   1.00
C190   C     0.06900   0.17890   0.25143   0.00000  Uiso   1.00
C191   C     0.32125   0.06846   0.74756   0.00000  Uiso   1.00
C192   C     0.17923   0.43055   0.25093   0.00000  Uiso   1.00
C193   C     0.06911   0.17901   0.74826   0.00000  Uiso   1.00
C194   C     0.43073   0.32081   0.25117   0.00000  Uiso   1.00
C195   C     0.11896   0.40749   0.22860   0.00000  Uiso   1.00
C196   C     0.38282   0.08976   0.76446   0.00000  Uiso   1.00
C197   C     0.09151   0.11783   0.23083   0.00000  Uiso   1.00
C198   C     0.40955   0.38283   0.76575   0.00000  Uiso   1.00
C199   C     0.38227   0.09094   0.23118   0.00000  Uiso   1.00
C200   C     0.00650   0.28212   0.04360   0.00000  Uiso   1.00
C201   C     0.11806   0.40872   0.76822   0.00000  Uiso   1.00
C202   C     0.40771   0.38031   0.22813   0.00000  Uiso   1.00
C203   C     0.09074   0.11752   0.76597   0.00000  Uiso   1.00
C204   C     0.12048   0.09518   0.77241   0.00000  Uiso   1.00
C205   C     0.37848   0.40393   0.22406   0.00000  Uiso   1.00
C206   C     0.09572   0.37866   0.77449   0.00000  Uiso   1.00
C207   C     0.40456   0.12113   0.22493   0.00000  Uiso   1.00
C208   C     0.37947   0.40505   0.77144   0.00000  Uiso   1.00
C209   C     0.12140   0.09511   0.22509   0.00000  Uiso   1.00
C210   C     0.40516   0.11980   0.77086   0.00000  Uiso   1.00
C211   C     0.01190   0.22090   0.95836   0.00000  Uiso   1.00
C212   C     0.09568   0.37778   0.22279   0.00000  Uiso   1.00
C213   C     0.36841   0.15739   0.72816   0.00000  Uiso   1.00
C214   C     0.13328   0.33909   0.26304   0.00000  Uiso   1.00
C215   C     0.34224   0.36756   0.72853   0.00000  Uiso   1.00
C216   C     0.15923   0.13271   0.26720   0.00000  Uiso   1.00
C217   C     0.13236   0.34079   0.73139   0.00000  Uiso   1.00
C218   C     0.36797   0.15866   0.26845   0.00000  Uiso   1.00
C219   C     0.15942   0.13224   0.73048   0.00000  Uiso   1.00
C220   C     0.34049   0.36731   0.26652   0.00000  Uiso   1.00
C221   C     0.37008   0.34445   0.27199   0.00000  Uiso   1.00
C222   C     0.46928   0.26033   0.54261   0.00000  Uiso   1.00
C223   C     0.12995   0.15561   0.72585   0.00000  Uiso   1.00
C224   C     0.34558   0.12852   0.27450   0.00000  Uiso   1.00
C225   C     0.15479   0.37092   0.72513   0.00000  Uiso   1.00
C226   C     0.12932   0.15528   0.27277   0.00000  Uiso   1.00
C227   C     0.37246   0.34502   0.72348   0.00000  Uiso   1.00
C228   C     0.15615   0.36872   0.26908   0.00000  Uiso   1.00
C229   C     0.34659   0.12677   0.72145   0.00000  Uiso   1.00
C230   C     0.10086   0.34489   0.24341   0.00000  Uiso   1.00
C231   C     0.39986   0.15295   0.75095   0.00000  Uiso   1.00
C232   C     0.15409   0.10043   0.24614   0.00000  Uiso   1.00
H233   H     0.21080   0.05901   0.98665   0.00000  Uiso   1.00
H234   H     0.36451   0.04547   0.01284   0.00000  Uiso   1.00
H235   H     0.47998   0.44527   0.80798   0.00000  Uiso   1.00
H236   H     0.36683   0.05337   0.17492   0.00000  Uiso   1.00
H237   H     0.37330   0.01212   0.20137   0.00000  Uiso   1.00
H238   H     0.44073   0.01564   0.18617   0.00000  Uiso   1.00
H239   H     0.40985   0.00499   0.14776   0.00000  Uiso   1.00
H240   H     0.42890   0.04972   0.15156   0.00000  Uiso   1.00
H241   H     0.12571   0.48759   0.79883   0.00000  Uiso   1.00
H242   H     0.13225   0.44631   0.82486   0.00000  Uiso   1.00
H243   H     0.07097   0.44869   0.84875   0.00000  Uiso   1.00
H244   H     0.08612   0.49515   0.84930   0.00000  Uiso   1.00
H245   H     0.43955   0.20751   0.98704   0.00000  Uiso   1.00
H246   H     0.05677   0.47975   0.81158   0.00000  Uiso   1.00
H247   H     0.43044   0.36312   0.16492   0.00000  Uiso   1.00
H248   H     0.47611   0.36171   0.18107   0.00000  Uiso   1.00
H249   H     0.48807   0.42478   0.16917   0.00000  Uiso   1.00
H250   H     0.47668   0.39931   0.12706   0.00000  Uiso   1.00
H251   H     0.44349   0.42961   0.14809   0.00000  Uiso   1.00
H252   H     0.01024   0.12414   0.79067   0.00000  Uiso   1.00
H253   H     0.04953   0.13009   0.82067   0.00000  Uiso   1.00
H254   H     0.04518   0.06770   0.84001   0.00000  Uiso   1.00
H255   H     0.49956   0.08480   0.84108   0.00000  Uiso   1.00
H256   H     0.42125   0.19612   0.03393   0.00000  Uiso   1.00
H257   H     0.01450   0.05580   0.80172   0.00000  Uiso   1.00
H258   H     0.10759   0.11485   0.83983   0.00000  Uiso   1.00
H259   H     0.15417   0.09953   0.83598   0.00000  Uiso   1.00
H260   H     0.13192   0.04039   0.86287   0.00000  Uiso   1.00
H261   H     0.13269   0.07917   0.89599   0.00000  Uiso   1.00
H262   H     0.09028   0.06184   0.87760   0.00000  Uiso   1.00
H263   H     0.33772   0.39689   0.16930   0.00000  Uiso   1.00
H264   H     0.38251   0.39067   0.14918   0.00000  Uiso   1.00
H265   H     0.38220   0.45051   0.12146   0.00000  Uiso   1.00
H266   H     0.34029   0.42720   0.10931   0.00000  Uiso   1.00
H267   H     0.42506   0.13212   0.02070   0.00000  Uiso   1.00
H268   H     0.34118   0.46047   0.14826   0.00000  Uiso   1.00
H269   H     0.10935   0.39346   0.84643   0.00000  Uiso   1.00
H270   H     0.10544   0.34578   0.83480   0.00000  Uiso   1.00
H271   H     0.04368   0.34529   0.86092   0.00000  Uiso   1.00
H272   H     0.07729   0.35674   0.89628   0.00000  Uiso   1.00
H273   H     0.04920   0.39205   0.87699   0.00000  Uiso   1.00
H274   H     0.39930   0.15611   0.16301   0.00000  Uiso   1.00
H275   H     0.38691   0.10906   0.15610   0.00000  Uiso   1.00
H276   H     0.43681   0.09765   0.11538   0.00000  Uiso   1.00
H277   H     0.42512   0.14342   0.10367   0.00000  Uiso   1.00
H278   H     0.40716   0.15185   0.97758   0.00000  Uiso   1.00
H279   H     0.46256   0.13433   0.13581   0.00000  Uiso   1.00
H280   H     0.39166   0.38783   0.84040   0.00000  Uiso   1.00
H281   H     0.34434   0.39879   0.83317   0.00000  Uiso   1.00
H282   H     0.35461   0.45753   0.86047   0.00000  Uiso   1.00
H283   H     0.36439   0.42190   0.89452   0.00000  Uiso   1.00
H284   H     0.40095   0.44721   0.87255   0.00000  Uiso   1.00
H285   H     0.15635   0.10202   0.16393   0.00000  Uiso   1.00
H286   H     0.10913   0.11081   0.15524   0.00000  Uiso   1.00
H287   H     0.10192   0.06007   0.11543   0.00000  Uiso   1.00
H288   H     0.13809   0.03654   0.13838   0.00000  Uiso   1.00
H289   H     0.45419   0.13892   0.97974   0.00000  Uiso   1.00
H290   H     0.14800   0.07363   0.10547   0.00000  Uiso   1.00
H291   H     0.38400   0.11005   0.83942   0.00000  Uiso   1.00
H292   H     0.39683   0.15689   0.83067   0.00000  Uiso   1.00
H293   H     0.45491   0.14496   0.86057   0.00000  Uiso   1.00
H294   H     0.41666   0.14169   0.89329   0.00000  Uiso   1.00
H295   H     0.43922   0.10115   0.87702   0.00000  Uiso   1.00
H296   H     0.09594   0.34470   0.15953   0.00000  Uiso   1.00
H297   H     0.10604   0.39256   0.15178   0.00000  Uiso   1.00
H298   H     0.04644   0.40297   0.12323   0.00000  Uiso   1.00
H299   H     0.03132   0.35759   0.13693   0.00000  Uiso   1.00
H300   H     0.43408   0.28847   0.01029   0.00000  Uiso   1.00
H301   H     0.06719   0.36375   0.10132   0.00000  Uiso   1.00
H302   H     0.38371   0.19970   0.67553   0.00000  Uiso   1.00
H303   H     0.37529   0.23785   0.70649   0.00000  Uiso   1.00
H304   H     0.30718   0.23154   0.68804   0.00000  Uiso   1.00
H305   H     0.33958   0.25227   0.65605   0.00000  Uiso   1.00
H306   H     0.32480   0.20695   0.64707   0.00000  Uiso   1.00
H307   H     0.12563   0.26078   0.29524   0.00000  Uiso   1.00
H308   H     0.11948   0.30254   0.32052   0.00000  Uiso   1.00
H309   H     0.17441   0.29579   0.35019   0.00000  Uiso   1.00
H310   H     0.17098   0.24970   0.33519   0.00000  Uiso   1.00
H311   H     0.41835   0.30754   0.96551   0.00000  Uiso   1.00
H312   H     0.19760   0.28102   0.30702   0.00000  Uiso   1.00
H313   H     0.30653   0.38579   0.67229   0.00000  Uiso   1.00
H314   H     0.26553   0.38049   0.70126   0.00000  Uiso   1.00
H315   H     0.27261   0.31088   0.67706   0.00000  Uiso   1.00
H316   H     0.24322   0.34515   0.65943   0.00000  Uiso   1.00
H317   H     0.28458   0.33813   0.63506   0.00000  Uiso   1.00
H318   H     0.23834   0.12587   0.29580   0.00000  Uiso   1.00
H319   H     0.19757   0.11892   0.32324   0.00000  Uiso   1.00
H320   H     0.20149   0.17911   0.34816   0.00000  Uiso   1.00
H321   H     0.24791   0.16594   0.34482   0.00000  Uiso   1.00
H322   H     0.42841   0.36919   0.98859   0.00000  Uiso   1.00
H323   H     0.22953   0.19532   0.30905   0.00000  Uiso   1.00
H324   H     0.11666   0.30345   0.67507   0.00000  Uiso   1.00
H325   H     0.12313   0.26200   0.70098   0.00000  Uiso   1.00
H326   H     0.18956   0.26358   0.68571   0.00000  Uiso   1.00
H327   H     0.15943   0.25680   0.64601   0.00000  Uiso   1.00
H328   H     0.18025   0.30043   0.65333   0.00000  Uiso   1.00
H329   H     0.37586   0.23760   0.29902   0.00000  Uiso   1.00
H330   H     0.38317   0.19650   0.32500   0.00000  Uiso   1.00
H331   H     0.32061   0.19796   0.34802   0.00000  Uiso   1.00
H332   H     0.33765   0.24353   0.35173   0.00000  Uiso   1.00
H333   H     0.40460   0.34528   0.02630   0.00000  Uiso   1.00
H334   H     0.30823   0.23180   0.31298   0.00000  Uiso   1.00
H335   H     0.18872   0.11497   0.67011   0.00000  Uiso   1.00
H336   H     0.23278   0.11499   0.69203   0.00000  Uiso   1.00
H337   H     0.25011   0.17216   0.67515   0.00000  Uiso   1.00
H338   H     0.23397   0.14814   0.63383   0.00000  Uiso   1.00
H339   H     0.20594   0.18277   0.65546   0.00000  Uiso   1.00
H340   H     0.26310   0.37709   0.29938   0.00000  Uiso   1.00
H341   H     0.30508   0.38287   0.32397   0.00000  Uiso   1.00
H342   H     0.28709   0.33459   0.36009   0.00000  Uiso   1.00
H343   H     0.24773   0.32812   0.33117   0.00000  Uiso   1.00
H344   H     0.19767   0.07802   0.03274   0.00000  Uiso   1.00
H345   H     0.45275   0.35366   0.02955   0.00000  Uiso   1.00
H346   H     0.28907   0.30519   0.31831   0.00000  Uiso   1.00
H347   H     0.36220   0.36675   0.33785   0.00000  Uiso   1.00
H348   H     0.40670   0.34673   0.33547   0.00000  Uiso   1.00
H349   H     0.38714   0.29677   0.36987   0.00000  Uiso   1.00
H350   H     0.37119   0.33555   0.39645   0.00000  Uiso   1.00
H351   H     0.34008   0.30753   0.36907   0.00000  Uiso   1.00
H352   H     0.10384   0.13873   0.66638   0.00000  Uiso   1.00
H353   H     0.14735   0.15243   0.64752   0.00000  Uiso   1.00
H354   H     0.12492   0.20497   0.62075   0.00000  Uiso   1.00
H355   H     0.08739   0.17363   0.61492   0.00000  Uiso   1.00
H356   H     0.29071   0.44100   0.98712   0.00000  Uiso   1.00
H357   H     0.08678   0.20633   0.65355   0.00000  Uiso   1.00
H358   H     0.36111   0.14377   0.34519   0.00000  Uiso   1.00
H359   H     0.35708   0.09582   0.33472   0.00000  Uiso   1.00
H360   H     0.29684   0.09558   0.36365   0.00000  Uiso   1.00
H361   H     0.33180   0.10839   0.39711   0.00000  Uiso   1.00
H362   H     0.30241   0.14294   0.37811   0.00000  Uiso   1.00
H363   H     0.14767   0.40554   0.66392   0.00000  Uiso   1.00
H364   H     0.13727   0.35813   0.65586   0.00000  Uiso   1.00
H365   H     0.18916   0.34973   0.61626   0.00000  Uiso   1.00
H366   H     0.17254   0.39387   0.60346   0.00000  Uiso   1.00
H367   H     0.30165   0.42276   0.03382   0.00000  Uiso   1.00
H368   H     0.21036   0.38983   0.63558   0.00000  Uiso   1.00
H369   H     0.14183   0.13865   0.34197   0.00000  Uiso   1.00
H370   H     0.09437   0.14873   0.33430   0.00000  Uiso   1.00
H371   H     0.10261   0.20721   0.36250   0.00000  Uiso   1.00
H372   H     0.11442   0.17183   0.39597   0.00000  Uiso   1.00
H373   H     0.14971   0.19867   0.37356   0.00000  Uiso   1.00
H374   H     0.36196   0.35886   0.65759   0.00000  Uiso   1.00
H375   H     0.33690   0.31727   0.65151   0.00000  Uiso   1.00
H376   H     0.41567   0.30587   0.64835   0.00000  Uiso   1.00
H377   H     0.39934   0.33646   0.61224   0.00000  Uiso   1.00
H378   H     0.36578   0.42557   0.02004   0.00000  Uiso   1.00
H379   H     0.37946   0.29224   0.61617   0.00000  Uiso   1.00
H380   H     0.13507   0.35917   0.33762   0.00000  Uiso   1.00
H381   H     0.14875   0.40577   0.32917   0.00000  Uiso   1.00
H382   H     0.20529   0.39455   0.35764   0.00000  Uiso   1.00
H383   H     0.16839   0.38669   0.39170   0.00000  Uiso   1.00
H384   H     0.19327   0.34892   0.37145   0.00000  Uiso   1.00
H385   H     0.35887   0.10358   0.65625   0.00000  Uiso   1.00
H386   H     0.35430   0.15184   0.65142   0.00000  Uiso   1.00
H387   H     0.29787   0.14694   0.61969   0.00000  Uiso   1.00
H388   H     0.32717   0.11342   0.59846   0.00000  Uiso   1.00
H389   H     0.34506   0.40674   0.97756   0.00000  Uiso   1.00
H390   H     0.29276   0.09951   0.63246   0.00000  Uiso   1.00
H391   H     0.17254   0.46151   0.07399   0.00000  Uiso   1.00
H392   H     0.13930   0.49784   0.07262   0.00000  Uiso   1.00
H393   H     0.14773   0.47360   0.11571   0.00000  Uiso   1.00
H394   H     0.34012   0.48182   0.91567   0.00000  Uiso   1.00
H395   H     0.35840   0.02542   0.92908   0.00000  Uiso   1.00
H396   H     0.36196   0.01239   0.88137   0.00000  Uiso   1.00
H397   H     0.03822   0.17192   0.07330   0.00000  Uiso   1.00
H398   H     0.00146   0.13869   0.07126   0.00000  Uiso   1.00
H399   H     0.02614   0.14626   0.11438   0.00000  Uiso   1.00
H400   H     0.35930   0.45368   0.97860   0.00000  Uiso   1.00
H401   H     0.01383   0.34168   0.91894   0.00000  Uiso   1.00
H402   H     0.46839   0.35819   0.92752   0.00000  Uiso   1.00
H403   H     0.48671   0.36085   0.88120   0.00000  Uiso   1.00
H404   H     0.32789   0.04287   0.07316   0.00000  Uiso   1.00
H405   H     0.36092   0.00619   0.06970   0.00000  Uiso   1.00
H406   H     0.35461   0.03062   0.11336   0.00000  Uiso   1.00
H407   H     0.16441   0.02048   0.91094   0.00000  Uiso   1.00
H408   H     0.14398   0.47962   0.93088   0.00000  Uiso   1.00
H409   H     0.14121   0.48638   0.88154   0.00000  Uiso   1.00
H410   H     0.44357   0.30631   0.12979   0.00000  Uiso   1.00
H411   H     0.20729   0.43629   0.01345   0.00000  Uiso   1.00
H412   H     0.43860   0.30472   0.07848   0.00000  Uiso   1.00
H413   H     0.44591   0.34729   0.10170   0.00000  Uiso   1.00
H414   H     0.47719   0.16202   0.91605   0.00000  Uiso   1.00
H415   H     0.01920   0.14307   0.93230   0.00000  Uiso   1.00
H416   H     0.00868   0.13824   0.88411   0.00000  Uiso   1.00
H417   H     0.42417   0.20668   0.57747   0.00000  Uiso   1.00
H418   H     0.39030   0.24198   0.57130   0.00000  Uiso   1.00
H419   H     0.39670   0.22137   0.61657   0.00000  Uiso   1.00
H420   H     0.09100   0.23392   0.41763   0.00000  Uiso   1.00
H421   H     0.10797   0.27877   0.42870   0.00000  Uiso   1.00
H422   H     0.19757   0.42108   0.96499   0.00000  Uiso   1.00
H423   H     0.11177   0.26315   0.38165   0.00000  Uiso   1.00
H424   H     0.28724   0.42302   0.56923   0.00000  Uiso   1.00
H425   H     0.25084   0.38932   0.56939   0.00000  Uiso   1.00
H426   H     0.27812   0.39691   0.61079   0.00000  Uiso   1.00
H427   H     0.26543   0.09311   0.41938   0.00000  Uiso   1.00
H428   H     0.21982   0.11007   0.42587   0.00000  Uiso   1.00
H429   H     0.23974   0.11136   0.38019   0.00000  Uiso   1.00
H430   H     0.07648   0.29199   0.57671   0.00000  Uiso   1.00
H431   H     0.11091   0.25679   0.57296   0.00000  Uiso   1.00
H432   H     0.10160   0.27871   0.61752   0.00000  Uiso   1.00
H433   H     0.13454   0.42014   0.97573   0.00000  Uiso   1.00
H434   H     0.41401   0.27141   0.41672   0.00000  Uiso   1.00
H435   H     0.39296   0.22920   0.43160   0.00000  Uiso   1.00
H436   H     0.39053   0.24121   0.38354   0.00000  Uiso   1.00
H437   H     0.19235   0.05014   0.62734   0.00000  Uiso   1.00
H438   H     0.18831   0.06001   0.57699   0.00000  Uiso   1.00
H439   H     0.19496   0.09600   0.60982   0.00000  Uiso   1.00
H440   H     0.22182   0.41603   0.41277   0.00000  Uiso   1.00
H441   H     0.25949   0.39448   0.43495   0.00000  Uiso   1.00
H442   H     0.25506   0.38810   0.38634   0.00000  Uiso   1.00
H443   H     0.15053   0.40825   0.02266   0.00000  Uiso   1.00
H444   H     0.13396   0.07216   0.01767   0.00000  Uiso   1.00
H445   H     0.13620   0.45384   0.01305   0.00000  Uiso   1.00
H446   H     0.05285   0.29449   0.98811   0.00000  Uiso   1.00
H447   H     0.07124   0.30678   0.03438   0.00000  Uiso   1.00
H448   H     0.06784   0.37012   0.02066   0.00000  Uiso   1.00
H449   H     0.08327   0.34997   0.97632   0.00000  Uiso   1.00
H450   H     0.03657   0.36330   0.98180   0.00000  Uiso   1.00
H451   H     0.06237   0.21009   0.01240   0.00000  Uiso   1.00
H452   H     0.07677   0.20070   0.96349   0.00000  Uiso   1.00
H453   H     0.08016   0.13786   0.97389   0.00000  Uiso   1.00
H454   H     0.09229   0.15465   0.02069   0.00000  Uiso   1.00
H455   H     0.15538   0.09138   0.97567   0.00000  Uiso   1.00
H456   H     0.04710   0.13811   0.01189   0.00000  Uiso   1.00
H457   H     0.45840   0.30752   0.48717   0.00000  Uiso   1.00
H458   H     0.44699   0.32534   0.53429   0.00000  Uiso   1.00
H459   H     0.38323   0.32119   0.52189   0.00000  Uiso   1.00
H460   H     0.40282   0.33928   0.47839   0.00000  Uiso   1.00
H461   H     0.38961   0.29213   0.48087   0.00000  Uiso   1.00
H462   H     0.04072   0.31281   0.51287   0.00000  Uiso   1.00
H463   H     0.05189   0.32889   0.46505   0.00000  Uiso   1.00
H464   H     0.11498   0.32965   0.47741   0.00000  Uiso   1.00
H465   H     0.09606   0.34424   0.52271   0.00000  Uiso   1.00
H466   H     0.14307   0.04391   0.97658   0.00000  Uiso   1.00
H467   H     0.11126   0.29821   0.51634   0.00000  Uiso   1.00
H468   H     0.18747   0.46434   0.48756   0.00000  Uiso   1.00
H469   H     0.16757   0.45341   0.53382   0.00000  Uiso   1.00
H470   H     0.16874   0.38904   0.51901   0.00000  Uiso   1.00
H471   H     0.14919   0.41152   0.47817   0.00000  Uiso   1.00
H472   H     0.19573   0.39637   0.47654   0.00000  Uiso   1.00
H473   H     0.18884   0.04623   0.51061   0.00000  Uiso   1.00
H474   H     0.17539   0.06804   0.46649   0.00000  Uiso   1.00
H475   H     0.19516   0.12744   0.49048   0.00000  Uiso   1.00
H476   H     0.16670   0.10695   0.52677   0.00000  Uiso   1.00
H477   H     0.29410   0.06440   0.01073   0.00000  Uiso   1.00
H478   H     0.21536   0.10763   0.53189   0.00000  Uiso   1.00
H479   H     0.04369   0.19207   0.48630   0.00000  Uiso   1.00
H480   H     0.05479   0.17391   0.53300   0.00000  Uiso   1.00
H481   H     0.11874   0.17878   0.52026   0.00000  Uiso   1.00
H482   H     0.09954   0.16089   0.47660   0.00000  Uiso   1.00
H483   H     0.11226   0.20813   0.47983   0.00000  Uiso   1.00
H484   H     0.45923   0.18411   0.51192   0.00000  Uiso   1.00
H485   H     0.44871   0.16988   0.46327   0.00000  Uiso   1.00
H486   H     0.38555   0.16899   0.47522   0.00000  Uiso   1.00
H487   H     0.40306   0.15383   0.52045   0.00000  Uiso   1.00
H488   H     0.30569   0.07729   0.96190   0.00000  Uiso   1.00
H489   H     0.38837   0.19997   0.51489   0.00000  Uiso   1.00
H490   H     0.30765   0.03673   0.49276   0.00000  Uiso   1.00
H491   H     0.32591   0.05113   0.53829   0.00000  Uiso   1.00
H492   H     0.32864   0.11311   0.51876   0.00000  Uiso   1.00
H493   H     0.34279   0.08815   0.47673   0.00000  Uiso   1.00
H494   H     0.29745   0.10590   0.47988   0.00000  Uiso   1.00
H495   H     0.31472   0.45328   0.50814   0.00000  Uiso   1.00
H496   H     0.32199   0.44186   0.45802   0.00000  Uiso   1.00
H497   H     0.31795   0.37940   0.46890   0.00000  Uiso   1.00
H498   H     0.33510   0.39358   0.51487   0.00000  Uiso   1.00
H499   H     0.36848   0.07670   0.97376   0.00000  Uiso   1.00
H500   H     0.28758   0.38397   0.50891   0.00000  Uiso   1.00
H501   H     0.13315   0.44260   0.17100   0.00000  Uiso   1.00
H502   H     0.12982   0.48491   0.19627   0.00000  Uiso   1.00
H503   H     0.06695   0.49250   0.18554   0.00000  Uiso   1.00
H504   H     0.09011   0.48433   0.14051   0.00000  Uiso   1.00
H505   H     0.06340   0.44840   0.16256   0.00000  Uiso   1.00
H506   H     0.37609   0.01086   0.79483   0.00000  Uiso   1.00
H507   H     0.36938   0.05214   0.82124   0.00000  Uiso   1.00
H508   H     0.42858   0.05050   0.84582   0.00000  Uiso   1.00
H509   H     0.41814   0.00228   0.84128   0.00000  Uiso   1.00
H510   H     0.35132   0.09208   0.01950   0.00000  Uiso   1.00
H511   H     0.44673   0.02456   0.80469   0.00000  Uiso   1.00
H512   H     0.05662   0.13353   0.17359   0.00000  Uiso   1.00
H513   H     0.01415   0.12708   0.19796   0.00000  Uiso   1.00
H514   H     0.01298   0.06200   0.18351   0.00000  Uiso   1.00
H515   H     0.01367   0.09014   0.14168   0.00000  Uiso   1.00
H516   H     0.05424   0.06720   0.15600   0.00000  Uiso   1.00
H517   H     0.48851   0.37588   0.79448   0.00000  Uiso   1.00
H518   H     0.44775   0.36906   0.82205   0.00000  Uiso   1.00
H519   H     0.45211   0.42899   0.84715   0.00000  Uiso   1.00
H520   H     0.49835   0.41564   0.84359   0.00000  Uiso   1.00
O521   O     0.25000   0.00000   0.25000   0.00000  Uiso   1.00
O522   O     0.25000   0.46964   0.66317   0.00000  Uiso   1.00
O523   O     0.32081   0.12820   0.69299   0.00000  Uiso   1.00
O524   O     0.18615   0.01163   0.10140   0.00000  Uiso   1.00
O525   O     0.31046   0.02749   0.89735   0.00000  Uiso   1.00
O526   O     0.48861   0.18511   0.10157   0.00000  Uiso   1.00
O527   O     0.47078   0.30948   0.89697   0.00000  Uiso   1.00
O528   O     0.31502   0.49324   0.10095   0.00000  Uiso   1.00
O529   O     0.19139   0.47118   0.89880   0.00000  Uiso   1.00
O530   O     0.49183   0.31535   0.09983   0.00000  Uiso   1.00
O531   O     0.02485   0.18990   0.89866   0.00000  Uiso   1.00
O532   O     0.43553   0.25868   0.60153   0.00000  Uiso   1.00
O533   O     0.46964   0.25000   0.33683   0.00000  Uiso   1.00
O534   O     0.06001   0.27793   0.39718   0.00000  Uiso   1.00
O535   O     0.23929   0.43529   0.60097   0.00000  Uiso   1.00
O536   O     0.22278   0.06065   0.39693   0.00000  Uiso   1.00
O537   O     0.06444   0.24053   0.60114   0.00000  Uiso   1.00
O538   O     0.44028   0.22318   0.39881   0.00000  Uiso   1.00
O539   O     0.24080   0.06567   0.60016   0.00000  Uiso   1.00
O540   O     0.27272   0.43930   0.39999   0.00000  Uiso   1.00
O541   O     0.03036   0.25000   0.66317   0.00000  Uiso   1.00
O542   O     0.00000   0.21964   0.83683   0.00000  Uiso   1.00
O543   O    -0.00000   0.28036   0.16317   0.00000  Uiso   1.00
O544   O     0.28036   0.00000   0.83683   0.00000  Uiso   1.00
O545   O     0.21964   0.00000   0.16317   0.00000  Uiso   1.00
O546   O    -0.00000   0.28036   0.83683   0.00000  Uiso   1.00
O547   O     0.00000   0.21964   0.16317   0.00000  Uiso   1.00
O548   O     0.21964   0.00000   0.83683   0.00000  Uiso   1.00
O549   O     0.25000   0.00000   0.75000   0.00000  Uiso   1.00
O550   O     0.28036   0.00000   0.16317   0.00000  Uiso   1.00
O551   O     0.20725   0.07307   0.27282   0.00000  Uiso   1.00
O552   O     0.29274   0.42693   0.72718   0.00000  Uiso   1.00
O553   O     0.42693   0.20726   0.27282   0.00000  Uiso   1.00
O554   O     0.07307   0.29275   0.72718   0.00000  Uiso   1.00
O555   O     0.29274   0.42693   0.27282   0.00000  Uiso   1.00
O556   O     0.20725   0.07307   0.72718   0.00000  Uiso   1.00
O557   O     0.07307   0.29275   0.27282   0.00000  Uiso   1.00
O558   O     0.42693   0.20726   0.72718   0.00000  Uiso   1.00
O559   O     0.20725   0.42693   0.72718   0.00000  Uiso   1.00
O560   O     0.00000   0.25000   0.25000   0.00000  Uiso   1.00
O561   O     0.29274   0.07307   0.27282   0.00000  Uiso   1.00
O562   O     0.42693   0.29275   0.72718   0.00000  Uiso   1.00
O563   O     0.07307   0.20726   0.27282   0.00000  Uiso   1.00
O564   O     0.29274   0.07307   0.72718   0.00000  Uiso   1.00
O565   O     0.20725   0.42693   0.27282   0.00000  Uiso   1.00
O566   O     0.07307   0.20726   0.72718   0.00000  Uiso   1.00
O567   O     0.42693   0.29275   0.27282   0.00000  Uiso   1.00
O568   O     0.45725   0.32307   0.77282   0.00000  Uiso   1.00
O569   O     0.04274   0.17693   0.22718   0.00000  Uiso   1.00
O570   O     0.17693   0.45726   0.77282   0.00000  Uiso   1.00
O571   O     0.00000   0.25000   0.75000   0.00000  Uiso   1.00
O572   O     0.32307   0.04275   0.22718   0.00000  Uiso   1.00
O573   O     0.04274   0.17693   0.77282   0.00000  Uiso   1.00
O574   O     0.45725   0.32307   0.22718   0.00000  Uiso   1.00
O575   O     0.32307   0.04275   0.77282   0.00000  Uiso   1.00
O576   O     0.17693   0.45726   0.22718   0.00000  Uiso   1.00
O577   O     0.45725   0.17693   0.22718   0.00000  Uiso   1.00
O578   O     0.04274   0.32307   0.77282   0.00000  Uiso   1.00
O579   O     0.17693   0.04275   0.22718   0.00000  Uiso   1.00
O580   O     0.32307   0.45726   0.77282   0.00000  Uiso   1.00
O581   O     0.04274   0.32307   0.22718   0.00000  Uiso   1.00
O582   O     0.25000   0.46964   0.33683   0.00000  Uiso   1.00
O583   O     0.45725   0.17693   0.77282   0.00000  Uiso   1.00
O584   O     0.32307   0.45726   0.22718   0.00000  Uiso   1.00
O585   O     0.17693   0.04275   0.77282   0.00000  Uiso   1.00
O586   O     0.18794   0.02276   0.02538   0.00000  Uiso   1.00
O587   O     0.31258   0.02292   0.97618   0.00000  Uiso   1.00
O588   O     0.47631   0.18654   0.02556   0.00000  Uiso   1.00
O589   O     0.47343   0.31240   0.97577   0.00000  Uiso   1.00
O590   O     0.31348   0.47752   0.02566   0.00000  Uiso   1.00
O591   O     0.18920   0.47586   0.97695   0.00000  Uiso   1.00
O592   O     0.01591   0.31515   0.02774   0.00000  Uiso   1.00
O593   O     0.25000   0.03036   0.66317   0.00000  Uiso   1.00
O594   O     0.02258   0.18994   0.97698   0.00000  Uiso   1.00
O595   O     0.43717   0.27026   0.52568   0.00000  Uiso   1.00
O596   O     0.06195   0.27444   0.47598   0.00000  Uiso   1.00
O597   O     0.22156   0.43894   0.52607   0.00000  Uiso   1.00
O598   O     0.23064   0.06547   0.47599   0.00000  Uiso   1.00
O599   O     0.06413   0.22918   0.52549   0.00000  Uiso   1.00
O600   O     0.43961   0.22416   0.47684   0.00000  Uiso   1.00
O601   O     0.27180   0.06388   0.52950   0.00000  Uiso   1.00
O602   O     0.26867   0.43994   0.47854   0.00000  Uiso   1.00
O603   O     0.10462   0.44225   0.22436   0.00000  Uiso   1.00
O604   O     0.03036   0.25000   0.33683   0.00000  Uiso   1.00
O605   O     0.39793   0.05530   0.76788   0.00000  Uiso   1.00
O606   O     0.05695   0.10291   0.22519   0.00000  Uiso   1.00
O607   O     0.44385   0.39879   0.76987   0.00000  Uiso   1.00
O608   O     0.39778   0.05662   0.22612   0.00000  Uiso   1.00
O609   O     0.10264   0.44312   0.77268   0.00000  Uiso   1.00
O610   O     0.44223   0.39213   0.21628   0.00000  Uiso   1.00
O611   O     0.05632   0.10142   0.76783   0.00000  Uiso   1.00
O612   O     0.11763   0.07084   0.80212   0.00000  Uiso   1.00
O613   O     0.37993   0.42822   0.19446   0.00000  Uiso   1.00
O614   O     0.07113   0.38047   0.80433   0.00000  Uiso   1.00
O615   O     0.46964   0.25000   0.66317   0.00000  Uiso   1.00
O616   O     0.42915   0.11933   0.19503   0.00000  Uiso   1.00
O617   O     0.38119   0.42957   0.80112   0.00000  Uiso   1.00
O618   O     0.11981   0.07032   0.19565   0.00000  Uiso   1.00
O619   O     0.42804   0.11830   0.80160   0.00000  Uiso   1.00
O620   O     0.06847   0.38086   0.19593   0.00000  Uiso   1.00
O621   O     0.35099   0.19096   0.72511   0.00000  Uiso   1.00
O622   O     0.14769   0.30430   0.26693   0.00000  Uiso   1.00
O623   O     0.30834   0.35150   0.72108   0.00000  Uiso   1.00
O624   O     0.19362   0.14847   0.27097   0.00000  Uiso   1.00
O625   O     0.14760   0.30634   0.72621   0.00000  Uiso   1.00
O626   O     0.25000   0.03036   0.33683   0.00000  Uiso   1.00
O627   O     0.35256   0.19299   0.27338   0.00000  Uiso   1.00
O628   O     0.19426   0.14567   0.72120   0.00000  Uiso   1.00
O629   O     0.30576   0.35270   0.27171   0.00000  Uiso   1.00
O630   O     0.36804   0.32056   0.30209   0.00000  Uiso   1.00
O631   O     0.13201   0.18056   0.69675   0.00000  Uiso   1.00
O632   O     0.32159   0.12973   0.30487   0.00000  Uiso   1.00
O633   O     0.17906   0.36923   0.69492   0.00000  Uiso   1.00
O634   O     0.13105   0.17994   0.30234   0.00000  Uiso   1.00
O635   O     0.36997   0.31605   0.69801   0.00000  Uiso   1.00
O636   O     0.17913   0.36677   0.29949   0.00000  Uiso   1.00
Zn637  Zn    0.20660   0.00000   0.21760   0.00000  Uiso   1.00
Zn638  Zn    0.04340   0.25000   0.28240   0.00000  Uiso   1.00
Zn639  Zn    0.25000   0.45660   0.71760   0.00000  Uiso   1.00
Zn640  Zn    0.25000   0.04340   0.28240   0.00000  Uiso   1.00
Zn641  Zn    0.04340   0.25000   0.71760   0.00000  Uiso   1.00
Zn642  Zn    0.45660   0.25000   0.28240   0.00000  Uiso   1.00
Zn643  Zn    0.25000   0.04340   0.71760   0.00000  Uiso   1.00
Zn644  Zn    0.25000   0.45660   0.28240   0.00000  Uiso   1.00
Zn645  Zn    0.29340   0.00000   0.78240   0.00000  Uiso   1.00
Zn646  Zn   -0.00000   0.20660   0.21760   0.00000  Uiso   1.00
Zn647  Zn    0.00000   0.29340   0.78240   0.00000  Uiso   1.00
Zn648  Zn    0.29340   0.00000   0.21760   0.00000  Uiso   1.00
Zn649  Zn    0.20660   0.00000   0.78240   0.00000  Uiso   1.00
Zn650  Zn   -0.00000   0.29340   0.21760   0.00000  Uiso   1.00
Zn651  Zn    0.00000   0.20660   0.78240   0.00000  Uiso   1.00
Zn652  Zn    0.45660   0.25000   0.71760   0.00000  Uiso   1.00
C653   C     0.71987   0.01237   0.04246   0.00000  Uiso   1.00
C654   C     0.53063   0.26378   0.45783   0.00000  Uiso   1.00
C655   C     0.84661   0.39957   0.75108   0.00000  Uiso   1.00
C656   C     0.89954   0.15386   0.24615   0.00000  Uiso   1.00
C657   C     0.60071   0.34583   0.75359   0.00000  Uiso   1.00
C658   C     0.84608   0.39951   0.24595   0.00000  Uiso   1.00
C659   C     0.65389   0.10040   0.75246   0.00000  Uiso   1.00
C660   C     0.59662   0.15006   0.74607   0.00000  Uiso   1.00
C661   C     0.90296   0.34936   0.25132   0.00000  Uiso   1.00
C662   C     0.64968   0.40376   0.74617   0.00000  Uiso   1.00
C663   C     0.85064   0.09584   0.25345   0.00000  Uiso   1.00
C664   C     0.90464   0.35053   0.74493   0.00000  Uiso   1.00
C665   C     0.73494   0.47010   0.54305   0.00000  Uiso   1.00
C666   C     0.59646   0.14984   0.25248   0.00000  Uiso   1.00
C667   C     0.85109   0.09476   0.74345   0.00000  Uiso   1.00
C668   C     0.65076   0.40218   0.25011   0.00000  Uiso   1.00
C669   C     0.75041   0.00107   0.10235   0.00000  Uiso   1.00
C670   C     0.75051   0.49986   0.89779   0.00000  Uiso   1.00
C671   C     0.99731   0.24983   0.10287   0.00000  Uiso   1.00
C672   C     0.99882   0.25024   0.89775   0.00000  Uiso   1.00
C673   C     0.50013   0.24984   0.60241   0.00000  Uiso   1.00
C674   C     0.50027   0.25008   0.39778   0.00000  Uiso   1.00
C675   C     0.74653   0.00011   0.60319   0.00000  Uiso   1.00
C676   C     0.73650   0.03262   0.45814   0.00000  Uiso   1.00
C677   C     0.74914   0.00067   0.39796   0.00000  Uiso   1.00
C678   C     0.69053   0.05783   0.01023   0.00000  Uiso   1.00
C679   C     0.65348   0.06700   0.99400   0.00000  Uiso   1.00
C680   C     0.81304   0.05970   0.98637   0.00000  Uiso   1.00
C681   C     0.85161   0.06915   0.99889   0.00000  Uiso   1.00
C682   C     0.94097   0.18821   0.01121   0.00000  Uiso   1.00
C683   C     0.93116   0.15047   0.99639   0.00000  Uiso   1.00
C684   C     0.93770   0.31090   0.98946   0.00000  Uiso   1.00
C685   C     0.93026   0.34691   0.00967   0.00000  Uiso   1.00
C686   C     0.81021   0.44213   0.01114   0.00000  Uiso   1.00
C687   C     0.53162   0.23879   0.54248   0.00000  Uiso   1.00
C688   C     0.84736   0.43126   0.99588   0.00000  Uiso   1.00
C689   C     0.68907   0.43957   0.98854   0.00000  Uiso   1.00
C690   C     0.65030   0.42983   0.00074   0.00000  Uiso   1.00
C691   C     0.55111   0.31410   0.01220   0.00000  Uiso   1.00
C692   C     0.56028   0.35169   0.99682   0.00000  Uiso   1.00
C693   C     0.55913   0.19153   0.98751   0.00000  Uiso   1.00
C694   C     0.57038   0.15330   0.99922   0.00000  Uiso   1.00
C695   C     0.93903   0.30571   0.51154   0.00000  Uiso   1.00
C696   C     0.90137   0.31526   0.49725   0.00000  Uiso   1.00
C697   C     0.56008   0.31049   0.48849   0.00000  Uiso   1.00
C698   C     0.97099   0.23477   0.45830   0.00000  Uiso   1.00
C699   C     0.59784   0.32140   0.50209   0.00000  Uiso   1.00
C700   C     0.68685   0.44435   0.51119   0.00000  Uiso   1.00
C701   C     0.67418   0.40809   0.49520   0.00000  Uiso   1.00
C702   C     0.69522   0.06841   0.49023   0.00000  Uiso   1.00
C703   C     0.69282   0.10478   0.51109   0.00000  Uiso   1.00
C704   C     0.56278   0.19383   0.51064   0.00000  Uiso   1.00
C705   C     0.60065   0.18477   0.49591   0.00000  Uiso   1.00
C706   C     0.94043   0.18763   0.48750   0.00000  Uiso   1.00
C707   C     0.90211   0.17691   0.50030   0.00000  Uiso   1.00
C708   C     0.80699   0.05836   0.51491   0.00000  Uiso   1.00
C709   C     0.75783   0.03216   0.54453   0.00000  Uiso   1.00
C710   C     0.81979   0.09355   0.49646   0.00000  Uiso   1.00
C711   C     0.80591   0.43551   0.48412   0.00000  Uiso   1.00
C712   C     0.81208   0.39580   0.49486   0.00000  Uiso   1.00
C713   C     0.61501   0.45926   0.18961   0.00000  Uiso   1.00
C714   C     0.58173   0.47179   0.16813   0.00000  Uiso   1.00
C715   C     0.88886   0.03734   0.80245   0.00000  Uiso   1.00
C716   C     0.92281   0.02818   0.82471   0.00000  Uiso   1.00
C717   C     0.54033   0.11385   0.19071   0.00000  Uiso   1.00
C718   C     0.52978   0.08118   0.16658   0.00000  Uiso   1.00
C719   C     0.96257   0.38868   0.80350   0.00000  Uiso   1.00
C720   C     0.76087   0.47131   0.45912   0.00000  Uiso   1.00
C721   C     0.97377   0.42183   0.82673   0.00000  Uiso   1.00
C722   C     0.88644   0.03805   0.19259   0.00000  Uiso   1.00
C723   C     0.91863   0.02647   0.16822   0.00000  Uiso   1.00
C724   C     0.61269   0.46137   0.80689   0.00000  Uiso   1.00
C725   C     0.57945   0.47171   0.83043   0.00000  Uiso   1.00
C726   C     0.95194   0.37942   0.17916   0.00000  Uiso   1.00
C727   C     0.96561   0.41039   0.15447   0.00000  Uiso   1.00
C728   C     0.53563   0.11114   0.80058   0.00000  Uiso   1.00
C729   C     0.52291   0.07764   0.82195   0.00000  Uiso   1.00
C730   C     0.62521   0.09061   0.83612   0.00000  Uiso   1.00
C731   C     0.71849   0.00742   0.08206   0.00000  Uiso   1.00
C732   C     0.61942   0.06664   0.87050   0.00000  Uiso   1.00
C733   C     0.86407   0.41080   0.16239   0.00000  Uiso   1.00
C734   C     0.85649   0.43906   0.13314   0.00000  Uiso   1.00
C735   C     0.59009   0.37162   0.83806   0.00000  Uiso   1.00
C736   C     0.56333   0.36630   0.87020   0.00000  Uiso   1.00
C737   C     0.91005   0.12795   0.16125   0.00000  Uiso   1.00
C738   C     0.93518   0.12568   0.12693   0.00000  Uiso   1.00
C739   C     0.87238   0.41018   0.83468   0.00000  Uiso   1.00
C740   C     0.87347   0.43579   0.86804   0.00000  Uiso   1.00
C741   C     0.62897   0.08916   0.16181   0.00000  Uiso   1.00
C742   C     0.78146   0.01243   0.91746   0.00000  Uiso   1.00
C743   C     0.62931   0.06327   0.12828   0.00000  Uiso   1.00
C744   C     0.90726   0.12874   0.83406   0.00000  Uiso   1.00
C745   C     0.93094   0.12884   0.86870   0.00000  Uiso   1.00
C746   C     0.58408   0.37273   0.15966   0.00000  Uiso   1.00
C747   C     0.55534   0.37442   0.12854   0.00000  Uiso   1.00
C748   C     0.86310   0.21283   0.69418   0.00000  Uiso   1.00
C749   C     0.83159   0.22645   0.67009   0.00000  Uiso   1.00
C750   C     0.63884   0.28723   0.30212   0.00000  Uiso   1.00
C751   C     0.67270   0.27807   0.32472   0.00000  Uiso   1.00
C752   C     0.78970   0.36660   0.68957   0.00000  Uiso   1.00
C753   C     0.99235   0.21750   0.08223   0.00000  Uiso   1.00
C754   C     0.77196   0.33814   0.66395   0.00000  Uiso   1.00
C755   C     0.71233   0.13860   0.30467   0.00000  Uiso   1.00
C756   C     0.72332   0.17193   0.32786   0.00000  Uiso   1.00
C757   C     0.63631   0.28801   0.69250   0.00000  Uiso   1.00
C758   C     0.66852   0.27664   0.66805   0.00000  Uiso   1.00
C759   C     0.86316   0.21131   0.30733   0.00000  Uiso   1.00
C760   C     0.83027   0.22159   0.33135   0.00000  Uiso   1.00
C761   C     0.70855   0.13169   0.68622   0.00000  Uiso   1.00
C762   C     0.72541   0.16089   0.66132   0.00000  Uiso   1.00
C763   C     0.78893   0.36336   0.30656   0.00000  Uiso   1.00
C764   C     0.78098   0.01341   0.95783   0.00000  Uiso   1.00
C765   C     0.98581   0.28107   0.91755   0.00000  Uiso   1.00
C766   C     0.77777   0.33063   0.33028   0.00000  Uiso   1.00
C767   C     0.87708   0.34071   0.33530   0.00000  Uiso   1.00
C768   C     0.86787   0.31891   0.37019   0.00000  Uiso   1.00
C769   C     0.62274   0.16231   0.66230   0.00000  Uiso   1.00
C770   C     0.60434   0.18841   0.63618   0.00000  Uiso   1.00
C771   C     0.84176   0.12166   0.33805   0.00000  Uiso   1.00
C772   C     0.81649   0.11708   0.37147   0.00000  Uiso   1.00
C773   C     0.65950   0.37790   0.66144   0.00000  Uiso   1.00
C774   C     0.68440   0.37767   0.62695   0.00000  Uiso   1.00
C775   C     0.62219   0.16062   0.33604   0.00000  Uiso   1.00
C776   C     0.78268   0.49561   0.08184   0.00000  Uiso   1.00
C777   C     0.62257   0.18623   0.36944   0.00000  Uiso   1.00
C778   C     0.86304   0.32877   0.66058   0.00000  Uiso   1.00
C779   C     0.89134   0.31495   0.63274   0.00000  Uiso   1.00
C780   C     0.65864   0.37735   0.33203   0.00000  Uiso   1.00
C781   C     0.68281   0.37647   0.36589   0.00000  Uiso   1.00
C782   C     0.83920   0.12642   0.65728   0.00000  Uiso   1.00
C783   C     0.81240   0.12121   0.62507   0.00000  Uiso   1.00
C784   C     0.66073   0.48491   0.08992   0.00000  Uiso   1.00
C785   C     0.84366   0.01055   0.90657   0.00000  Uiso   1.00
C786   C     0.51482   0.15979   0.08907   0.00000  Uiso   1.00
C787   C     0.72030   0.48652   0.91816   0.00000  Uiso   1.00
C788   C     0.98601   0.34358   0.90702   0.00000  Uiso   1.00
C789   C     0.84031   0.01949   0.08816   0.00000  Uiso   1.00
C790   C     0.65932   0.49080   0.90621   0.00000  Uiso   1.00
C791   C     0.95346   0.31817   0.10250   0.00000  Uiso   1.00
C792   C     0.50621   0.15744   0.90851   0.00000  Uiso   1.00
C793   C     0.91108   0.23086   0.59078   0.00000  Uiso   1.00
C794   C     0.59367   0.26228   0.40704   0.00000  Uiso   1.00
C795   C     0.76502   0.41044   0.58639   0.00000  Uiso   1.00
C796   C     0.73800   0.09484   0.40640   0.00000  Uiso   1.00
C797   C     0.58904   0.26835   0.59113   0.00000  Uiso   1.00
C798   C     0.99977   0.28250   0.08266   0.00000  Uiso   1.00
C799   C     0.90856   0.24259   0.40841   0.00000  Uiso   1.00
C800   C     0.70258   0.06765   0.60366   0.00000  Uiso   1.00
C801   C     0.75090   0.40873   0.40917   0.00000  Uiso   1.00
C802   C     0.51064   0.21961   0.91821   0.00000  Uiso   1.00
C803   C     0.96802   0.25535   0.58223   0.00000  Uiso   1.00
C804   C     0.53121   0.26262   0.41744   0.00000  Uiso   1.00
C805   C     0.74170   0.46802   0.58221   0.00000  Uiso   1.00
C806   C     0.73762   0.03228   0.41773   0.00000  Uiso   1.00
C807   C     0.53231   0.24405   0.58200   0.00000  Uiso   1.00
C808   C     0.98661   0.21881   0.04277   0.00000  Uiso   1.00
C809   C     0.96992   0.23703   0.41817   0.00000  Uiso   1.00
C810   C     0.74894   0.03285   0.58313   0.00000  Uiso   1.00
C811   C     0.76006   0.46992   0.41905   0.00000  Uiso   1.00
C812   C     0.75074   0.00024   0.02138   0.00000  Uiso   1.00
C813   C     0.75090   0.49957   0.97862   0.00000  Uiso   1.00
C814   C     0.99695   0.25060   0.02182   0.00000  Uiso   1.00
C815   C     0.99731   0.25078   0.97884   0.00000  Uiso   1.00
C816   C     0.50058   0.24945   0.52147   0.00000  Uiso   1.00
C817   C     0.50080   0.24927   0.47863   0.00000  Uiso   1.00
C818   C     0.74700   0.00144   0.52232   0.00000  Uiso   1.00
C819   C     0.98348   0.28061   0.95778   0.00000  Uiso   1.00
C820   C     0.74796   0.00192   0.47927   0.00000  Uiso   1.00
C821   C     0.74981   0.00011   0.35530   0.00000  Uiso   1.00
C822   C     0.74896   0.49994   0.64503   0.00000  Uiso   1.00
C823   C     0.99998   0.25013   0.35514   0.00000  Uiso   1.00
C824   C     0.50007   0.25000   0.64491   0.00000  Uiso   1.00
C825   C     0.99979   0.25006   0.85520   0.00000  Uiso   1.00
C826   C     0.99918   0.24991   0.14498   0.00000  Uiso   1.00
C827   C     0.75003   0.00006   0.85515   0.00000  Uiso   1.00
C828   C     0.75012   0.00032   0.14485   0.00000  Uiso   1.00
C829   C     0.68117   0.07116   0.24831   0.00000  Uiso   1.00
C830   C     0.78158   0.48910   0.04254   0.00000  Uiso   1.00
C831   C     0.81904   0.42879   0.75115   0.00000  Uiso   1.00
C832   C     0.92882   0.18111   0.24815   0.00000  Uiso   1.00
C833   C     0.57124   0.31880   0.75184   0.00000  Uiso   1.00
C834   C     0.81904   0.42894   0.24829   0.00000  Uiso   1.00
C835   C     0.68102   0.07110   0.75153   0.00000  Uiso   1.00
C836   C     0.57115   0.31854   0.24762   0.00000  Uiso   1.00
C837   C     0.92890   0.18086   0.75125   0.00000  Uiso   1.00
C838   C     0.67886   0.43109   0.74819   0.00000  Uiso   1.00
C839   C     0.82124   0.06877   0.25181   0.00000  Uiso   1.00
C840   C     0.93134   0.32115   0.74800   0.00000  Uiso   1.00
C841   C     0.72095   0.48527   0.95834   0.00000  Uiso   1.00
C842   C     0.56900   0.17890   0.25143   0.00000  Uiso   1.00
C843   C     0.82125   0.06846   0.74756   0.00000  Uiso   1.00
C844   C     0.67923   0.43055   0.25093   0.00000  Uiso   1.00
C845   C     0.56911   0.17901   0.74826   0.00000  Uiso   1.00
C846   C     0.93073   0.32081   0.25117   0.00000  Uiso   1.00
C847   C     0.61896   0.40749   0.22860   0.00000  Uiso   1.00
C848   C     0.88282   0.08976   0.76446   0.00000  Uiso   1.00
C849   C     0.59151   0.11783   0.23083   0.00000  Uiso   1.00
C850   C     0.90955   0.38283   0.76575   0.00000  Uiso   1.00
C851   C     0.88227   0.09094   0.23118   0.00000  Uiso   1.00
C852   C     0.50650   0.28212   0.04360   0.00000  Uiso   1.00
C853   C     0.61806   0.40872   0.76822   0.00000  Uiso   1.00
C854   C     0.90771   0.38031   0.22813   0.00000  Uiso   1.00
C855   C     0.59074   0.11752   0.76597   0.00000  Uiso   1.00
C856   C     0.62048   0.09518   0.77241   0.00000  Uiso   1.00
C857   C     0.87848   0.40393   0.22406   0.00000  Uiso   1.00
C858   C     0.59572   0.37866   0.77449   0.00000  Uiso   1.00
C859   C     0.90456   0.12113   0.22493   0.00000  Uiso   1.00
C860   C     0.87947   0.40505   0.77144   0.00000  Uiso   1.00
C861   C     0.62140   0.09511   0.22509   0.00000  Uiso   1.00
C862   C     0.90516   0.11980   0.77086   0.00000  Uiso   1.00
C863   C     0.51190   0.22090   0.95836   0.00000  Uiso   1.00
C864   C     0.59568   0.37778   0.22279   0.00000  Uiso   1.00
C865   C     0.86841   0.15739   0.72816   0.00000  Uiso   1.00
C866   C     0.63328   0.33909   0.26304   0.00000  Uiso   1.00
C867   C     0.84224   0.36756   0.72853   0.00000  Uiso   1.00
C868   C     0.65923   0.13271   0.26720   0.00000  Uiso   1.00
C869   C     0.63236   0.34079   0.73139   0.00000  Uiso   1.00
C870   C     0.86797   0.15866   0.26845   0.00000  Uiso   1.00
C871   C     0.65942   0.13224   0.73048   0.00000  Uiso   1.00
C872   C     0.84049   0.36731   0.26652   0.00000  Uiso   1.00
C873   C     0.87008   0.34445   0.27199   0.00000  Uiso   1.00
C874   C     0.96928   0.26033   0.54261   0.00000  Uiso   1.00
C875   C     0.62995   0.15561   0.72585   0.00000  Uiso   1.00
C876   C     0.84558   0.12852   0.27450   0.00000  Uiso   1.00
C877   C     0.65479   0.37092   0.72513   0.00000  Uiso   1.00
C878   C     0.62932   0.15528   0.27277   0.00000  Uiso   1.00
C879   C     0.87246   0.34502   0.72348   0.00000  Uiso   1.00
C880   C     0.65615   0.36872   0.26908   0.00000  Uiso   1.00
C881   C     0.84659   0.12677   0.72145   0.00000  Uiso   1.00
C882   C     0.60086   0.34489   0.24341   0.00000  Uiso   1.00
C883   C     0.89986   0.15295   0.75095   0.00000  Uiso   1.00
C884   C     0.65409   0.10043   0.24614   0.00000  Uiso   1.00
H885   H     0.71080   0.05901   0.98665   0.00000  Uiso   1.00
H886   H     0.86451   0.04547   0.01284   0.00000  Uiso   1.00
H887   H     0.97998   0.44527   0.80798   0.00000  Uiso   1.00
H888   H     0.86683   0.05337   0.17492   0.00000  Uiso   1.00
H889   H     0.87330   0.01212   0.20137   0.00000  Uiso   1.00
H890   H     0.94073   0.01564   0.18617   0.00000  Uiso   1.00
H891   H     0.90985   0.00499   0.14776   0.00000  Uiso   1.00
H892   H     0.92890   0.04972   0.15156   0.00000  Uiso   1.00
H893   H     0.62571   0.48759   0.79883   0.00000  Uiso   1.00
H894   H     0.63225   0.44631   0.82486   0.00000  Uiso   1.00
H895   H     0.57097   0.44869   0.84875   0.00000  Uiso   1.00
H896   H     0.58612   0.49515   0.84930   0.00000  Uiso   1.00
H897   H     0.93955   0.20751   0.98704   0.00000  Uiso   1.00
H898   H     0.55677   0.47975   0.81158   0.00000  Uiso   1.00
H899   H     0.93044   0.36312   0.16492   0.00000  Uiso   1.00
H900   H     0.97611   0.36171   0.18107   0.00000  Uiso   1.00
H901   H     0.98807   0.42478   0.16917   0.00000  Uiso   1.00
H902   H     0.97668   0.39931   0.12706   0.00000  Uiso   1.00
H903   H     0.94349   0.42961   0.14809   0.00000  Uiso   1.00
H904   H     0.51024   0.12414   0.79067   0.00000  Uiso   1.00
H905   H     0.54953   0.13009   0.82067   0.00000  Uiso   1.00
H906   H     0.54518   0.06770   0.84001   0.00000  Uiso   1.00
H907   H     0.99956   0.08480   0.84108   0.00000  Uiso   1.00
H908   H     0.92125   0.19612   0.03393   0.00000  Uiso   1.00
H909   H     0.51450   0.05580   0.80172   0.00000  Uiso   1.00
H910   H     0.60759   0.11485   0.83983   0.00000  Uiso   1.00
H911   H     0.65417   0.09953   0.83598   0.00000  Uiso   1.00
H912   H     0.63192   0.04039   0.86287   0.00000  Uiso   1.00
H913   H     0.63269   0.07917   0.89599   0.00000  Uiso   1.00
H914   H     0.59028   0.06184   0.87760   0.00000  Uiso   1.00
H915   H     0.83772   0.39689   0.16930   0.00000  Uiso   1.00
H916   H     0.88251   0.39067   0.14918   0.00000  Uiso   1.00
H917   H     0.88220   0.45051   0.12146   0.00000  Uiso   1.00
H918   H     0.84029   0.42720   0.10931   0.00000  Uiso   1.00
H919   H     0.92506   0.13212   0.02070   0.00000  Uiso   1.00
H920   H     0.84118   0.46047   0.14826   0.00000  Uiso   1.00
H921   H     0.60935   0.39346   0.84643   0.00000  Uiso   1.00
H922   H     0.60544   0.34578   0.83480   0.00000  Uiso   1.00
H923   H     0.54368   0.34529   0.86092   0.00000  Uiso   1.00
H924   H     0.57729   0.35674   0.89628   0.00000  Uiso   1.00
H925   H     0.54920   0.39205   0.87699   0.00000  Uiso   1.00
H926   H     0.89930   0.15611   0.16301   0.00000  Uiso   1.00
H927   H     0.88691   0.10906   0.15610   0.00000  Uiso   1.00
H928   H     0.93681   0.09765   0.11538   0.00000  Uiso   1.00
H929   H     0.92512   0.14342   0.10367   0.00000  Uiso   1.00
H930   H     0.90716   0.15185   0.97758   0.00000  Uiso   1.00
H931   H     0.96256   0.13433   0.13581   0.00000  Uiso   1.00
H932   H     0.89166   0.38783   0.84040   0.00000  Uiso   1.00
H933   H     0.84434   0.39879   0.83317   0.00000  Uiso   1.00
H934   H     0.85461   0.45753   0.86047   0.00000  Uiso   1.00
H935   H     0.86439   0.42190   0.89452   0.00000  Uiso   1.00
H936   H     0.90095   0.44721   0.87255   0.00000  Uiso   1.00
H937   H     0.65635   0.10202   0.16393   0.00000  Uiso   1.00
H938   H     0.60913   0.11081   0.15524   0.00000  Uiso   1.00
H939   H     0.60192   0.06007   0.11543   0.00000  Uiso   1.00
H940   H     0.63809   0.03654   0.13838   0.00000  Uiso   1.00
H941   H     0.95419   0.13892   0.97974   0.00000  Uiso   1.00
H942   H     0.64800   0.07363   0.10547   0.00000  Uiso   1.00
H943   H     0.88400   0.11005   0.83942   0.00000  Uiso   1.00
H944   H     0.89683   0.15689   0.83067   0.00000  Uiso   1.00
H945   H     0.95491   0.14496   0.86057   0.00000  Uiso   1.00
H946   H     0.91666   0.14169   0.89329   0.00000  Uiso   1.00
H947   H     0.93922   0.10115   0.87702   0.00000  Uiso   1.00
H948   H     0.59594   0.34470   0.15953   0.00000  Uiso   1.00
H949   H     0.60604   0.39256   0.15178   0.00000  Uiso   1.00
H950   H     0.54644   0.40297   0.12323   0.00000  Uiso   1.00
H951   H     0.53132   0.35759   0.13693   0.00000  Uiso   1.00
H952   H     0.93408   0.28847   0.01029   0.00000  Uiso   1.00
H953   H     0.56719   0.36375   0.10132   0.00000  Uiso   1.00
H954   H     0.88371   0.19970   0.67553   0.00000  Uiso   1.00
H955   H     0.87529   0.23785   0.70649   0.00000  Uiso   1.00
H956   H     0.80718   0.23154   0.68804   0.00000  Uiso   1.00
H957   H     0.83958   0.25227   0.65605   0.00000  Uiso   1.00
H958   H     0.82480   0.20695   0.64707   0.00000  Uiso   1.00
H959   H     0.62563   0.26078   0.29524   0.00000  Uiso   1.00
H960   H     0.61948   0.30254   0.32052   0.00000  Uiso   1.00
H961   H     0.67441   0.29579   0.35019   0.00000  Uiso   1.00
H962   H     0.67098   0.24970   0.33519   0.00000  Uiso   1.00
H963   H     0.91835   0.30754   0.96551   0.00000  Uiso   1.00
H964   H     0.69760   0.28102   0.30702   0.00000  Uiso   1.00
H965   H     0.80653   0.38579   0.67229   0.00000  Uiso   1.00
H966   H     0.76553   0.38049   0.70126   0.00000  Uiso   1.00
H967   H     0.77261   0.31088   0.67706   0.00000  Uiso   1.00
H968   H     0.74322   0.34515   0.65943   0.00000  Uiso   1.00
H969   H     0.78458   0.33813   0.63506   0.00000  Uiso   1.00
H970   H     0.73834   0.12587   0.29580   0.00000  Uiso   1.00
H971   H     0.69757   0.11892   0.32324   0.00000  Uiso   1.00
H972   H     0.70149   0.17911   0.34816   0.00000  Uiso   1.00
H973   H     0.74791   0.16594   0.34482   0.00000  Uiso   1.00
H974   H     0.92841   0.36919   0.98859   0.00000  Uiso   1.00
H975   H     0.72953   0.19532   0.30905   0.00000  Uiso   1.00
H976   H     0.61666   0.30345   0.67507   0.00000  Uiso   1.00
H977   H     0.62313   0.26200   0.70098   0.00000  Uiso   1.00
H978   H     0.68956   0.26358   0.68571   0.00000  Uiso   1.00
H979   H     0.65943   0.25680   0.64601   0.00000  Uiso   1.00
H980   H     0.68025   0.30043   0.65333   0.00000  Uiso   1.00
H981   H     0.87586   0.23760   0.29902   0.00000  Uiso   1.00
H982   H     0.88317   0.19650   0.32500   0.00000  Uiso   1.00
H983   H     0.82061   0.19796   0.34802   0.00000  Uiso   1.00
H984   H     0.83765   0.24353   0.35173   0.00000  Uiso   1.00
H985   H     0.90460   0.34528   0.02630   0.00000  Uiso   1.00
H986   H     0.80823   0.23180   0.31298   0.00000  Uiso   1.00
H987   H     0.68872   0.11497   0.67011   0.00000  Uiso   1.00
H988   H     0.73278   0.11499   0.69203   0.00000  Uiso   1.00
H989   H     0.75011   0.17216   0.67515   0.00000  Uiso   1.00
H990   H     0.73397   0.14814   0.63383   0.00000  Uiso   1.00
H991   H     0.70594   0.18277   0.65546   0.00000  Uiso   1.00
H992   H     0.76310   0.37709   0.29938   0.00000  Uiso   1.00
H993   H     0.80508   0.38287   0.32397   0.00000  Uiso   1.00
H994   H     0.78709   0.33459   0.36009   0.00000  Uiso   1.00
H995   H     0.74773   0.32812   0.33117   0.00000  Uiso   1.00
H996   H     0.69767   0.07802   0.03274   0.00000  Uiso   1.00
H997   H     0.95275   0.35366   0.02955   0.00000  Uiso   1.00
H998   H     0.78907   0.30519   0.31831   0.00000  Uiso   1.00
H999   H     0.86220   0.36675   0.33785   0.00000  Uiso   1.00
H1000  H     0.90670   0.34673   0.33547   0.00000  Uiso   1.00
H1001  H     0.88714   0.29677   0.36987   0.00000  Uiso   1.00
H1002  H     0.87119   0.33555   0.39645   0.00000  Uiso   1.00
H1003  H     0.84008   0.30753   0.36907   0.00000  Uiso   1.00
H1004  H     0.60384   0.13873   0.66638   0.00000  Uiso   1.00
H1005  H     0.64735   0.15243   0.64752   0.00000  Uiso   1.00
H1006  H     0.62492   0.20497   0.62075   0.00000  Uiso   1.00
H1007  H     0.58739   0.17363   0.61492   0.00000  Uiso   1.00
H1008  H     0.79071   0.44100   0.98712   0.00000  Uiso   1.00
H1009  H     0.58678   0.20633   0.65355   0.00000  Uiso   1.00
H1010  H     0.86111   0.14377   0.34519   0.00000  Uiso   1.00
H1011  H     0.85708   0.09582   0.33472   0.00000  Uiso   1.00
H1012  H     0.79684   0.09558   0.36365   0.00000  Uiso   1.00
H1013  H     0.83180   0.10839   0.39711   0.00000  Uiso   1.00
H1014  H     0.80241   0.14294   0.37811   0.00000  Uiso   1.00
H1015  H     0.64767   0.40554   0.66392   0.00000  Uiso   1.00
H1016  H     0.63727   0.35813   0.65586   0.00000  Uiso   1.00
H1017  H     0.68916   0.34973   0.61626   0.00000  Uiso   1.00
H1018  H     0.67254   0.39387   0.60346   0.00000  Uiso   1.00
H1019  H     0.80165   0.42276   0.03382   0.00000  Uiso   1.00
H1020  H     0.71036   0.38983   0.63558   0.00000  Uiso   1.00
H1021  H     0.64183   0.13865   0.34197   0.00000  Uiso   1.00
H1022  H     0.59437   0.14873   0.33430   0.00000  Uiso   1.00
H1023  H     0.60261   0.20721   0.36250   0.00000  Uiso   1.00
H1024  H     0.61442   0.17183   0.39597   0.00000  Uiso   1.00
H1025  H     0.64971   0.19867   0.37356   0.00000  Uiso   1.00
H1026  H     0.86196   0.35886   0.65759   0.00000  Uiso   1.00
H1027  H     0.83690   0.31727   0.65151   0.00000  Uiso   1.00
H1028  H     0.91567   0.30587   0.64835   0.00000  Uiso   1.00
H1029  H     0.89934   0.33646   0.61224   0.00000  Uiso   1.00
H1030  H     0.86578   0.42557   0.02004   0.00000  Uiso   1.00
H1031  H     0.87946   0.29224   0.61617   0.00000  Uiso   1.00
H1032  H     0.63507   0.35917   0.33762   0.00000  Uiso   1.00
H1033  H     0.64875   0.40577   0.32917   0.00000  Uiso   1.00
H1034  H     0.70529   0.39455   0.35764   0.00000  Uiso   1.00
H1035  H     0.66839   0.38669   0.39170   0.00000  Uiso   1.00
H1036  H     0.69327   0.34892   0.37145   0.00000  Uiso   1.00
H1037  H     0.85887   0.10358   0.65625   0.00000  Uiso   1.00
H1038  H     0.85430   0.15184   0.65142   0.00000  Uiso   1.00
H1039  H     0.79787   0.14694   0.61969   0.00000  Uiso   1.00
H1040  H     0.82717   0.11342   0.59846   0.00000  Uiso   1.00
H1041  H     0.84506   0.40674   0.97756   0.00000  Uiso   1.00
H1042  H     0.79276   0.09951   0.63246   0.00000  Uiso   1.00
H1043  H     0.67254   0.46151   0.07399   0.00000  Uiso   1.00
H1044  H     0.63930   0.49784   0.07262   0.00000  Uiso   1.00
H1045  H     0.64773   0.47360   0.11571   0.00000  Uiso   1.00
H1046  H     0.84012   0.48182   0.91567   0.00000  Uiso   1.00
H1047  H     0.85840   0.02542   0.92908   0.00000  Uiso   1.00
H1048  H     0.86196   0.01239   0.88137   0.00000  Uiso   1.00
H1049  H     0.53822   0.17192   0.07330   0.00000  Uiso   1.00
H1050  H     0.50146   0.13869   0.07126   0.00000  Uiso   1.00
H1051  H     0.52614   0.14626   0.11438   0.00000  Uiso   1.00
H1052  H     0.85930   0.45368   0.97860   0.00000  Uiso   1.00
H1053  H     0.51383   0.34168   0.91894   0.00000  Uiso   1.00
H1054  H     0.96839   0.35819   0.92752   0.00000  Uiso   1.00
H1055  H     0.98671   0.36085   0.88120   0.00000  Uiso   1.00
H1056  H     0.82789   0.04287   0.07316   0.00000  Uiso   1.00
H1057  H     0.86092   0.00619   0.06970   0.00000  Uiso   1.00
H1058  H     0.85461   0.03062   0.11336   0.00000  Uiso   1.00
H1059  H     0.66441   0.02048   0.91094   0.00000  Uiso   1.00
H1060  H     0.64398   0.47962   0.93088   0.00000  Uiso   1.00
H1061  H     0.64121   0.48638   0.88154   0.00000  Uiso   1.00
H1062  H     0.94357   0.30631   0.12979   0.00000  Uiso   1.00
H1063  H     0.70729   0.43629   0.01345   0.00000  Uiso   1.00
H1064  H     0.93860   0.30472   0.07848   0.00000  Uiso   1.00
H1065  H     0.94591   0.34729   0.10170   0.00000  Uiso   1.00
H1066  H     0.97719   0.16202   0.91605   0.00000  Uiso   1.00
H1067  H     0.51920   0.14307   0.93230   0.00000  Uiso   1.00
H1068  H     0.50868   0.13824   0.88411   0.00000  Uiso   1.00
H1069  H     0.92417   0.20668   0.57747   0.00000  Uiso   1.00
H1070  H     0.89030   0.24198   0.57130   0.00000  Uiso   1.00
H1071  H     0.89670   0.22137   0.61657   0.00000  Uiso   1.00
H1072  H     0.59100   0.23392   0.41763   0.00000  Uiso   1.00
H1073  H     0.60797   0.27877   0.42870   0.00000  Uiso   1.00
H1074  H     0.69757   0.42108   0.96499   0.00000  Uiso   1.00
H1075  H     0.61177   0.26315   0.38165   0.00000  Uiso   1.00
H1076  H     0.78724   0.42302   0.56923   0.00000  Uiso   1.00
H1077  H     0.75084   0.38932   0.56939   0.00000  Uiso   1.00
H1078  H     0.77812   0.39691   0.61079   0.00000  Uiso   1.00
H1079  H     0.76543   0.09311   0.41938   0.00000  Uiso   1.00
H1080  H     0.71982   0.11007   0.42587   0.00000  Uiso   1.00
H1081  H     0.73974   0.11136   0.38019   0.00000  Uiso   1.00
H1082  H     0.57648   0.29199   0.57671   0.00000  Uiso   1.00
H1083  H     0.61091   0.25679   0.57296   0.00000  Uiso   1.00
H1084  H     0.60160   0.27871   0.61752   0.00000  Uiso   1.00
H1085  H     0.63454   0.42014   0.97573   0.00000  Uiso   1.00
H1086  H     0.91401   0.27141   0.41672   0.00000  Uiso   1.00
H1087  H     0.89296   0.22920   0.43160   0.00000  Uiso   1.00
H1088  H     0.89053   0.24121   0.38354   0.00000  Uiso   1.00
H1089  H     0.69235   0.05014   0.62734   0.00000  Uiso   1.00
H1090  H     0.68831   0.06001   0.57699   0.00000  Uiso   1.00
H1091  H     0.69496   0.09600   0.60982   0.00000  Uiso   1.00
H1092  H     0.72182   0.41603   0.41277   0.00000  Uiso   1.00
H1093  H     0.75949   0.39448   0.43495   0.00000  Uiso   1.00
H1094  H     0.75506   0.38810   0.38634   0.00000  Uiso   1.00
H1095  H     0.65053   0.40825   0.02266   0.00000  Uiso   1.00
H1096  H     0.63396   0.07216   0.01767   0.00000  Uiso   1.00
H1097  H     0.63620   0.45384   0.01305   0.00000  Uiso   1.00
H1098  H     0.55285   0.29449   0.98811   0.00000  Uiso   1.00
H1099  H     0.57124   0.30678   0.03438   0.00000  Uiso   1.00
H1100  H     0.56784   0.37012   0.02066   0.00000  Uiso   1.00
H1101  H     0.58327   0.34997   0.97632   0.00000  Uiso   1.00
H1102  H     0.53657   0.36330   0.98180   0.00000  Uiso   1.00
H1103  H     0.56237   0.21009   0.01240   0.00000  Uiso   1.00
H1104  H     0.57677   0.20070   0.96349   0.00000  Uiso   1.00
H1105  H     0.58016   0.13786   0.97389   0.00000  Uiso   1.00
H1106  H     0.59229   0.15465   0.02069   0.00000  Uiso   1.00
H1107  H     0.65538   0.09138   0.97567   0.00000  Uiso   1.00
H1108  H     0.54710   0.13811   0.01189   0.00000  Uiso   1.00
H1109  H     0.95840   0.30752   0.48717   0.00000  Uiso   1.00
H1110  H     0.94699   0.32534   0.53429   0.00000  Uiso   1.00
H1111  H     0.88323   0.32119   0.52189   0.00000  Uiso   1.00
H1112  H     0.90282   0.33928   0.47839   0.00000  Uiso   1.00
H1113  H     0.88961   0.29213   0.48087   0.00000  Uiso   1.00
H1114  H     0.54072   0.31281   0.51287   0.00000  Uiso   1.00
H1115  H     0.55189   0.32889   0.46505   0.00000  Uiso   1.00
H1116  H     0.61498   0.32965   0.47741   0.00000  Uiso   1.00
H1117  H     0.59606   0.34424   0.52271   0.00000  Uiso   1.00
H1118  H     0.64307   0.04391   0.97658   0.00000  Uiso   1.00
H1119  H     0.61126   0.29821   0.51634   0.00000  Uiso   1.00
H1120  H     0.68747   0.46434   0.48756   0.00000  Uiso   1.00
H1121  H     0.66757   0.45341   0.53382   0.00000  Uiso   1.00
H1122  H     0.66874   0.38904   0.51901   0.00000  Uiso   1.00
H1123  H     0.64919   0.41152   0.47817   0.00000  Uiso   1.00
H1124  H     0.69573   0.39637   0.47654   0.00000  Uiso   1.00
H1125  H     0.68884   0.04623   0.51061   0.00000  Uiso   1.00
H1126  H     0.67539   0.06804   0.46649   0.00000  Uiso   1.00
H1127  H     0.69516   0.12744   0.49048   0.00000  Uiso   1.00
H1128  H     0.66670   0.10695   0.52677   0.00000  Uiso   1.00
H1129  H     0.79410   0.06440   0.01073   0.00000  Uiso   1.00
H1130  H     0.71536   0.10763   0.53189   0.00000  Uiso   1.00
H1131  H     0.54369   0.19207   0.48630   0.00000  Uiso   1.00
H1132  H     0.55479   0.17391   0.53300   0.00000  Uiso   1.00
H1133  H     0.61874   0.17878   0.52026   0.00000  Uiso   1.00
H1134  H     0.59954   0.16089   0.47660   0.00000  Uiso   1.00
H1135  H     0.61226   0.20813   0.47983   0.00000  Uiso   1.00
H1136  H     0.95923   0.18411   0.51192   0.00000  Uiso   1.00
H1137  H     0.94871   0.16988   0.46327   0.00000  Uiso   1.00
H1138  H     0.88555   0.16899   0.47522   0.00000  Uiso   1.00
H1139  H     0.90306   0.15383   0.52045   0.00000  Uiso   1.00
H1140  H     0.80569   0.07729   0.96190   0.00000  Uiso   1.00
H1141  H     0.88837   0.19997   0.51489   0.00000  Uiso   1.00
H1142  H     0.80765   0.03673   0.49276   0.00000  Uiso   1.00
H1143  H     0.82591   0.05113   0.53829   0.00000  Uiso   1.00
H1144  H     0.82864   0.11311   0.51876   0.00000  Uiso   1.00
H1145  H     0.84279   0.08815   0.47673   0.00000  Uiso   1.00
H1146  H     0.79745   0.10590   0.47988   0.00000  Uiso   1.00
H1147  H     0.81472   0.45328   0.50814   0.00000  Uiso   1.00
H1148  H     0.82199   0.44186   0.45802   0.00000  Uiso   1.00
H1149  H     0.81795   0.37940   0.46890   0.00000  Uiso   1.00
H1150  H     0.83510   0.39358   0.51487   0.00000  Uiso   1.00
H1151  H     0.86848   0.07670   0.97376   0.00000  Uiso   1.00
H1152  H     0.78758   0.38397   0.50891   0.00000  Uiso   1.00
H1153  H     0.63315   0.44260   0.17100   0.00000  Uiso   1.00
H1154  H     0.62982   0.48491   0.19627   0.00000  Uiso   1.00
H1155  H     0.56695   0.49250   0.18554   0.00000  Uiso   1.00
H1156  H     0.59011   0.48433   0.14051   0.00000  Uiso   1.00
H1157  H     0.56340   0.44840   0.16256   0.00000  Uiso   1.00
H1158  H     0.87609   0.01086   0.79483   0.00000  Uiso   1.00
H1159  H     0.86938   0.05214   0.82124   0.00000  Uiso   1.00
H1160  H     0.92858   0.05050   0.84582   0.00000  Uiso   1.00
H1161  H     0.91814   0.00228   0.84128   0.00000  Uiso   1.00
H1162  H     0.85132   0.09208   0.01950   0.00000  Uiso   1.00
H1163  H     0.94673   0.02456   0.80469   0.00000  Uiso   1.00
H1164  H     0.55662   0.13353   0.17359   0.00000  Uiso   1.00
H1165  H     0.51415   0.12708   0.19796   0.00000  Uiso   1.00
H1166  H     0.51298   0.06200   0.18351   0.00000  Uiso   1.00
H1167  H     0.51367   0.09014   0.14168   0.00000  Uiso   1.00
H1168  H     0.55424   0.06720   0.15600   0.00000  Uiso   1.00
H1169  H     0.98851   0.37588   0.79448   0.00000  Uiso   1.00
H1170  H     0.94775   0.36906   0.82205   0.00000  Uiso   1.00
H1171  H     0.95211   0.42899   0.84715   0.00000  Uiso   1.00
H1172  H     0.99835   0.41564   0.84359   0.00000  Uiso   1.00
O1173  O     0.75000   0.00000   0.25000   0.00000  Uiso   1.00
O1174  O     0.75000   0.46964   0.66317   0.00000  Uiso   1.00
O1175  O     0.82081   0.12820   0.69299   0.00000  Uiso   1.00
O1176  O     0.68615   0.01163   0.10140   0.00000  Uiso   1.00
O1177  O     0.81046   0.02749   0.89735   0.00000  Uiso   1.00
O1178  O     0.98861   0.18511   0.10157   0.00000  Uiso   1.00
O1179  O     0.97078   0.30948   0.89697   0.00000  Uiso   1.00
O1180  O     0.81502   0.49324   0.10095   0.00000  Uiso   1.00
O1181  O     0.69139   0.47118   0.89880   0.00000  Uiso   1.00
O1182  O     0.99183   0.31535   0.09983   0.00000  Uiso   1.00
O1183  O     0.52485   0.18990   0.89866   0.00000  Uiso   1.00
O1184  O     0.93553   0.25868   0.60153   0.00000  Uiso   1.00
O1185  O     0.96964   0.25000   0.33683   0.00000  Uiso   1.00
O1186  O     0.56001   0.27793   0.39718   0.00000  Uiso   1.00
O1187  O     0.73929   0.43529   0.60097   0.00000  Uiso   1.00
O1188  O     0.72278   0.06065   0.39693   0.00000  Uiso   1.00
O1189  O     0.56444   0.24053   0.60114   0.00000  Uiso   1.00
O1190  O     0.94028   0.22318   0.39881   0.00000  Uiso   1.00
O1191  O     0.74080   0.06567   0.60016   0.00000  Uiso   1.00
O1192  O     0.77272   0.43930   0.39999   0.00000  Uiso   1.00
O1193  O     0.53036   0.25000   0.66317   0.00000  Uiso   1.00
O1194  O     0.50000   0.21964   0.83683   0.00000  Uiso   1.00
O1195  O     0.50000   0.28036   0.16317   0.00000  Uiso   1.00
O1196  O     0.78036   0.00000   0.83683   0.00000  Uiso   1.00
O1197  O     0.71964   0.00000   0.16317   0.00000  Uiso   1.00
O1198  O     0.50000   0.28036   0.83683   0.00000  Uiso   1.00
O1199  O     0.50000   0.21964   0.16317   0.00000  Uiso   1.00
O1200  O     0.71964   0.00000   0.83683   0.00000  Uiso   1.00
O1201  O     0.75000   0.00000   0.75000   0.00000  Uiso   1.00
O1202  O     0.78036   0.00000   0.16317   0.00000  Uiso   1.00
O1203  O     0.70725   0.07307   0.27282   0.00000  Uiso   1.00
O1204  O     0.79274   0.42693   0.72718   0.00000  Uiso   1.00
O1205  O     0.92693   0.20726   0.27282   0.00000  Uiso   1.00
O1206  O     0.57307   0.29275   0.72718   0.00000  Uiso   1.00
O1207  O     0.79274   0.42693   0.27282   0.00000  Uiso   1.00
O1208  O     0.70725   0.07307   0.72718   0.00000  Uiso   1.00
O1209  O     0.57307   0.29275   0.27282   0.00000  Uiso   1.00
O1210  O     0.92693   0.20726   0.72718   0.00000  Uiso   1.00
O1211  O     0.70725   0.42693   0.72718   0.00000  Uiso   1.00
O1212  O     0.50000   0.25000   0.25000   0.00000  Uiso   1.00
O1213  O     0.79274   0.07307   0.27282   0.00000  Uiso   1.00
O1214  O     0.92693   0.29275   0.72718   0.00000  Uiso   1.00
O1215  O     0.57307   0.20726   0.27282   0.00000  Uiso   1.00
O1216  O     0.79274   0.07307   0.72718   0.00000  Uiso   1.00
O1217  O     0.70725   0.42693   0.27282   0.00000  Uiso   1.00
O1218  O     0.57307   0.20726   0.72718   0.00000  Uiso   1.00
O1219  O     0.92693   0.29275   0.27282   0.00000  Uiso   1.00
O1220  O     0.95725   0.32307   0.77282   0.00000  Uiso   1.00
O1221  O     0.54274   0.17693   0.22718   0.00000  Uiso   1.00
O1222  O     0.67693   0.45726   0.77282   0.00000  Uiso   1.00
O1223  O     0.50000   0.25000   0.75000   0.00000  Uiso   1.00
O1224  O     0.82307   0.04275   0.22718   0.00000  Uiso   1.00
O1225  O     0.54274   0.17693   0.77282   0.00000  Uiso   1.00
O1226  O     0.95725   0.32307   0.22718   0.00000  Uiso   1.00
O1227  O     0.82307   0.04275   0.77282   0.00000  Uiso   1.00
O1228  O     0.67693   0.45726   0.22718   0.00000  Uiso   1.00
O1229  O     0.95725   0.17693   0.22718   0.00000  Uiso   1.00
O1230  O     0.54274   0.32307   0.77282   0.00000  Uiso   1.00
O1231  O     0.67693   0.04275   0.22718   0.00000  Uiso   1.00
O1232  O     0.82307   0.45726   0.77282   0.00000  Uiso   1.00
O1233  O     0.54274   0.32307   0.22718   0.00000  Uiso   1.00
O1234  O     0.75000   0.46964   0.33683   0.00000  Uiso   1.00
O1235  O     0.95725   0.17693   0.77282   0.00000  Uiso   1.00
O1236  O     0.82307   0.45726   0.22718   0.00000  Uiso   1.00
O1237  O     0.67693   0.04275   0.77282   0.00000  Uiso   1.00
O1238  O     0.68794   0.02276   0.02538   0.00000  Uiso   1.00
O1239  O     0.81258   0.02292   0.97618   0.00000  Uiso   1.00
O1240  O     0.97631   0.18654   0.02556   0.00000  Uiso   1.00
O1241  O     0.97343   0.31240   0.97577   0.00000  Uiso   1.00
O1242  O     0.81348   0.47752   0.02566   0.00000  Uiso   1.00
O1243  O     0.68920   0.47586   0.97695   0.00000  Uiso   1.00
O1244  O     0.51591   0.31515   0.02774   0.00000  Uiso   1.00
O1245  O     0.75000   0.03036   0.66317   0.00000  Uiso   1.00
O1246  O     0.52258   0.18994   0.97698   0.00000  Uiso   1.00
O1247  O     0.93717   0.27026   0.52568   0.00000  Uiso   1.00
O1248  O     0.56195   0.27444   0.47598   0.00000  Uiso   1.00
O1249  O     0.72156   0.43894   0.52607   0.00000  Uiso   1.00
O1250  O     0.73064   0.06547   0.47599   0.00000  Uiso   1.00
O1251  O     0.56413   0.22918   0.52549   0.00000  Uiso   1.00
O1252  O     0.93961   0.22416   0.47684   0.00000  Uiso   1.00
O1253  O     0.77180   0.06388   0.52950   0.00000  Uiso   1.00
O1254  O     0.76867   0.43994   0.47854   0.00000  Uiso   1.00
O1255  O     0.60462   0.44225   0.22436   0.00000  Uiso   1.00
O1256  O     0.53036   0.25000   0.33683   0.00000  Uiso   1.00
O1257  O     0.89793   0.05530   0.76788   0.00000  Uiso   1.00
O1258  O     0.55695   0.10291   0.22519   0.00000  Uiso   1.00
O1259  O     0.94385   0.39879   0.76987   0.00000  Uiso   1.00
O1260  O     0.89778   0.05662   0.22612   0.00000  Uiso   1.00
O1261  O     0.60264   0.44312   0.77268   0.00000  Uiso   1.00
O1262  O     0.94223   0.39213   0.21628   0.00000  Uiso   1.00
O1263  O     0.55632   0.10142   0.76783   0.00000  Uiso   1.00
O1264  O     0.61763   0.07084   0.80212   0.00000  Uiso   1.00
O1265  O     0.87993   0.42822   0.19446   0.00000  Uiso   1.00
O1266  O     0.57113   0.38047   0.80433   0.00000  Uiso   1.00
O1267  O     0.96964   0.25000   0.66317   0.00000  Uiso   1.00
O1268  O     0.92915   0.11933   0.19503   0.00000  Uiso   1.00
O1269  O     0.88119   0.42957   0.80112   0.00000  Uiso   1.00
O1270  O     0.61981   0.07032   0.19565   0.00000  Uiso   1.00
O1271  O     0.92804   0.11830   0.80160   0.00000  Uiso   1.00
O1272  O     0.56847   0.38086   0.19593   0.00000  Uiso   1.00
O1273  O     0.85099   0.19096   0.72511   0.00000  Uiso   1.00
O1274  O     0.64769   0.30430   0.26693   0.00000  Uiso   1.00
O1275  O     0.80834   0.35150   0.72108   0.00000  Uiso   1.00
O1276  O     0.69362   0.14847   0.27097   0.00000  Uiso   1.00
O1277  O     0.64760   0.30634   0.72621   0.00000  Uiso   1.00
O1278  O     0.75000   0.03036   0.33683   0.00000  Uiso   1.00
O1279  O     0.85256   0.19299   0.27338   0.00000  Uiso   1.00
O1280  O     0.69426   0.14567   0.72120   0.00000  Uiso   1.00
O1281  O     0.80576   0.35270   0.27171   0.00000  Uiso   1.00
O1282  O     0.86804   0.32056   0.30209   0.00000  Uiso   1.00
O1283  O     0.63201   0.18056   0.69675   0.00000  Uiso   1.00
O1284  O     0.82159   0.12973   0.30487   0.00000  Uiso   1.00
O1285  O     0.67906   0.36923   0.69492   0.00000  Uiso   1.00
O1286  O     0.63105   0.17994   0.30234   0.00000  Uiso   1.00
O1287  O     0.86997   0.31605   0.69801   0.00000  Uiso   1.00
O1288  O     0.67913   0.36677   0.29949   0.00000  Uiso   1.00
Zn1289 Zn    0.70660   0.00000   0.21760   0.00000  Uiso   1.00
Zn1290 Zn    0.54340   0.25000   0.28240   0.00000  Uiso   1.00
Zn1291 Zn    0.75000   0.45660   0.71760   0.00000  Uiso   1.00
Zn1292 Zn    0.75000   0.04340   0.28240   0.00000  Uiso   1.00
Zn1293 Zn    0.54340   0.25000   0.71760   0.00000  Uiso   1.00
Zn1294 Zn    0.95660   0.25000   0.28240   0.00000  Uiso   1.00
Zn1295 Zn    0.75000   0.04340   0.71760   0.00000  Uiso   1.00
Zn1296 Zn    0.75000   0.45660   0.28240   0.00000  Uiso   1.00
Zn1297 Zn    0.79340   0.00000   0.78240   0.00000  Uiso   1.00
Zn1298 Zn    0.50000   0.20660   0.21760   0.00000  Uiso   1.00
Zn1299 Zn    0.50000   0.29340   0.78240   0.00000  Uiso   1.00
Zn1300 Zn    0.79340   0.00000   0.21760   0.00000  Uiso   1.00
Zn1301 Zn    0.70660   0.00000   0.78240   0.00000  Uiso   1.00
Zn1302 Zn    0.50000   0.29340   0.21760   0.00000  Uiso   1.00
Zn1303 Zn    0.50000   0.20660   0.78240   0.00000  Uiso   1.00
Zn1304 Zn    0.95660   0.25000   0.71760   0.00000  Uiso   1.00
C1305  C     0.21987   0.51237   0.04246   0.00000  Uiso   1.00
C1306  C     0.03063   0.76378   0.45783   0.00000  Uiso   1.00
C1307  C     0.34661   0.89957   0.75108   0.00000  Uiso   1.00
C1308  C     0.39954   0.65386   0.24615   0.00000  Uiso   1.00
C1309  C     0.10071   0.84583   0.75359   0.00000  Uiso   1.00
C1310  C     0.34608   0.89951   0.24595   0.00000  Uiso   1.00
C1311  C     0.15389   0.60040   0.75246   0.00000  Uiso   1.00
C1312  C     0.09662   0.65006   0.74607   0.00000  Uiso   1.00
C1313  C     0.40296   0.84936   0.25132   0.00000  Uiso   1.00
C1314  C     0.14968   0.90376   0.74617   0.00000  Uiso   1.00
C1315  C     0.35064   0.59584   0.25345   0.00000  Uiso   1.00
C1316  C     0.40464   0.85053   0.74493   0.00000  Uiso   1.00
C1317  C     0.23494   0.97010   0.54305   0.00000  Uiso   1.00
C1318  C     0.09646   0.64984   0.25248   0.00000  Uiso   1.00
C1319  C     0.35109   0.59476   0.74345   0.00000  Uiso   1.00
C1320  C     0.15076   0.90218   0.25011   0.00000  Uiso   1.00
C1321  C     0.25041   0.50107   0.10235   0.00000  Uiso   1.00
C1322  C     0.25051   0.99986   0.89779   0.00000  Uiso   1.00
C1323  C     0.49731   0.74983   0.10287   0.00000  Uiso   1.00
C1324  C     0.49882   0.75024   0.89775   0.00000  Uiso   1.00
C1325  C     0.00013   0.74984   0.60241   0.00000  Uiso   1.00
C1326  C     0.00027   0.75008   0.39778   0.00000  Uiso   1.00
C1327  C     0.24653   0.50011   0.60319   0.00000  Uiso   1.00
C1328  C     0.23650   0.53262   0.45814   0.00000  Uiso   1.00
C1329  C     0.24914   0.50067   0.39796   0.00000  Uiso   1.00
C1330  C     0.19053   0.55783   0.01023   0.00000  Uiso   1.00
C1331  C     0.15348   0.56700   0.99400   0.00000  Uiso   1.00
C1332  C     0.31304   0.55970   0.98637   0.00000  Uiso   1.00
C1333  C     0.35161   0.56915   0.99889   0.00000  Uiso   1.00
C1334  C     0.44097   0.68821   0.01121   0.00000  Uiso   1.00
C1335  C     0.43116   0.65047   0.99639   0.00000  Uiso   1.00
C1336  C     0.43770   0.81090   0.98946   0.00000  Uiso   1.00
C1337  C     0.43026   0.84691   0.00967   0.00000  Uiso   1.00
C1338  C     0.31021   0.94213   0.01114   0.00000  Uiso   1.00
C1339  C     0.03162   0.73879   0.54248   0.00000  Uiso   1.00
C1340  C     0.34736   0.93126   0.99588   0.00000  Uiso   1.00
C1341  C     0.18907   0.93957   0.98854   0.00000  Uiso   1.00
C1342  C     0.15030   0.92983   0.00074   0.00000  Uiso   1.00
C1343  C     0.05111   0.81410   0.01220   0.00000  Uiso   1.00
C1344  C     0.06028   0.85169   0.99682   0.00000  Uiso   1.00
C1345  C     0.05913   0.69153   0.98751   0.00000  Uiso   1.00
C1346  C     0.07038   0.65330   0.99922   0.00000  Uiso   1.00
C1347  C     0.43903   0.80571   0.51154   0.00000  Uiso   1.00
C1348  C     0.40137   0.81526   0.49725   0.00000  Uiso   1.00
C1349  C     0.06008   0.81049   0.48849   0.00000  Uiso   1.00
C1350  C     0.47099   0.73477   0.45830   0.00000  Uiso   1.00
C1351  C     0.09784   0.82140   0.50209   0.00000  Uiso   1.00
C1352  C     0.18685   0.94435   0.51119   0.00000  Uiso   1.00
C1353  C     0.17418   0.90809   0.49520   0.00000  Uiso   1.00
C1354  C     0.19522   0.56841   0.49023   0.00000  Uiso   1.00
C1355  C     0.19282   0.60478   0.51109   0.00000  Uiso   1.00
C1356  C     0.06278   0.69383   0.51064   0.00000  Uiso   1.00
C1357  C     0.10065   0.68477   0.49591   0.00000  Uiso   1.00
C1358  C     0.44043   0.68763   0.48750   0.00000  Uiso   1.00
C1359  C     0.40211   0.67691   0.50030   0.00000  Uiso   1.00
C1360  C     0.30699   0.55836   0.51491   0.00000  Uiso   1.00
C1361  C     0.25783   0.53216   0.54453   0.00000  Uiso   1.00
C1362  C     0.31979   0.59355   0.49646   0.00000  Uiso   1.00
C1363  C     0.30591   0.93551   0.48412   0.00000  Uiso   1.00
C1364  C     0.31208   0.89580   0.49486   0.00000  Uiso   1.00
C1365  C     0.11501   0.95926   0.18961   0.00000  Uiso   1.00
C1366  C     0.08173   0.97179   0.16813   0.00000  Uiso   1.00
C1367  C     0.38886   0.53734   0.80245   0.00000  Uiso   1.00
C1368  C     0.42281   0.52818   0.82471   0.00000  Uiso   1.00
C1369  C     0.04033   0.61385   0.19071   0.00000  Uiso   1.00
C1370  C     0.02978   0.58118   0.16658   0.00000  Uiso   1.00
C1371  C     0.46257   0.88868   0.80350   0.00000  Uiso   1.00
C1372  C     0.26087   0.97131   0.45912   0.00000  Uiso   1.00
C1373  C     0.47377   0.92183   0.82673   0.00000  Uiso   1.00
C1374  C     0.38644   0.53805   0.19259   0.00000  Uiso   1.00
C1375  C     0.41863   0.52647   0.16822   0.00000  Uiso   1.00
C1376  C     0.11269   0.96137   0.80689   0.00000  Uiso   1.00
C1377  C     0.07945   0.97171   0.83043   0.00000  Uiso   1.00
C1378  C     0.45194   0.87942   0.17916   0.00000  Uiso   1.00
C1379  C     0.46561   0.91039   0.15447   0.00000  Uiso   1.00
C1380  C     0.03563   0.61114   0.80058   0.00000  Uiso   1.00
C1381  C     0.02291   0.57764   0.82195   0.00000  Uiso   1.00
C1382  C     0.12521   0.59061   0.83612   0.00000  Uiso   1.00
C1383  C     0.21849   0.50742   0.08206   0.00000  Uiso   1.00
C1384  C     0.11942   0.56664   0.87050   0.00000  Uiso   1.00
C1385  C     0.36407   0.91080   0.16239   0.00000  Uiso   1.00
C1386  C     0.35649   0.93906   0.13314   0.00000  Uiso   1.00
C1387  C     0.09009   0.87162   0.83806   0.00000  Uiso   1.00
C1388  C     0.06333   0.86630   0.87020   0.00000  Uiso   1.00
C1389  C     0.41005   0.62795   0.16125   0.00000  Uiso   1.00
C1390  C     0.43518   0.62568   0.12693   0.00000  Uiso   1.00
C1391  C     0.37238   0.91018   0.83468   0.00000  Uiso   1.00
C1392  C     0.37347   0.93579   0.86804   0.00000  Uiso   1.00
C1393  C     0.12897   0.58916   0.16181   0.00000  Uiso   1.00
C1394  C     0.28146   0.51243   0.91746   0.00000  Uiso   1.00
C1395  C     0.12931   0.56327   0.12828   0.00000  Uiso   1.00
C1396  C     0.40726   0.62874   0.83406   0.00000  Uiso   1.00
C1397  C     0.43094   0.62884   0.86870   0.00000  Uiso   1.00
C1398  C     0.08408   0.87273   0.15966   0.00000  Uiso   1.00
C1399  C     0.05534   0.87442   0.12854   0.00000  Uiso   1.00
C1400  C     0.36310   0.71283   0.69418   0.00000  Uiso   1.00
C1401  C     0.33159   0.72645   0.67009   0.00000  Uiso   1.00
C1402  C     0.13884   0.78723   0.30212   0.00000  Uiso   1.00
C1403  C     0.17270   0.77807   0.32472   0.00000  Uiso   1.00
C1404  C     0.28970   0.86660   0.68957   0.00000  Uiso   1.00
C1405  C     0.49235   0.71750   0.08223   0.00000  Uiso   1.00
C1406  C     0.27196   0.83814   0.66395   0.00000  Uiso   1.00
C1407  C     0.21233   0.63860   0.30467   0.00000  Uiso   1.00
C1408  C     0.22332   0.67193   0.32786   0.00000  Uiso   1.00
C1409  C     0.13631   0.78801   0.69250   0.00000  Uiso   1.00
C1410  C     0.16852   0.77664   0.66805   0.00000  Uiso   1.00
C1411  C     0.36316   0.71131   0.30733   0.00000  Uiso   1.00
C1412  C     0.33027   0.72159   0.33135   0.00000  Uiso   1.00
C1413  C     0.20855   0.63169   0.68622   0.00000  Uiso   1.00
C1414  C     0.22541   0.66089   0.66132   0.00000  Uiso   1.00
C1415  C     0.28893   0.86336   0.30656   0.00000  Uiso   1.00
C1416  C     0.28098   0.51341   0.95783   0.00000  Uiso   1.00
C1417  C     0.48581   0.78107   0.91755   0.00000  Uiso   1.00
C1418  C     0.27777   0.83063   0.33028   0.00000  Uiso   1.00
C1419  C     0.37708   0.84071   0.33530   0.00000  Uiso   1.00
C1420  C     0.36787   0.81891   0.37019   0.00000  Uiso   1.00
C1421  C     0.12274   0.66231   0.66230   0.00000  Uiso   1.00
C1422  C     0.10434   0.68841   0.63618   0.00000  Uiso   1.00
C1423  C     0.34176   0.62166   0.33805   0.00000  Uiso   1.00
C1424  C     0.31649   0.61708   0.37147   0.00000  Uiso   1.00
C1425  C     0.15950   0.87790   0.66144   0.00000  Uiso   1.00
C1426  C     0.18440   0.87767   0.62695   0.00000  Uiso   1.00
C1427  C     0.12219   0.66062   0.33604   0.00000  Uiso   1.00
C1428  C     0.28268   0.99561   0.08184   0.00000  Uiso   1.00
C1429  C     0.12257   0.68623   0.36944   0.00000  Uiso   1.00
C1430  C     0.36304   0.82877   0.66058   0.00000  Uiso   1.00
C1431  C     0.39134   0.81495   0.63274   0.00000  Uiso   1.00
C1432  C     0.15864   0.87735   0.33203   0.00000  Uiso   1.00
C1433  C     0.18281   0.87647   0.36589   0.00000  Uiso   1.00
C1434  C     0.33920   0.62642   0.65728   0.00000  Uiso   1.00
C1435  C     0.31240   0.62121   0.62507   0.00000  Uiso   1.00
C1436  C     0.16073   0.98491   0.08992   0.00000  Uiso   1.00
C1437  C     0.34366   0.51055   0.90657   0.00000  Uiso   1.00
C1438  C     0.01482   0.65979   0.08907   0.00000  Uiso   1.00
C1439  C     0.22030   0.98652   0.91816   0.00000  Uiso   1.00
C1440  C     0.48601   0.84358   0.90702   0.00000  Uiso   1.00
C1441  C     0.34031   0.51949   0.08816   0.00000  Uiso   1.00
C1442  C     0.15932   0.99080   0.90621   0.00000  Uiso   1.00
C1443  C     0.45346   0.81817   0.10250   0.00000  Uiso   1.00
C1444  C     0.00621   0.65744   0.90851   0.00000  Uiso   1.00
C1445  C     0.41108   0.73086   0.59078   0.00000  Uiso   1.00
C1446  C     0.09367   0.76228   0.40704   0.00000  Uiso   1.00
C1447  C     0.26502   0.91044   0.58639   0.00000  Uiso   1.00
C1448  C     0.23800   0.59484   0.40640   0.00000  Uiso   1.00
C1449  C     0.08904   0.76835   0.59113   0.00000  Uiso   1.00
C1450  C     0.49977   0.78250   0.08266   0.00000  Uiso   1.00
C1451  C     0.40856   0.74259   0.40841   0.00000  Uiso   1.00
C1452  C     0.20258   0.56765   0.60366   0.00000  Uiso   1.00
C1453  C     0.25090   0.90873   0.40917   0.00000  Uiso   1.00
C1454  C     0.01064   0.71961   0.91821   0.00000  Uiso   1.00
C1455  C     0.46802   0.75535   0.58223   0.00000  Uiso   1.00
C1456  C     0.03121   0.76262   0.41744   0.00000  Uiso   1.00
C1457  C     0.24170   0.96802   0.58221   0.00000  Uiso   1.00
C1458  C     0.23762   0.53228   0.41773   0.00000  Uiso   1.00
C1459  C     0.03231   0.74405   0.58200   0.00000  Uiso   1.00
C1460  C     0.48661   0.71881   0.04277   0.00000  Uiso   1.00
C1461  C     0.46992   0.73703   0.41817   0.00000  Uiso   1.00
C1462  C     0.24894   0.53285   0.58313   0.00000  Uiso   1.00
C1463  C     0.26006   0.96992   0.41905   0.00000  Uiso   1.00
C1464  C     0.25074   0.50024   0.02138   0.00000  Uiso   1.00
C1465  C     0.25090   0.99957   0.97862   0.00000  Uiso   1.00
C1466  C     0.49695   0.75060   0.02182   0.00000  Uiso   1.00
C1467  C     0.49731   0.75078   0.97884   0.00000  Uiso   1.00
C1468  C     0.00058   0.74945   0.52147   0.00000  Uiso   1.00
C1469  C     0.00080   0.74927   0.47863   0.00000  Uiso   1.00
C1470  C     0.24700   0.50144   0.52232   0.00000  Uiso   1.00
C1471  C     0.48348   0.78061   0.95778   0.00000  Uiso   1.00
C1472  C     0.24796   0.50192   0.47927   0.00000  Uiso   1.00
C1473  C     0.24981   0.50011   0.35530   0.00000  Uiso   1.00
C1474  C     0.24896   0.99994   0.64503   0.00000  Uiso   1.00
C1475  C     0.49998   0.75013   0.35514   0.00000  Uiso   1.00
C1476  C     0.00007   0.75000   0.64491   0.00000  Uiso   1.00
C1477  C     0.49979   0.75006   0.85520   0.00000  Uiso   1.00
C1478  C     0.49918   0.74991   0.14498   0.00000  Uiso   1.00
C1479  C     0.25003   0.50006   0.85515   0.00000  Uiso   1.00
C1480  C     0.25012   0.50032   0.14485   0.00000  Uiso   1.00
C1481  C     0.18117   0.57116   0.24831   0.00000  Uiso   1.00
C1482  C     0.28158   0.98910   0.04254   0.00000  Uiso   1.00
C1483  C     0.31904   0.92879   0.75115   0.00000  Uiso   1.00
C1484  C     0.42882   0.68111   0.24815   0.00000  Uiso   1.00
C1485  C     0.07124   0.81880   0.75184   0.00000  Uiso   1.00
C1486  C     0.31904   0.92894   0.24829   0.00000  Uiso   1.00
C1487  C     0.18102   0.57110   0.75153   0.00000  Uiso   1.00
C1488  C     0.07115   0.81854   0.24762   0.00000  Uiso   1.00
C1489  C     0.42890   0.68086   0.75125   0.00000  Uiso   1.00
C1490  C     0.17886   0.93109   0.74819   0.00000  Uiso   1.00
C1491  C     0.32124   0.56877   0.25181   0.00000  Uiso   1.00
C1492  C     0.43134   0.82115   0.74800   0.00000  Uiso   1.00
C1493  C     0.22095   0.98527   0.95834   0.00000  Uiso   1.00
C1494  C     0.06900   0.67890   0.25143   0.00000  Uiso   1.00
C1495  C     0.32125   0.56846   0.74756   0.00000  Uiso   1.00
C1496  C     0.17923   0.93055   0.25093   0.00000  Uiso   1.00
C1497  C     0.06911   0.67901   0.74826   0.00000  Uiso   1.00
C1498  C     0.43073   0.82081   0.25117   0.00000  Uiso   1.00
C1499  C     0.11896   0.90749   0.22860   0.00000  Uiso   1.00
C1500  C     0.38282   0.58976   0.76446   0.00000  Uiso   1.00
C1501  C     0.09151   0.61783   0.23083   0.00000  Uiso   1.00
C1502  C     0.40955   0.88283   0.76575   0.00000  Uiso   1.00
C1503  C     0.38227   0.59094   0.23118   0.00000  Uiso   1.00
C1504  C     0.00650   0.78212   0.04360   0.00000  Uiso   1.00
C1505  C     0.11806   0.90872   0.76822   0.00000  Uiso   1.00
C1506  C     0.40771   0.88031   0.22813   0.00000  Uiso   1.00
C1507  C     0.09074   0.61752   0.76597   0.00000  Uiso   1.00
C1508  C     0.12048   0.59518   0.77241   0.00000  Uiso   1.00
C1509  C     0.37848   0.90393   0.22406   0.00000  Uiso   1.00
C1510  C     0.09572   0.87866   0.77449   0.00000  Uiso   1.00
C1511  C     0.40456   0.62113   0.22493   0.00000  Uiso   1.00
C1512  C     0.37947   0.90505   0.77144   0.00000  Uiso   1.00
C1513  C     0.12140   0.59511   0.22509   0.00000  Uiso   1.00
C1514  C     0.40516   0.61980   0.77086   0.00000  Uiso   1.00
C1515  C     0.01190   0.72090   0.95836   0.00000  Uiso   1.00
C1516  C     0.09568   0.87778   0.22279   0.00000  Uiso   1.00
C1517  C     0.36841   0.65739   0.72816   0.00000  Uiso   1.00
C1518  C     0.13328   0.83909   0.26304   0.00000  Uiso   1.00
C1519  C     0.34224   0.86756   0.72853   0.00000  Uiso   1.00
C1520  C     0.15923   0.63271   0.26720   0.00000  Uiso   1.00
C1521  C     0.13236   0.84079   0.73139   0.00000  Uiso   1.00
C1522  C     0.36797   0.65866   0.26845   0.00000  Uiso   1.00
C1523  C     0.15942   0.63224   0.73048   0.00000  Uiso   1.00
C1524  C     0.34049   0.86731   0.26652   0.00000  Uiso   1.00
C1525  C     0.37008   0.84445   0.27199   0.00000  Uiso   1.00
C1526  C     0.46928   0.76033   0.54261   0.00000  Uiso   1.00
C1527  C     0.12995   0.65561   0.72585   0.00000  Uiso   1.00
C1528  C     0.34558   0.62852   0.27450   0.00000  Uiso   1.00
C1529  C     0.15479   0.87092   0.72513   0.00000  Uiso   1.00
C1530  C     0.12932   0.65528   0.27277   0.00000  Uiso   1.00
C1531  C     0.37246   0.84502   0.72348   0.00000  Uiso   1.00
C1532  C     0.15615   0.86872   0.26908   0.00000  Uiso   1.00
C1533  C     0.34659   0.62677   0.72145   0.00000  Uiso   1.00
C1534  C     0.10086   0.84489   0.24341   0.00000  Uiso   1.00
C1535  C     0.39986   0.65295   0.75095   0.00000  Uiso   1.00
C1536  C     0.15409   0.60043   0.24614   0.00000  Uiso   1.00
H1537  H     0.21080   0.55901   0.98665   0.00000  Uiso   1.00
H1538  H     0.36451   0.54547   0.01284   0.00000  Uiso   1.00
H1539  H     0.47998   0.94527   0.80798   0.00000  Uiso   1.00
H1540  H     0.36683   0.55337   0.17492   0.00000  Uiso   1.00
H1541  H     0.37330   0.51212   0.20137   0.00000  Uiso   1.00
H1542  H     0.44073   0.51564   0.18617   0.00000  Uiso   1.00
H1543  H     0.40985   0.50499   0.14776   0.00000  Uiso   1.00
H1544  H     0.42890   0.54972   0.15156   0.00000  Uiso   1.00
H1545  H     0.12571   0.98759   0.79883   0.00000  Uiso   1.00
H1546  H     0.13225   0.94631   0.82486   0.00000  Uiso   1.00
H1547  H     0.07097   0.94869   0.84875   0.00000  Uiso   1.00
H1548  H     0.08612   0.99515   0.84930   0.00000  Uiso   1.00
H1549  H     0.43955   0.70751   0.98704   0.00000  Uiso   1.00
H1550  H     0.05677   0.97975   0.81158   0.00000  Uiso   1.00
H1551  H     0.43044   0.86312   0.16492   0.00000  Uiso   1.00
H1552  H     0.47611   0.86171   0.18107   0.00000  Uiso   1.00
H1553  H     0.48807   0.92478   0.16917   0.00000  Uiso   1.00
H1554  H     0.47668   0.89931   0.12706   0.00000  Uiso   1.00
H1555  H     0.44349   0.92961   0.14809   0.00000  Uiso   1.00
H1556  H     0.01024   0.62414   0.79067   0.00000  Uiso   1.00
H1557  H     0.04953   0.63009   0.82067   0.00000  Uiso   1.00
H1558  H     0.04518   0.56770   0.84001   0.00000  Uiso   1.00
H1559  H     0.49956   0.58480   0.84108   0.00000  Uiso   1.00
H1560  H     0.42125   0.69612   0.03393   0.00000  Uiso   1.00
H1561  H     0.01450   0.55580   0.80172   0.00000  Uiso   1.00
H1562  H     0.10759   0.61485   0.83983   0.00000  Uiso   1.00
H1563  H     0.15417   0.59953   0.83598   0.00000  Uiso   1.00
H1564  H     0.13192   0.54039   0.86287   0.00000  Uiso   1.00
H1565  H     0.13269   0.57917   0.89599   0.00000  Uiso   1.00
H1566  H     0.09028   0.56184   0.87760   0.00000  Uiso   1.00
H1567  H     0.33772   0.89689   0.16930   0.00000  Uiso   1.00
H1568  H     0.38251   0.89067   0.14918   0.00000  Uiso   1.00
H1569  H     0.38220   0.95051   0.12146   0.00000  Uiso   1.00
H1570  H     0.34029   0.92720   0.10931   0.00000  Uiso   1.00
H1571  H     0.42506   0.63212   0.02070   0.00000  Uiso   1.00
H1572  H     0.34118   0.96047   0.14826   0.00000  Uiso   1.00
H1573  H     0.10935   0.89346   0.84643   0.00000  Uiso   1.00
H1574  H     0.10544   0.84578   0.83480   0.00000  Uiso   1.00
H1575  H     0.04368   0.84529   0.86092   0.00000  Uiso   1.00
H1576  H     0.07729   0.85674   0.89628   0.00000  Uiso   1.00
H1577  H     0.04920   0.89205   0.87699   0.00000  Uiso   1.00
H1578  H     0.39930   0.65611   0.16301   0.00000  Uiso   1.00
H1579  H     0.38691   0.60906   0.15610   0.00000  Uiso   1.00
H1580  H     0.43681   0.59765   0.11538   0.00000  Uiso   1.00
H1581  H     0.42512   0.64342   0.10367   0.00000  Uiso   1.00
H1582  H     0.40716   0.65185   0.97758   0.00000  Uiso   1.00
H1583  H     0.46256   0.63433   0.13581   0.00000  Uiso   1.00
H1584  H     0.39166   0.88783   0.84040   0.00000  Uiso   1.00
H1585  H     0.34434   0.89879   0.83317   0.00000  Uiso   1.00
H1586  H     0.35461   0.95753   0.86047   0.00000  Uiso   1.00
H1587  H     0.36439   0.92190   0.89452   0.00000  Uiso   1.00
H1588  H     0.40095   0.94721   0.87255   0.00000  Uiso   1.00
H1589  H     0.15635   0.60202   0.16393   0.00000  Uiso   1.00
H1590  H     0.10913   0.61081   0.15524   0.00000  Uiso   1.00
H1591  H     0.10192   0.56007   0.11543   0.00000  Uiso   1.00
H1592  H     0.13809   0.53654   0.13838   0.00000  Uiso   1.00
H1593  H     0.45419   0.63892   0.97974   0.00000  Uiso   1.00
H1594  H     0.14800   0.57363   0.10547   0.00000  Uiso   1.00
H1595  H     0.38400   0.61005   0.83942   0.00000  Uiso   1.00
H1596  H     0.39683   0.65689   0.83067   0.00000  Uiso   1.00
H1597  H     0.45491   0.64496   0.86057   0.00000  Uiso   1.00
H1598  H     0.41666   0.64169   0.89329   0.00000  Uiso   1.00
H1599  H     0.43922   0.60115   0.87702   0.00000  Uiso   1.00
H1600  H     0.09594   0.84470   0.15953   0.00000  Uiso   1.00
H1601  H     0.10604   0.89256   0.15178   0.00000  Uiso   1.00
H1602  H     0.04644   0.90297   0.12323   0.00000  Uiso   1.00
H1603  H     0.03132   0.85759   0.13693   0.00000  Uiso   1.00
H1604  H     0.43408   0.78847   0.01029   0.00000  Uiso   1.00
H1605  H     0.06719   0.86375   0.10132   0.00000  Uiso   1.00
H1606  H     0.38371   0.69970   0.67553   0.00000  Uiso   1.00
H1607  H     0.37529   0.73785   0.70649   0.00000  Uiso   1.00
H1608  H     0.30718   0.73154   0.68804   0.00000  Uiso   1.00
H1609  H     0.33958   0.75227   0.65605   0.00000  Uiso   1.00
H1610  H     0.32480   0.70695   0.64707   0.00000  Uiso   1.00
H1611  H     0.12563   0.76078   0.29524   0.00000  Uiso   1.00
H1612  H     0.11948   0.80254   0.32052   0.00000  Uiso   1.00
H1613  H     0.17441   0.79579   0.35019   0.00000  Uiso   1.00
H1614  H     0.17098   0.74970   0.33519   0.00000  Uiso   1.00
H1615  H     0.41835   0.80754   0.96551   0.00000  Uiso   1.00
H1616  H     0.19760   0.78102   0.30702   0.00000  Uiso   1.00
H1617  H     0.30653   0.88579   0.67229   0.00000  Uiso   1.00
H1618  H     0.26553   0.88049   0.70126   0.00000  Uiso   1.00
H1619  H     0.27261   0.81088   0.67706   0.00000  Uiso   1.00
H1620  H     0.24322   0.84515   0.65943   0.00000  Uiso   1.00
H1621  H     0.28458   0.83813   0.63506   0.00000  Uiso   1.00
H1622  H     0.23834   0.62587   0.29580   0.00000  Uiso   1.00
H1623  H     0.19757   0.61892   0.32324   0.00000  Uiso   1.00
H1624  H     0.20149   0.67911   0.34816   0.00000  Uiso   1.00
H1625  H     0.24791   0.66594   0.34482   0.00000  Uiso   1.00
H1626  H     0.42841   0.86919   0.98859   0.00000  Uiso   1.00
H1627  H     0.22953   0.69532   0.30905   0.00000  Uiso   1.00
H1628  H     0.11666   0.80345   0.67507   0.00000  Uiso   1.00
H1629  H     0.12313   0.76200   0.70098   0.00000  Uiso   1.00
H1630  H     0.18956   0.76358   0.68571   0.00000  Uiso   1.00
H1631  H     0.15943   0.75680   0.64601   0.00000  Uiso   1.00
H1632  H     0.18025   0.80043   0.65333   0.00000  Uiso   1.00
H1633  H     0.37586   0.73760   0.29902   0.00000  Uiso   1.00
H1634  H     0.38317   0.69650   0.32500   0.00000  Uiso   1.00
H1635  H     0.32061   0.69796   0.34802   0.00000  Uiso   1.00
H1636  H     0.33765   0.74353   0.35173   0.00000  Uiso   1.00
H1637  H     0.40460   0.84528   0.02630   0.00000  Uiso   1.00
H1638  H     0.30823   0.73180   0.31298   0.00000  Uiso   1.00
H1639  H     0.18872   0.61497   0.67011   0.00000  Uiso   1.00
H1640  H     0.23278   0.61499   0.69203   0.00000  Uiso   1.00
H1641  H     0.25011   0.67216   0.67515   0.00000  Uiso   1.00
H1642  H     0.23397   0.64814   0.63383   0.00000  Uiso   1.00
H1643  H     0.20594   0.68277   0.65546   0.00000  Uiso   1.00
H1644  H     0.26310   0.87709   0.29938   0.00000  Uiso   1.00
H1645  H     0.30508   0.88287   0.32397   0.00000  Uiso   1.00
H1646  H     0.28709   0.83459   0.36009   0.00000  Uiso   1.00
H1647  H     0.24773   0.82812   0.33117   0.00000  Uiso   1.00
H1648  H     0.19767   0.57802   0.03274   0.00000  Uiso   1.00
H1649  H     0.45275   0.85366   0.02955   0.00000  Uiso   1.00
H1650  H     0.28907   0.80519   0.31831   0.00000  Uiso   1.00
H1651  H     0.36220   0.86675   0.33785   0.00000  Uiso   1.00
H1652  H     0.40670   0.84673   0.33547   0.00000  Uiso   1.00
H1653  H     0.38714   0.79677   0.36987   0.00000  Uiso   1.00
H1654  H     0.37119   0.83555   0.39645   0.00000  Uiso   1.00
H1655  H     0.34008   0.80753   0.36907   0.00000  Uiso   1.00
H1656  H     0.10384   0.63873   0.66638   0.00000  Uiso   1.00
H1657  H     0.14735   0.65243   0.64752   0.00000  Uiso   1.00
H1658  H     0.12492   0.70497   0.62075   0.00000  Uiso   1.00
H1659  H     0.08739   0.67363   0.61492   0.00000  Uiso   1.00
H1660  H     0.29071   0.94100   0.98712   0.00000  Uiso   1.00
H1661  H     0.08678   0.70633   0.65355   0.00000  Uiso   1.00
H1662  H     0.36111   0.64377   0.34519   0.00000  Uiso   1.00
H1663  H     0.35708   0.59582   0.33472   0.00000  Uiso   1.00
H1664  H     0.29684   0.59558   0.36365   0.00000  Uiso   1.00
H1665  H     0.33180   0.60839   0.39711   0.00000  Uiso   1.00
H1666  H     0.30241   0.64294   0.37811   0.00000  Uiso   1.00
H1667  H     0.14767   0.90554   0.66392   0.00000  Uiso   1.00
H1668  H     0.13727   0.85813   0.65586   0.00000  Uiso   1.00
H1669  H     0.18916   0.84973   0.61626   0.00000  Uiso   1.00
H1670  H     0.17254   0.89387   0.60346   0.00000  Uiso   1.00
H1671  H     0.30165   0.92276   0.03382   0.00000  Uiso   1.00
H1672  H     0.21036   0.88983   0.63558   0.00000  Uiso   1.00
H1673  H     0.14183   0.63865   0.34197   0.00000  Uiso   1.00
H1674  H     0.09437   0.64873   0.33430   0.00000  Uiso   1.00
H1675  H     0.10261   0.70721   0.36250   0.00000  Uiso   1.00
H1676  H     0.11442   0.67183   0.39597   0.00000  Uiso   1.00
H1677  H     0.14971   0.69867   0.37356   0.00000  Uiso   1.00
H1678  H     0.36196   0.85886   0.65759   0.00000  Uiso   1.00
H1679  H     0.33690   0.81727   0.65151   0.00000  Uiso   1.00
H1680  H     0.41567   0.80587   0.64835   0.00000  Uiso   1.00
H1681  H     0.39934   0.83646   0.61224   0.00000  Uiso   1.00
H1682  H     0.36578   0.92557   0.02004   0.00000  Uiso   1.00
H1683  H     0.37946   0.79224   0.61617   0.00000  Uiso   1.00
H1684  H     0.13507   0.85917   0.33762   0.00000  Uiso   1.00
H1685  H     0.14875   0.90577   0.32917   0.00000  Uiso   1.00
H1686  H     0.20529   0.89455   0.35764   0.00000  Uiso   1.00
H1687  H     0.16839   0.88669   0.39170   0.00000  Uiso   1.00
H1688  H     0.19327   0.84892   0.37145   0.00000  Uiso   1.00
H1689  H     0.35887   0.60358   0.65625   0.00000  Uiso   1.00
H1690  H     0.35430   0.65184   0.65142   0.00000  Uiso   1.00
H1691  H     0.29787   0.64694   0.61969   0.00000  Uiso   1.00
H1692  H     0.32717   0.61342   0.59846   0.00000  Uiso   1.00
H1693  H     0.34506   0.90674   0.97756   0.00000  Uiso   1.00
H1694  H     0.29276   0.59951   0.63246   0.00000  Uiso   1.00
H1695  H     0.17254   0.96151   0.07399   0.00000  Uiso   1.00
H1696  H     0.13930   0.99784   0.07262   0.00000  Uiso   1.00
H1697  H     0.14773   0.97360   0.11571   0.00000  Uiso   1.00
H1698  H     0.34012   0.98182   0.91567   0.00000  Uiso   1.00
H1699  H     0.35840   0.52542   0.92908   0.00000  Uiso   1.00
H1700  H     0.36196   0.51239   0.88137   0.00000  Uiso   1.00
H1701  H     0.03822   0.67192   0.07330   0.00000  Uiso   1.00
H1702  H     0.00146   0.63869   0.07126   0.00000  Uiso   1.00
H1703  H     0.02614   0.64626   0.11438   0.00000  Uiso   1.00
H1704  H     0.35930   0.95368   0.97860   0.00000  Uiso   1.00
H1705  H     0.01383   0.84168   0.91894   0.00000  Uiso   1.00
H1706  H     0.46839   0.85819   0.92752   0.00000  Uiso   1.00
H1707  H     0.48671   0.86085   0.88120   0.00000  Uiso   1.00
H1708  H     0.32789   0.54287   0.07316   0.00000  Uiso   1.00
H1709  H     0.36092   0.50619   0.06970   0.00000  Uiso   1.00
H1710  H     0.35461   0.53062   0.11336   0.00000  Uiso   1.00
H1711  H     0.16441   0.52048   0.91094   0.00000  Uiso   1.00
H1712  H     0.14398   0.97962   0.93088   0.00000  Uiso   1.00
H1713  H     0.14121   0.98638   0.88154   0.00000  Uiso   1.00
H1714  H     0.44357   0.80631   0.12979   0.00000  Uiso   1.00
H1715  H     0.20729   0.93629   0.01345   0.00000  Uiso   1.00
H1716  H     0.43860   0.80472   0.07848   0.00000  Uiso   1.00
H1717  H     0.44591   0.84729   0.10170   0.00000  Uiso   1.00
H1718  H     0.47719   0.66202   0.91605   0.00000  Uiso   1.00
H1719  H     0.01920   0.64307   0.93230   0.00000  Uiso   1.00
H1720  H     0.00868   0.63824   0.88411   0.00000  Uiso   1.00
H1721  H     0.42417   0.70668   0.57747   0.00000  Uiso   1.00
H1722  H     0.39030   0.74198   0.57130   0.00000  Uiso   1.00
H1723  H     0.39670   0.72137   0.61657   0.00000  Uiso   1.00
H1724  H     0.09100   0.73392   0.41763   0.00000  Uiso   1.00
H1725  H     0.10797   0.77877   0.42870   0.00000  Uiso   1.00
H1726  H     0.19757   0.92108   0.96499   0.00000  Uiso   1.00
H1727  H     0.11177   0.76315   0.38165   0.00000  Uiso   1.00
H1728  H     0.28724   0.92302   0.56923   0.00000  Uiso   1.00
H1729  H     0.25084   0.88932   0.56939   0.00000  Uiso   1.00
H1730  H     0.27812   0.89691   0.61079   0.00000  Uiso   1.00
H1731  H     0.26543   0.59311   0.41938   0.00000  Uiso   1.00
H1732  H     0.21982   0.61007   0.42587   0.00000  Uiso   1.00
H1733  H     0.23974   0.61136   0.38019   0.00000  Uiso   1.00
H1734  H     0.07648   0.79199   0.57671   0.00000  Uiso   1.00
H1735  H     0.11091   0.75679   0.57296   0.00000  Uiso   1.00
H1736  H     0.10160   0.77871   0.61752   0.00000  Uiso   1.00
H1737  H     0.13454   0.92014   0.97573   0.00000  Uiso   1.00
H1738  H     0.41401   0.77141   0.41672   0.00000  Uiso   1.00
H1739  H     0.39296   0.72920   0.43160   0.00000  Uiso   1.00
H1740  H     0.39053   0.74121   0.38354   0.00000  Uiso   1.00
H1741  H     0.19235   0.55014   0.62734   0.00000  Uiso   1.00
H1742  H     0.18831   0.56001   0.57699   0.00000  Uiso   1.00
H1743  H     0.19496   0.59600   0.60982   0.00000  Uiso   1.00
H1744  H     0.22182   0.91603   0.41277   0.00000  Uiso   1.00
H1745  H     0.25949   0.89448   0.43495   0.00000  Uiso   1.00
H1746  H     0.25506   0.88810   0.38634   0.00000  Uiso   1.00
H1747  H     0.15053   0.90825   0.02266   0.00000  Uiso   1.00
H1748  H     0.13396   0.57216   0.01767   0.00000  Uiso   1.00
H1749  H     0.13620   0.95384   0.01305   0.00000  Uiso   1.00
H1750  H     0.05285   0.79449   0.98811   0.00000  Uiso   1.00
H1751  H     0.07124   0.80678   0.03438   0.00000  Uiso   1.00
H1752  H     0.06784   0.87012   0.02066   0.00000  Uiso   1.00
H1753  H     0.08327   0.84997   0.97632   0.00000  Uiso   1.00
H1754  H     0.03657   0.86330   0.98180   0.00000  Uiso   1.00
H1755  H     0.06237   0.71009   0.01240   0.00000  Uiso   1.00
H1756  H     0.07677   0.70070   0.96349   0.00000  Uiso   1.00
H1757  H     0.08016   0.63786   0.97389   0.00000  Uiso   1.00
H1758  H     0.09229   0.65465   0.02069   0.00000  Uiso   1.00
H1759  H     0.15538   0.59138   0.97567   0.00000  Uiso   1.00
H1760  H     0.04710   0.63811   0.01189   0.00000  Uiso   1.00
H1761  H     0.45840   0.80752   0.48717   0.00000  Uiso   1.00
H1762  H     0.44699   0.82534   0.53429   0.00000  Uiso   1.00
H1763  H     0.38323   0.82119   0.52189   0.00000  Uiso   1.00
H1764  H     0.40282   0.83928   0.47839   0.00000  Uiso   1.00
H1765  H     0.38961   0.79213   0.48087   0.00000  Uiso   1.00
H1766  H     0.04072   0.81281   0.51287   0.00000  Uiso   1.00
H1767  H     0.05189   0.82889   0.46505   0.00000  Uiso   1.00
H1768  H     0.11498   0.82965   0.47741   0.00000  Uiso   1.00
H1769  H     0.09606   0.84424   0.52271   0.00000  Uiso   1.00
H1770  H     0.14307   0.54391   0.97658   0.00000  Uiso   1.00
H1771  H     0.11126   0.79821   0.51634   0.00000  Uiso   1.00
H1772  H     0.18747   0.96434   0.48756   0.00000  Uiso   1.00
H1773  H     0.16757   0.95341   0.53382   0.00000  Uiso   1.00
H1774  H     0.16874   0.88904   0.51901   0.00000  Uiso   1.00
H1775  H     0.14919   0.91152   0.47817   0.00000  Uiso   1.00
H1776  H     0.19573   0.89637   0.47654   0.00000  Uiso   1.00
H1777  H     0.18884   0.54623   0.51061   0.00000  Uiso   1.00
H1778  H     0.17539   0.56804   0.46649   0.00000  Uiso   1.00
H1779  H     0.19516   0.62744   0.49048   0.00000  Uiso   1.00
H1780  H     0.16670   0.60695   0.52677   0.00000  Uiso   1.00
H1781  H     0.29410   0.56440   0.01073   0.00000  Uiso   1.00
H1782  H     0.21536   0.60763   0.53189   0.00000  Uiso   1.00
H1783  H     0.04369   0.69207   0.48630   0.00000  Uiso   1.00
H1784  H     0.05479   0.67391   0.53300   0.00000  Uiso   1.00
H1785  H     0.11874   0.67878   0.52026   0.00000  Uiso   1.00
H1786  H     0.09954   0.66089   0.47660   0.00000  Uiso   1.00
H1787  H     0.11226   0.70813   0.47983   0.00000  Uiso   1.00
H1788  H     0.45923   0.68411   0.51192   0.00000  Uiso   1.00
H1789  H     0.44871   0.66988   0.46327   0.00000  Uiso   1.00
H1790  H     0.38555   0.66899   0.47522   0.00000  Uiso   1.00
H1791  H     0.40306   0.65383   0.52045   0.00000  Uiso   1.00
H1792  H     0.30569   0.57729   0.96190   0.00000  Uiso   1.00
H1793  H     0.38837   0.69997   0.51489   0.00000  Uiso   1.00
H1794  H     0.30765   0.53673   0.49276   0.00000  Uiso   1.00
H1795  H     0.32591   0.55113   0.53829   0.00000  Uiso   1.00
H1796  H     0.32864   0.61311   0.51876   0.00000  Uiso   1.00
H1797  H     0.34279   0.58815   0.47673   0.00000  Uiso   1.00
H1798  H     0.29745   0.60590   0.47988   0.00000  Uiso   1.00
H1799  H     0.31472   0.95328   0.50814   0.00000  Uiso   1.00
H1800  H     0.32199   0.94186   0.45802   0.00000  Uiso   1.00
H1801  H     0.31795   0.87940   0.46890   0.00000  Uiso   1.00
H1802  H     0.33510   0.89358   0.51487   0.00000  Uiso   1.00
H1803  H     0.36848   0.57670   0.97376   0.00000  Uiso   1.00
H1804  H     0.28758   0.88397   0.50891   0.00000  Uiso   1.00
H1805  H     0.13315   0.94260   0.17100   0.00000  Uiso   1.00
H1806  H     0.12982   0.98491   0.19627   0.00000  Uiso   1.00
H1807  H     0.06695   0.99250   0.18554   0.00000  Uiso   1.00
H1808  H     0.09011   0.98433   0.14051   0.00000  Uiso   1.00
H1809  H     0.06340   0.94840   0.16256   0.00000  Uiso   1.00
H1810  H     0.37609   0.51086   0.79483   0.00000  Uiso   1.00
H1811  H     0.36938   0.55214   0.82124   0.00000  Uiso   1.00
H1812  H     0.42858   0.55050   0.84582   0.00000  Uiso   1.00
H1813  H     0.41814   0.50228   0.84128   0.00000  Uiso   1.00
H1814  H     0.35132   0.59208   0.01950   0.00000  Uiso   1.00
H1815  H     0.44673   0.52456   0.80469   0.00000  Uiso   1.00
H1816  H     0.05662   0.63353   0.17359   0.00000  Uiso   1.00
H1817  H     0.01415   0.62708   0.19796   0.00000  Uiso   1.00
H1818  H     0.01298   0.56200   0.18351   0.00000  Uiso   1.00
H1819  H     0.01367   0.59014   0.14168   0.00000  Uiso   1.00
H1820  H     0.05424   0.56720   0.15600   0.00000  Uiso   1.00
H1821  H     0.48851   0.87588   0.79448   0.00000  Uiso   1.00
H1822  H     0.44775   0.86906   0.82205   0.00000  Uiso   1.00
H1823  H     0.45211   0.92899   0.84715   0.00000  Uiso   1.00
H1824  H     0.49835   0.91564   0.84359   0.00000  Uiso   1.00
O1825  O     0.25000   0.50000   0.25000   0.00000  Uiso   1.00
O1826  O     0.25000   0.96964   0.66317   0.00000  Uiso   1.00
O1827  O     0.32081   0.62820   0.69299   0.00000  Uiso   1.00
O1828  O     0.18615   0.51163   0.10140   0.00000  Uiso   1.00
O1829  O     0.31046   0.52749   0.89735   0.00000  Uiso   1.00
O1830  O     0.48861   0.68511   0.10157   0.00000  Uiso   1.00
O1831  O     0.47078   0.80948   0.89697   0.00000  Uiso   1.00
O1832  O     0.31502   0.99324   0.10095   0.00000  Uiso   1.00
O1833  O     0.19139   0.97118   0.89880   0.00000  Uiso   1.00
O1834  O     0.49183   0.81535   0.09983   0.00000  Uiso   1.00
O1835  O     0.02485   0.68990   0.89866   0.00000  Uiso   1.00
O1836  O     0.43553   0.75868   0.60153   0.00000  Uiso   1.00
O1837  O     0.46964   0.75000   0.33683   0.00000  Uiso   1.00
O1838  O     0.06001   0.77793   0.39718   0.00000  Uiso   1.00
O1839  O     0.23929   0.93529   0.60097   0.00000  Uiso   1.00
O1840  O     0.22278   0.56065   0.39693   0.00000  Uiso   1.00
O1841  O     0.06444   0.74053   0.60114   0.00000  Uiso   1.00
O1842  O     0.44028   0.72318   0.39881   0.00000  Uiso   1.00
O1843  O     0.24080   0.56567   0.60016   0.00000  Uiso   1.00
O1844  O     0.27272   0.93930   0.39999   0.00000  Uiso   1.00
O1845  O     0.03036   0.75000   0.66317   0.00000  Uiso   1.00
O1846  O     0.00000   0.71964   0.83683   0.00000  Uiso   1.00
O1847  O    -0.00000   0.78036   0.16317   0.00000  Uiso   1.00
O1848  O     0.28036   0.50000   0.83683   0.00000  Uiso   1.00
O1849  O     0.21964   0.50000   0.16317   0.00000  Uiso   1.00
O1850  O    -0.00000   0.78036   0.83683   0.00000  Uiso   1.00
O1851  O     0.00000   0.71964   0.16317   0.00000  Uiso   1.00
O1852  O     0.21964   0.50000   0.83683   0.00000  Uiso   1.00
O1853  O     0.25000   0.50000   0.75000   0.00000  Uiso   1.00
O1854  O     0.28036   0.50000   0.16317   0.00000  Uiso   1.00
O1855  O     0.20725   0.57307   0.27282   0.00000  Uiso   1.00
O1856  O     0.29274   0.92693   0.72718   0.00000  Uiso   1.00
O1857  O     0.42693   0.70726   0.27282   0.00000  Uiso   1.00
O1858  O     0.07307   0.79275   0.72718   0.00000  Uiso   1.00
O1859  O     0.29274   0.92693   0.27282   0.00000  Uiso   1.00
O1860  O     0.20725   0.57307   0.72718   0.00000  Uiso   1.00
O1861  O     0.07307   0.79275   0.27282   0.00000  Uiso   1.00
O1862  O     0.42693   0.70726   0.72718   0.00000  Uiso   1.00
O1863  O     0.20725   0.92693   0.72718   0.00000  Uiso   1.00
O1864  O     0.00000   0.75000   0.25000   0.00000  Uiso   1.00
O1865  O     0.29274   0.57307   0.27282   0.00000  Uiso   1.00
O1866  O     0.42693   0.79275   0.72718   0.00000  Uiso   1.00
O1867  O     0.07307   0.70726   0.27282   0.00000  Uiso   1.00
O1868  O     0.29274   0.57307   0.72718   0.00000  Uiso   1.00
O1869  O     0.20725   0.92693   0.27282   0.00000  Uiso   1.00
O1870  O     0.07307   0.70726   0.72718   0.00000  Uiso   1.00
O1871  O     0.42693   0.79275   0.27282   0.00000  Uiso   1.00
O1872  O     0.45725   0.82307   0.77282   0.00000  Uiso   1.00
O1873  O     0.04274   0.67693   0.22718   0.00000  Uiso   1.00
O1874  O     0.17693   0.95726   0.77282   0.00000  Uiso   1.00
O1875  O     0.00000   0.75000   0.75000   0.00000  Uiso   1.00
O1876  O     0.32307   0.54275   0.22718   0.00000  Uiso   1.00
O1877  O     0.04274   0.67693   0.77282   0.00000  Uiso   1.00
O1878  O     0.45725   0.82307   0.22718   0.00000  Uiso   1.00
O1879  O     0.32307   0.54275   0.77282   0.00000  Uiso   1.00
O1880  O     0.17693   0.95726   0.22718   0.00000  Uiso   1.00
O1881  O     0.45725   0.67693   0.22718   0.00000  Uiso   1.00
O1882  O     0.04274   0.82307   0.77282   0.00000  Uiso   1.00
O1883  O     0.17693   0.54275   0.22718   0.00000  Uiso   1.00
O1884  O     0.32307   0.95726   0.77282   0.00000  Uiso   1.00
O1885  O     0.04274   0.82307   0.22718   0.00000  Uiso   1.00
O1886  O     0.25000   0.96964   0.33683   0.00000  Uiso   1.00
O1887  O     0.45725   0.67693   0.77282   0.00000  Uiso   1.00
O1888  O     0.32307   0.95726   0.22718   0.00000  Uiso   1.00
O1889  O     0.17693   0.54275   0.77282   0.00000  Uiso   1.00
O1890  O     0.18794   0.52276   0.02538   0.00000  Uiso   1.00
O1891  O     0.31258   0.52292   0.97618   0.00000  Uiso   1.00
O1892  O     0.47631   0.68654   0.02556   0.00000  Uiso   1.00
O1893  O     0.47343   0.81240   0.97577   0.00000  Uiso   1.00
O1894  O     0.31348   0.97752   0.02566   0.00000  Uiso   1.00
O1895  O     0.18920   0.97586   0.97695   0.00000  Uiso   1.00
O1896  O     0.01591   0.81515   0.02774   0.00000  Uiso   1.00
O1897  O     0.25000   0.53036   0.66317   0.00000  Uiso   1.00
O1898  O     0.02258   0.68994   0.97698   0.00000  Uiso   1.00
O1899  O     0.43717   0.77026   0.52568   0.00000  Uiso   1.00
O1900  O     0.06195   0.77444   0.47598   0.00000  Uiso   1.00
O1901  O     0.22156   0.93894   0.52607   0.00000  Uiso   1.00
O1902  O     0.23064   0.56547   0.47599   0.00000  Uiso   1.00
O1903  O     0.06413   0.72918   0.52549   0.00000  Uiso   1.00
O1904  O     0.43961   0.72416   0.47684   0.00000  Uiso   1.00
O1905  O     0.27180   0.56388   0.52950   0.00000  Uiso   1.00
O1906  O     0.26867   0.93994   0.47854   0.00000  Uiso   1.00
O1907  O     0.10462   0.94225   0.22436   0.00000  Uiso   1.00
O1908  O     0.03036   0.75000   0.33683   0.00000  Uiso   1.00
O1909  O     0.39793   0.55530   0.76788   0.00000  Uiso   1.00
O1910  O     0.05695   0.60291   0.22519   0.00000  Uiso   1.00
O1911  O     0.44385   0.89879   0.76987   0.00000  Uiso   1.00
O1912  O     0.39778   0.55662   0.22612   0.00000  Uiso   1.00
O1913  O     0.10264   0.94312   0.77268   0.00000  Uiso   1.00
O1914  O     0.44223   0.89213   0.21628   0.00000  Uiso   1.00
O1915  O     0.05632   0.60142   0.76783   0.00000  Uiso   1.00
O1916  O     0.11763   0.57084   0.80212   0.00000  Uiso   1.00
O1917  O     0.37993   0.92822   0.19446   0.00000  Uiso   1.00
O1918  O     0.07113   0.88047   0.80433   0.00000  Uiso   1.00
O1919  O     0.46964   0.75000   0.66317   0.00000  Uiso   1.00
O1920  O     0.42915   0.61933   0.19503   0.00000  Uiso   1.00
O1921  O     0.38119   0.92957   0.80112   0.00000  Uiso   1.00
O1922  O     0.11981   0.57032   0.19565   0.00000  Uiso   1.00
O1923  O     0.42804   0.61830   0.80160   0.00000  Uiso   1.00
O1924  O     0.06847   0.88086   0.19593   0.00000  Uiso   1.00
O1925  O     0.35099   0.69096   0.72511   0.00000  Uiso   1.00
O1926  O     0.14769   0.80430   0.26693   0.00000  Uiso   1.00
O1927  O     0.30834   0.85150   0.72108   0.00000  Uiso   1.00
O1928  O     0.19362   0.64847   0.27097   0.00000  Uiso   1.00
O1929  O     0.14760   0.80634   0.72621   0.00000  Uiso   1.00
O1930  O     0.25000   0.53036   0.33683   0.00000  Uiso   1.00
O1931  O     0.35256   0.69299   0.27338   0.00000  Uiso   1.00
O1932  O     0.19426   0.64567   0.72120   0.00000  Uiso   1.00
O1933  O     0.30576   0.85270   0.27171   0.00000  Uiso   1.00
O1934  O     0.36804   0.82056   0.30209   0.00000  Uiso   1.00
O1935  O     0.13201   0.68056   0.69675   0.00000  Uiso   1.00
O1936  O     0.32159   0.62973   0.30487   0.00000  Uiso   1.00
O1937  O     0.17906   0.86923   0.69492   0.00000  Uiso   1.00
O1938  O     0.13105   0.67994   0.30234   0.00000  Uiso   1.00
O1939  O     0.36997   0.81605   0.69801   0.00000  Uiso   1.00
O1940  O     0.17913   0.86677   0.29949   0.00000  Uiso   1.00
Zn1941 Zn    0.20660   0.50000   0.21760   0.00000  Uiso   1.00
Zn1942 Zn    0.04340   0.75000   0.28240   0.00000  Uiso   1.00
Zn1943 Zn    0.25000   0.95660   0.71760   0.00000  Uiso   1.00
Zn1944 Zn    0.25000   0.54340   0.28240   0.00000  Uiso   1.00
Zn1945 Zn    0.04340   0.75000   0.71760   0.00000  Uiso   1.00
Zn1946 Zn    0.45660   0.75000   0.28240   0.00000  Uiso   1.00
Zn1947 Zn    0.25000   0.54340   0.71760   0.00000  Uiso   1.00
Zn1948 Zn    0.25000   0.95660   0.28240   0.00000  Uiso   1.00
Zn1949 Zn    0.29340   0.50000   0.78240   0.00000  Uiso   1.00
Zn1950 Zn   -0.00000   0.70660   0.21760   0.00000  Uiso   1.00
Zn1951 Zn    0.00000   0.79340   0.78240   0.00000  Uiso   1.00
Zn1952 Zn    0.29340   0.50000   0.21760   0.00000  Uiso   1.00
Zn1953 Zn    0.20660   0.50000   0.78240   0.00000  Uiso   1.00
Zn1954 Zn   -0.00000   0.79340   0.21760   0.00000  Uiso   1.00
Zn1955 Zn    0.00000   0.70660   0.78240   0.00000  Uiso   1.00
Zn1956 Zn    0.45660   0.75000   0.71760   0.00000  Uiso   1.00
C1957  C     0.71987   0.51237   0.04246   0.00000  Uiso   1.00
C1958  C     0.53063   0.76378   0.45783   0.00000  Uiso   1.00
C1959  C     0.84661   0.89957   0.75108   0.00000  Uiso   1.00
C1960  C     0.89954   0.65386   0.24615   0.00000  Uiso   1.00
C1961  C     0.60071   0.84583   0.75359   0.00000  Uiso   1.00
C1962  C     0.84608   0.89951   0.24595   0.00000  Uiso   1.00
C1963  C     0.65389   0.60040   0.75246   0.00000  Uiso   1.00
C1964  C     0.59662   0.65006   0.74607   0.00000  Uiso   1.00
C1965  C     0.90296   0.84936   0.25132   0.00000  Uiso   1.00
C1966  C     0.64968   0.90376   0.74617   0.00000  Uiso   1.00
C1967  C     0.85064   0.59584   0.25345   0.00000  Uiso   1.00
C1968  C     0.90464   0.85053   0.74493   0.00000  Uiso   1.00
C1969  C     0.73494   0.97010   0.54305   0.00000  Uiso   1.00
C1970  C     0.59646   0.64984   0.25248   0.00000  Uiso   1.00
C1971  C     0.85109   0.59476   0.74345   0.00000  Uiso   1.00
C1972  C     0.65076   0.90218   0.25011   0.00000  Uiso   1.00
C1973  C     0.75041   0.50107   0.10235   0.00000  Uiso   1.00
C1974  C     0.75051   0.99986   0.89779   0.00000  Uiso   1.00
C1975  C     0.99731   0.74983   0.10287   0.00000  Uiso   1.00
C1976  C     0.99882   0.75024   0.89775   0.00000  Uiso   1.00
C1977  C     0.50013   0.74984   0.60241   0.00000  Uiso   1.00
C1978  C     0.50027   0.75008   0.39778   0.00000  Uiso   1.00
C1979  C     0.74653   0.50011   0.60319   0.00000  Uiso   1.00
C1980  C     0.73650   0.53262   0.45814   0.00000  Uiso   1.00
C1981  C     0.74914   0.50067   0.39796   0.00000  Uiso   1.00
C1982  C     0.69053   0.55783   0.01023   0.00000  Uiso   1.00
C1983  C     0.65348   0.56700   0.99400   0.00000  Uiso   1.00
C1984  C     0.81304   0.55970   0.98637   0.00000  Uiso   1.00
C1985  C     0.85161   0.56915   0.99889   0.00000  Uiso   1.00
C1986  C     0.94097   0.68821   0.01121   0.00000  Uiso   1.00
C1987  C     0.93116   0.65047   0.99639   0.00000  Uiso   1.00
C1988  C     0.93770   0.81090   0.98946   0.00000  Uiso   1.00
C1989  C     0.93026   0.84691   0.00967   0.00000  Uiso   1.00
C1990  C     0.81021   0.94213   0.01114   0.00000  Uiso   1.00
C1991  C     0.53162   0.73879   0.54248   0.00000  Uiso   1.00
C1992  C     0.84736   0.93126   0.99588   0.00000  Uiso   1.00
C1993  C     0.68907   0.93957   0.98854   0.00000  Uiso   1.00
C1994  C     0.65030   0.92983   0.00074   0.00000  Uiso   1.00
C1995  C     0.55111   0.81410   0.01220   0.00000  Uiso   1.00
C1996  C     0.56028   0.85169   0.99682   0.00000  Uiso   1.00
C1997  C     0.55913   0.69153   0.98751   0.00000  Uiso   1.00
C1998  C     0.57038   0.65330   0.99922   0.00000  Uiso   1.00
C1999  C     0.93903   0.80571   0.51154   0.00000  Uiso   1.00
C2000  C     0.90137   0.81526   0.49725   0.00000  Uiso   1.00
C2001  C     0.56008   0.81049   0.48849   0.00000  Uiso   1.00
C2002  C     0.97099   0.73477   0.45830   0.00000  Uiso   1.00
C2003  C     0.59784   0.82140   0.50209   0.00000  Uiso   1.00
C2004  C     0.68685   0.94435   0.51119   0.00000  Uiso   1.00
C2005  C     0.67418   0.90809   0.49520   0.00000  Uiso   1.00
C2006  C     0.69522   0.56841   0.49023   0.00000  Uiso   1.00
C2007  C     0.69282   0.60478   0.51109   0.00000  Uiso   1.00
C2008  C     0.56278   0.69383   0.51064   0.00000  Uiso   1.00
C2009  C     0.60065   0.68477   0.49591   0.00000  Uiso   1.00
C2010  C     0.94043   0.68763   0.48750   0.00000  Uiso   1.00
C2011  C     0.90211   0.67691   0.50030   0.00000  Uiso   1.00
C2012  C     0.80699   0.55836   0.51491   0.00000  Uiso   1.00
C2013  C     0.75783   0.53216   0.54453   0.00000  Uiso   1.00
C2014  C     0.81979   0.59355   0.49646   0.00000  Uiso   1.00
C2015  C     0.80591   0.93551   0.48412   0.00000  Uiso   1.00
C2016  C     0.81208   0.89580   0.49486   0.00000  Uiso   1.00
C2017  C     0.61501   0.95926   0.18961   0.00000  Uiso   1.00
C2018  C     0.58173   0.97179   0.16813   0.00000  Uiso   1.00
C2019  C     0.88886   0.53734   0.80245   0.00000  Uiso   1.00
C2020  C     0.92281   0.52818   0.82471   0.00000  Uiso   1.00
C2021  C     0.54033   0.61385   0.19071   0.00000  Uiso   1.00
C2022  C     0.52978   0.58118   0.16658   0.00000  Uiso   1.00
C2023  C     0.96257   0.88868   0.80350   0.00000  Uiso   1.00
C2024  C     0.76087   0.97131   0.45912   0.00000  Uiso   1.00
C2025  C     0.97377   0.92183   0.82673   0.00000  Uiso   1.00
C2026  C     0.88644   0.53805   0.19259   0.00000  Uiso   1.00
C2027  C     0.91863   0.52647   0.16822   0.00000  Uiso   1.00
C2028  C     0.61269   0.96137   0.80689   0.00000  Uiso   1.00
C2029  C     0.57945   0.97171   0.83043   0.00000  Uiso   1.00
C2030  C     0.95194   0.87942   0.17916   0.00000  Uiso   1.00
C2031  C     0.96561   0.91039   0.15447   0.00000  Uiso   1.00
C2032  C     0.53563   0.61114   0.80058   0.00000  Uiso   1.00
C2033  C     0.52291   0.57764   0.82195   0.00000  Uiso   1.00
C2034  C     0.62521   0.59061   0.83612   0.00000  Uiso   1.00
C2035  C     0.71849   0.50742   0.08206   0.00000  Uiso   1.00
C2036  C     0.61942   0.56664   0.87050   0.00000  Uiso   1.00
C2037  C     0.86407   0.91080   0.16239   0.00000  Uiso   1.00
C2038  C     0.85649   0.93906   0.13314   0.00000  Uiso   1.00
C2039  C     0.59009   0.87162   0.83806   0.00000  Uiso   1.00
C2040  C     0.56333   0.86630   0.87020   0.00000  Uiso   1.00
C2041  C     0.91005   0.62795   0.16125   0.00000  Uiso   1.00
C2042  C     0.93518   0.62568   0.12693   0.00000  Uiso   1.00
C2043  C     0.87238   0.91018   0.83468   0.00000  Uiso   1.00
C2044  C     0.87347   0.93579   0.86804   0.00000  Uiso   1.00
C2045  C     0.62897   0.58916   0.16181   0.00000  Uiso   1.00
C2046  C     0.78146   0.51243   0.91746   0.00000  Uiso   1.00
C2047  C     0.62931   0.56327   0.12828   0.00000  Uiso   1.00
C2048  C     0.90726   0.62874   0.83406   0.00000  Uiso   1.00
C2049  C     0.93094   0.62884   0.86870   0.00000  Uiso   1.00
C2050  C     0.58408   0.87273   0.15966   0.00000  Uiso   1.00
C2051  C     0.55534   0.87442   0.12854   0.00000  Uiso   1.00
C2052  C     0.86310   0.71283   0.69418   0.00000  Uiso   1.00
C2053  C     0.83159   0.72645   0.67009   0.00000  Uiso   1.00
C2054  C     0.63884   0.78723   0.30212   0.00000  Uiso   1.00
C2055  C     0.67270   0.77807   0.32472   0.00000  Uiso   1.00
C2056  C     0.78970   0.86660   0.68957   0.00000  Uiso   1.00
C2057  C     0.99235   0.71750   0.08223   0.00000  Uiso   1.00
C2058  C     0.77196   0.83814   0.66395   0.00000  Uiso   1.00
C2059  C     0.71233   0.63860   0.30467   0.00000  Uiso   1.00
C2060  C     0.72332   0.67193   0.32786   0.00000  Uiso   1.00
C2061  C     0.63631   0.78801   0.69250   0.00000  Uiso   1.00
C2062  C     0.66852   0.77664   0.66805   0.00000  Uiso   1.00
C2063  C     0.86316   0.71131   0.30733   0.00000  Uiso   1.00
C2064  C     0.83027   0.72159   0.33135   0.00000  Uiso   1.00
C2065  C     0.70855   0.63169   0.68622   0.00000  Uiso   1.00
C2066  C     0.72541   0.66089   0.66132   0.00000  Uiso   1.00
C2067  C     0.78893   0.86336   0.30656   0.00000  Uiso   1.00
C2068  C     0.78098   0.51341   0.95783   0.00000  Uiso   1.00
C2069  C     0.98581   0.78107   0.91755   0.00000  Uiso   1.00
C2070  C     0.77777   0.83063   0.33028   0.00000  Uiso   1.00
C2071  C     0.87708   0.84071   0.33530   0.00000  Uiso   1.00
C2072  C     0.86787   0.81891   0.37019   0.00000  Uiso   1.00
C2073  C     0.62274   0.66231   0.66230   0.00000  Uiso   1.00
C2074  C     0.60434   0.68841   0.63618   0.00000  Uiso   1.00
C2075  C     0.84176   0.62166   0.33805   0.00000  Uiso   1.00
C2076  C     0.81649   0.61708   0.37147   0.00000  Uiso   1.00
C2077  C     0.65950   0.87790   0.66144   0.00000  Uiso   1.00
C2078  C     0.68440   0.87767   0.62695   0.00000  Uiso   1.00
C2079  C     0.62219   0.66062   0.33604   0.00000  Uiso   1.00
C2080  C     0.78268   0.99561   0.08184   0.00000  Uiso   1.00
C2081  C     0.62257   0.68623   0.36944   0.00000  Uiso   1.00
C2082  C     0.86304   0.82877   0.66058   0.00000  Uiso   1.00
C2083  C     0.89134   0.81495   0.63274   0.00000  Uiso   1.00
C2084  C     0.65864   0.87735   0.33203   0.00000  Uiso   1.00
C2085  C     0.68281   0.87647   0.36589   0.00000  Uiso   1.00
C2086  C     0.83920   0.62642   0.65728   0.00000  Uiso   1.00
C2087  C     0.81240   0.62121   0.62507   0.00000  Uiso   1.00
C2088  C     0.66073   0.98491   0.08992   0.00000  Uiso   1.00
C2089  C     0.84366   0.51055   0.90657   0.00000  Uiso   1.00
C2090  C     0.51482   0.65979   0.08907   0.00000  Uiso   1.00
C2091  C     0.72030   0.98652   0.91816   0.00000  Uiso   1.00
C2092  C     0.98601   0.84358   0.90702   0.00000  Uiso   1.00
C2093  C     0.84031   0.51949   0.08816   0.00000  Uiso   1.00
C2094  C     0.65932   0.99080   0.90621   0.00000  Uiso   1.00
C2095  C     0.95346   0.81817   0.10250   0.00000  Uiso   1.00
C2096  C     0.50621   0.65744   0.90851   0.00000  Uiso   1.00
C2097  C     0.91108   0.73086   0.59078   0.00000  Uiso   1.00
C2098  C     0.59367   0.76228   0.40704   0.00000  Uiso   1.00
C2099  C     0.76502   0.91044   0.58639   0.00000  Uiso   1.00
C2100  C     0.73800   0.59484   0.40640   0.00000  Uiso   1.00
C2101  C     0.58904   0.76835   0.59113   0.00000  Uiso   1.00
C2102  C     0.99977   0.78250   0.08266   0.00000  Uiso   1.00
C2103  C     0.90856   0.74259   0.40841   0.00000  Uiso   1.00
C2104  C     0.70258   0.56765   0.60366   0.00000  Uiso   1.00
C2105  C     0.75090   0.90873   0.40917   0.00000  Uiso   1.00
C2106  C     0.51064   0.71961   0.91821   0.00000  Uiso   1.00
C2107  C     0.96802   0.75535   0.58223   0.00000  Uiso   1.00
C2108  C     0.53121   0.76262   0.41744   0.00000  Uiso   1.00
C2109  C     0.74170   0.96802   0.58221   0.00000  Uiso   1.00
C2110  C     0.73762   0.53228   0.41773   0.00000  Uiso   1.00
C2111  C     0.53231   0.74405   0.58200   0.00000  Uiso   1.00
C2112  C     0.98661   0.71881   0.04277   0.00000  Uiso   1.00
C2113  C     0.96992   0.73703   0.41817   0.00000  Uiso   1.00
C2114  C     0.74894   0.53285   0.58313   0.00000  Uiso   1.00
C2115  C     0.76006   0.96992   0.41905   0.00000  Uiso   1.00
C2116  C     0.75074   0.50024   0.02138   0.00000  Uiso   1.00
C2117  C     0.75090   0.99957   0.97862   0.00000  Uiso   1.00
C2118  C     0.99695   0.75060   0.02182   0.00000  Uiso   1.00
C2119  C     0.99731   0.75078   0.97884   0.00000  Uiso   1.00
C2120  C     0.50058   0.74945   0.52147   0.00000  Uiso   1.00
C2121  C     0.50080   0.74927   0.47863   0.00000  Uiso   1.00
C2122  C     0.74700   0.50144   0.52232   0.00000  Uiso   1.00
C2123  C     0.98348   0.78061   0.95778   0.00000  Uiso   1.00
C2124  C     0.74796   0.50192   0.47927   0.00000  Uiso   1.00
C2125  C     0.74981   0.50011   0.35530   0.00000  Uiso   1.00
C2126  C     0.74896   0.99994   0.64503   0.00000  Uiso   1.00
C2127  C     0.99998   0.75013   0.35514   0.00000  Uiso   1.00
C2128  C     0.50007   0.75000   0.64491   0.00000  Uiso   1.00
C2129  C     0.99979   0.75006   0.85520   0.00000  Uiso   1.00
C2130  C     0.99918   0.74991   0.14498   0.00000  Uiso   1.00
C2131  C     0.75003   0.50006   0.85515   0.00000  Uiso   1.00
C2132  C     0.75012   0.50032   0.14485   0.00000  Uiso   1.00
C2133  C     0.68117   0.57116   0.24831   0.00000  Uiso   1.00
C2134  C     0.78158   0.98910   0.04254   0.00000  Uiso   1.00
C2135  C     0.81904   0.92879   0.75115   0.00000  Uiso   1.00
C2136  C     0.92882   0.68111   0.24815   0.00000  Uiso   1.00
C2137  C     0.57124   0.81880   0.75184   0.00000  Uiso   1.00
C2138  C     0.81904   0.92894   0.24829   0.00000  Uiso   1.00
C2139  C     0.68102   0.57110   0.75153   0.00000  Uiso   1.00
C2140  C     0.57115   0.81854   0.24762   0.00000  Uiso   1.00
C2141  C     0.92890   0.68086   0.75125   0.00000  Uiso   1.00
C2142  C     0.67886   0.93109   0.74819   0.00000  Uiso   1.00
C2143  C     0.82124   0.56877   0.25181   0.00000  Uiso   1.00
C2144  C     0.93134   0.82115   0.74800   0.00000  Uiso   1.00
C2145  C     0.72095   0.98527   0.95834   0.00000  Uiso   1.00
C2146  C     0.56900   0.67890   0.25143   0.00000  Uiso   1.00
C2147  C     0.82125   0.56846   0.74756   0.00000  Uiso   1.00
C2148  C     0.67923   0.93055   0.25093   0.00000  Uiso   1.00
C2149  C     0.56911   0.67901   0.74826   0.00000  Uiso   1.00
C2150  C     0.93073   0.82081   0.25117   0.00000  Uiso   1.00
C2151  C     0.61896   0.90749   0.22860   0.00000  Uiso   1.00
C2152  C     0.88282   0.58976   0.76446   0.00000  Uiso   1.00
C2153  C     0.59151   0.61783   0.23083   0.00000  Uiso   1.00
C2154  C     0.90955   0.88283   0.76575   0.00000  Uiso   1.00
C2155  C     0.88227   0.59094   0.23118   0.00000  Uiso   1.00
C2156  C     0.50650   0.78212   0.04360   0.00000  Uiso   1.00
C2157  C     0.61806   0.90872   0.76822   0.00000  Uiso   1.00
C2158  C     0.90771   0.88031   0.22813   0.00000  Uiso   1.00
C2159  C     0.59074   0.61752   0.76597   0.00000  Uiso   1.00
C2160  C     0.62048   0.59518   0.77241   0.00000  Uiso   1.00
C2161  C     0.87848   0.90393   0.22406   0.00000  Uiso   1.00
C2162  C     0.59572   0.87866   0.77449   0.00000  Uiso   1.00
C2163  C     0.90456   0.62113   0.22493   0.00000  Uiso   1.00
C2164  C     0.87947   0.90505   0.77144   0.00000  Uiso   1.00
C2165  C     0.62140   0.59511   0.22509   0.00000  Uiso   1.00
C2166  C     0.90516   0.61980   0.77086   0.00000  Uiso   1.00
C2167  C     0.51190   0.72090   0.95836   0.00000  Uiso   1.00
C2168  C     0.59568   0.87778   0.22279   0.00000  Uiso   1.00
C2169  C     0.86841   0.65739   0.72816   0.00000  Uiso   1.00
C2170  C     0.63328   0.83909   0.26304   0.00000  Uiso   1.00
C2171  C     0.84224   0.86756   0.72853   0.00000  Uiso   1.00
C2172  C     0.65923   0.63271   0.26720   0.00000  Uiso   1.00
C2173  C     0.63236   0.84079   0.73139   0.00000  Uiso   1.00
C2174  C     0.86797   0.65866   0.26845   0.00000  Uiso   1.00
C2175  C     0.65942   0.63224   0.73048   0.00000  Uiso   1.00
C2176  C     0.84049   0.86731   0.26652   0.00000  Uiso   1.00
C2177  C     0.87008   0.84445   0.27199   0.00000  Uiso   1.00
C2178  C     0.96928   0.76033   0.54261   0.00000  Uiso   1.00
C2179  C     0.62995   0.65561   0.72585   0.00000  Uiso   1.00
C2180  C     0.84558   0.62852   0.27450   0.00000  Uiso   1.00
C2181  C     0.65479   0.87092   0.72513   0.00000  Uiso   1.00
C2182  C     0.62932   0.65528   0.27277   0.00000  Uiso   1.00
C2183  C     0.87246   0.84502   0.72348   0.00000  Uiso   1.00
C2184  C     0.65615   0.86872   0.26908   0.00000  Uiso   1.00
C2185  C     0.84659   0.62677   0.72145   0.00000  Uiso   1.00
C2186  C     0.60086   0.84489   0.24341   0.00000  Uiso   1.00
C2187  C     0.89986   0.65295   0.75095   0.00000  Uiso   1.00
C2188  C     0.65409   0.60043   0.24614   0.00000  Uiso   1.00
H2189  H     0.71080   0.55901   0.98665   0.00000  Uiso   1.00
H2190  H     0.86451   0.54547   0.01284   0.00000  Uiso   1.00
H2191  H     0.97998   0.94527   0.80798   0.00000  Uiso   1.00
H2192  H     0.86683   0.55337   0.17492   0.00000  Uiso   1.00
H2193  H     0.87330   0.51212   0.20137   0.00000  Uiso   1.00
H2194  H     0.94073   0.51564   0.18617   0.00000  Uiso   1.00
H2195  H     0.90985   0.50499   0.14776   0.00000  Uiso   1.00
H2196  H     0.92890   0.54972   0.15156   0.00000  Uiso   1.00
H2197  H     0.62571   0.98759   0.79883   0.00000  Uiso   1.00
H2198  H     0.63225   0.94631   0.82486   0.00000  Uiso   1.00
H2199  H     0.57097   0.94869   0.84875   0.00000  Uiso   1.00
H2200  H     0.58612   0.99515   0.84930   0.00000  Uiso   1.00
H2201  H     0.93955   0.70751   0.98704   0.00000  Uiso   1.00
H2202  H     0.55677   0.97975   0.81158   0.00000  Uiso   1.00
H2203  H     0.93044   0.86312   0.16492   0.00000  Uiso   1.00
H2204  H     0.97611   0.86171   0.18107   0.00000  Uiso   1.00
H2205  H     0.98807   0.92478   0.16917   0.00000  Uiso   1.00
H2206  H     0.97668   0.89931   0.12706   0.00000  Uiso   1.00
H2207  H     0.94349   0.92961   0.14809   0.00000  Uiso   1.00
H2208  H     0.51024   0.62414   0.79067   0.00000  Uiso   1.00
H2209  H     0.54953   0.63009   0.82067   0.00000  Uiso   1.00
H2210  H     0.54518   0.56770   0.84001   0.00000  Uiso   1.00
H2211  H     0.99956   0.58480   0.84108   0.00000  Uiso   1.00
H2212  H     0.92125   0.69612   0.03393   0.00000  Uiso   1.00
H2213  H     0.51450   0.55580   0.80172   0.00000  Uiso   1.00
H2214  H     0.60759   0.61485   0.83983   0.00000  Uiso   1.00
H2215  H     0.65417   0.59953   0.83598   0.00000  Uiso   1.00
H2216  H     0.63192   0.54039   0.86287   0.00000  Uiso   1.00
H2217  H     0.63269   0.57917   0.89599   0.00000  Uiso   1.00
H2218  H     0.59028   0.56184   0.87760   0.00000  Uiso   1.00
H2219  H     0.83772   0.89689   0.16930   0.00000  Uiso   1.00
H2220  H     0.88251   0.89067   0.14918   0.00000  Uiso   1.00
H2221  H     0.88220   0.95051   0.12146   0.00000  Uiso   1.00
H2222  H     0.84029   0.92720   0.10931   0.00000  Uiso   1.00
H2223  H     0.92506   0.63212   0.02070   0.00000  Uiso   1.00
H2224  H     0.84118   0.96047   0.14826   0.00000  Uiso   1.00
H2225  H     0.60935   0.89346   0.84643   0.00000  Uiso   1.00
H2226  H     0.60544   0.84578   0.83480   0.00000  Uiso   1.00
H2227  H     0.54368   0.84529   0.86092   0.00000  Uiso   1.00
H2228  H     0.57729   0.85674   0.89628   0.00000  Uiso   1.00
H2229  H     0.54920   0.89205   0.87699   0.00000  Uiso   1.00
H2230  H     0.89930   0.65611   0.16301   0.00000  Uiso   1.00
H2231  H     0.88691   0.60906   0.15610   0.00000  Uiso   1.00
H2232  H     0.93681   0.59765   0.11538   0.00000  Uiso   1.00
H2233  H     0.92512   0.64342   0.10367   0.00000  Uiso   1.00
H2234  H     0.90716   0.65185   0.97758   0.00000  Uiso   1.00
H2235  H     0.96256   0.63433   0.13581   0.00000  Uiso   1.00
H2236  H     0.89166   0.88783   0.84040   0.00000  Uiso   1.00
H2237  H     0.84434   0.89879   0.83317   0.00000  Uiso   1.00
H2238  H     0.85461   0.95753   0.86047   0.00000  Uiso   1.00
H2239  H     0.86439   0.92190   0.89452   0.00000  Uiso   1.00
H2240  H     0.90095   0.94721   0.87255   0.00000  Uiso   1.00
H2241  H     0.65635   0.60202   0.16393   0.00000  Uiso   1.00
H2242  H     0.60913   0.61081   0.15524   0.00000  Uiso   1.00
H2243  H     0.60192   0.56007   0.11543   0.00000  Uiso   1.00
H2244  H     0.63809   0.53654   0.13838   0.00000  Uiso   1.00
H2245  H     0.95419   0.63892   0.97974   0.00000  Uiso   1.00
H2246  H     0.64800   0.57363   0.10547   0.00000  Uiso   1.00
H2247  H     0.88400   0.61005   0.83942   0.00000  Uiso   1.00
H2248  H     0.89683   0.65689   0.83067   0.00000  Uiso   1.00
H2249  H     0.95491   0.64496   0.86057   0.00000  Uiso   1.00
H2250  H     0.91666   0.64169   0.89329   0.00000  Uiso   1.00
H2251  H     0.93922   0.60115   0.87702   0.00000  Uiso   1.00
H2252  H     0.59594   0.84470   0.15953   0.00000  Uiso   1.00
H2253  H     0.60604   0.89256   0.15178   0.00000  Uiso   1.00
H2254  H     0.54644   0.90297   0.12323   0.00000  Uiso   1.00
H2255  H     0.53132   0.85759   0.13693   0.00000  Uiso   1.00
H2256  H     0.93408   0.78847   0.01029   0.00000  Uiso   1.00
H2257  H     0.56719   0.86375   0.10132   0.00000  Uiso   1.00
H2258  H     0.88371   0.69970   0.67553   0.00000  Uiso   1.00
H2259  H     0.87529   0.73785   0.70649   0.00000  Uiso   1.00
H2260  H     0.80718   0.73154   0.68804   0.00000  Uiso   1.00
H2261  H     0.83958   0.75227   0.65605   0.00000  Uiso   1.00
H2262  H     0.82480   0.70695   0.64707   0.00000  Uiso   1.00
H2263  H     0.62563   0.76078   0.29524   0.00000  Uiso   1.00
H2264  H     0.61948   0.80254   0.32052   0.00000  Uiso   1.00
H2265  H     0.67441   0.79579   0.35019   0.00000  Uiso   1.00
H2266  H     0.67098   0.74970   0.33519   0.00000  Uiso   1.00
H2267  H     0.91835   0.80754   0.96551   0.00000  Uiso   1.00
H2268  H     0.69760   0.78102   0.30702   0.00000  Uiso   1.00
H2269  H     0.80653   0.88579   0.67229   0.00000  Uiso   1.00
H2270  H     0.76553   0.88049   0.70126   0.00000  Uiso   1.00
H2271  H     0.77261   0.81088   0.67706   0.00000  Uiso   1.00
H2272  H     0.74322   0.84515   0.65943   0.00000  Uiso   1.00
H2273  H     0.78458   0.83813   0.63506   0.00000  Uiso   1.00
H2274  H     0.73834   0.62587   0.29580   0.00000  Uiso   1.00
H2275  H     0.69757   0.61892   0.32324   0.00000  Uiso   1.00
H2276  H     0.70149   0.67911   0.34816   0.00000  Uiso   1.00
H2277  H     0.74791   0.66594   0.34482   0.00000  Uiso   1.00
H2278  H     0.92841   0.86919   0.98859   0.00000  Uiso   1.00
H2279  H     0.72953   0.69532   0.30905   0.00000  Uiso   1.00
H2280  H     0.61666   0.80345   0.67507   0.00000  Uiso   1.00
H2281  H     0.62313   0.76200   0.70098   0.00000  Uiso   1.00
H2282  H     0.68956   0.76358   0.68571   0.00000  Uiso   1.00
H2283  H     0.65943   0.75680   0.64601   0.00000  Uiso   1.00
H2284  H     0.68025   0.80043   0.65333   0.00000  Uiso   1.00
H2285  H     0.87586   0.73760   0.29902   0.00000  Uiso   1.00
H2286  H     0.88317   0.69650   0.32500   0.00000  Uiso   1.00
H2287  H     0.82061   0.69796   0.34802   0.00000  Uiso   1.00
H2288  H     0.83765   0.74353   0.35173   0.00000  Uiso   1.00
H2289  H     0.90460   0.84528   0.02630   0.00000  Uiso   1.00
H2290  H     0.80823   0.73180   0.31298   0.00000  Uiso   1.00
H2291  H     0.68872   0.61497   0.67011   0.00000  Uiso   1.00
H2292  H     0.73278   0.61499   0.69203   0.00000  Uiso   1.00
H2293  H     0.75011   0.67216   0.67515   0.00000  Uiso   1.00
H2294  H     0.73397   0.64814   0.63383   0.00000  Uiso   1.00
H2295  H     0.70594   0.68277   0.65546   0.00000  Uiso   1.00
H2296  H     0.76310   0.87709   0.29938   0.00000  Uiso   1.00
H2297  H     0.80508   0.88287   0.32397   0.00000  Uiso   1.00
H2298  H     0.78709   0.83459   0.36009   0.00000  Uiso   1.00
H2299  H     0.74773   0.82812   0.33117   0.00000  Uiso   1.00
H2300  H     0.69767   0.57802   0.03274   0.00000  Uiso   1.00
H2301  H     0.95275   0.85366   0.02955   0.00000  Uiso   1.00
H2302  H     0.78907   0.80519   0.31831   0.00000  Uiso   1.00
H2303  H     0.86220   0.86675   0.33785   0.00000  Uiso   1.00
H2304  H     0.90670   0.84673   0.33547   0.00000  Uiso   1.00
H2305  H     0.88714   0.79677   0.36987   0.00000  Uiso   1.00
H2306  H     0.87119   0.83555   0.39645   0.00000  Uiso   1.00
H2307  H     0.84008   0.80753   0.36907   0.00000  Uiso   1.00
H2308  H     0.60384   0.63873   0.66638   0.00000  Uiso   1.00
H2309  H     0.64735   0.65243   0.64752   0.00000  Uiso   1.00
H2310  H     0.62492   0.70497   0.62075   0.00000  Uiso   1.00
H2311  H     0.58739   0.67363   0.61492   0.00000  Uiso   1.00
H2312  H     0.79071   0.94100   0.98712   0.00000  Uiso   1.00
H2313  H     0.58678   0.70633   0.65355   0.00000  Uiso   1.00
H2314  H     0.86111   0.64377   0.34519   0.00000  Uiso   1.00
H2315  H     0.85708   0.59582   0.33472   0.00000  Uiso   1.00
H2316  H     0.79684   0.59558   0.36365   0.00000  Uiso   1.00
H2317  H     0.83180   0.60839   0.39711   0.00000  Uiso   1.00
H2318  H     0.80241   0.64294   0.37811   0.00000  Uiso   1.00
H2319  H     0.64767   0.90554   0.66392   0.00000  Uiso   1.00
H2320  H     0.63727   0.85813   0.65586   0.00000  Uiso   1.00
H2321  H     0.68916   0.84973   0.61626   0.00000  Uiso   1.00
H2322  H     0.67254   0.89387   0.60346   0.00000  Uiso   1.00
H2323  H     0.80165   0.92276   0.03382   0.00000  Uiso   1.00
H2324  H     0.71036   0.88983   0.63558   0.00000  Uiso   1.00
H2325  H     0.64183   0.63865   0.34197   0.00000  Uiso   1.00
H2326  H     0.59437   0.64873   0.33430   0.00000  Uiso   1.00
H2327  H     0.60261   0.70721   0.36250   0.00000  Uiso   1.00
H2328  H     0.61442   0.67183   0.39597   0.00000  Uiso   1.00
H2329  H     0.64971   0.69867   0.37356   0.00000  Uiso   1.00
H2330  H     0.86196   0.85886   0.65759   0.00000  Uiso   1.00
H2331  H     0.83690   0.81727   0.65151   0.00000  Uiso   1.00
H2332  H     0.91567   0.80587   0.64835   0.00000  Uiso   1.00
H2333  H     0.89934   0.83646   0.61224   0.00000  Uiso   1.00
H2334  H     0.86578   0.92557   0.02004   0.00000  Uiso   1.00
H2335  H     0.87946   0.79224   0.61617   0.00000  Uiso   1.00
H2336  H     0.63507   0.85917   0.33762   0.00000  Uiso   1.00
H2337  H     0.64875   0.90577   0.32917   0.00000  Uiso   1.00
H2338  H     0.70529   0.89455   0.35764   0.00000  Uiso   1.00
H2339  H     0.66839   0.88669   0.39170   0.00000  Uiso   1.00
H2340  H     0.69327   0.84892   0.37145   0.00000  Uiso   1.00
H2341  H     0.85887   0.60358   0.65625   0.00000  Uiso   1.00
H2342  H     0.85430   0.65184   0.65142   0.00000  Uiso   1.00
H2343  H     0.79787   0.64694   0.61969   0.00000  Uiso   1.00
H2344  H     0.82717   0.61342   0.59846   0.00000  Uiso   1.00
H2345  H     0.84506   0.90674   0.97756   0.00000  Uiso   1.00
H2346  H     0.79276   0.59951   0.63246   0.00000  Uiso   1.00
H2347  H     0.67254   0.96151   0.07399   0.00000  Uiso   1.00
H2348  H     0.63930   0.99784   0.07262   0.00000  Uiso   1.00
H2349  H     0.64773   0.97360   0.11571   0.00000  Uiso   1.00
H2350  H     0.84012   0.98182   0.91567   0.00000  Uiso   1.00
H2351  H     0.85840   0.52542   0.92908   0.00000  Uiso   1.00
H2352  H     0.86196   0.51239   0.88137   0.00000  Uiso   1.00
H2353  H     0.53822   0.67192   0.07330   0.00000  Uiso   1.00
H2354  H     0.50146   0.63869   0.07126   0.00000  Uiso   1.00
H2355  H     0.52614   0.64626   0.11438   0.00000  Uiso   1.00
H2356  H     0.85930   0.95368   0.97860   0.00000  Uiso   1.00
H2357  H     0.51383   0.84168   0.91894   0.00000  Uiso   1.00
H2358  H     0.96839   0.85819   0.92752   0.00000  Uiso   1.00
H2359  H     0.98671   0.86085   0.88120   0.00000  Uiso   1.00
H2360  H     0.82789   0.54287   0.07316   0.00000  Uiso   1.00
H2361  H     0.86092   0.50619   0.06970   0.00000  Uiso   1.00
H2362  H     0.85461   0.53062   0.11336   0.00000  Uiso   1.00
H2363  H     0.66441   0.52048   0.91094   0.00000  Uiso   1.00
H2364  H     0.64398   0.97962   0.93088   0.00000  Uiso   1.00
H2365  H     0.64121   0.98638   0.88154   0.00000  Uiso   1.00
H2366  H     0.94357   0.80631   0.12979   0.00000  Uiso   1.00
H2367  H     0.70729   0.93629   0.01345   0.00000  Uiso   1.00
H2368  H     0.93860   0.80472   0.07848   0.00000  Uiso   1.00
H2369  H     0.94591   0.84729   0.10170   0.00000  Uiso   1.00
H2370  H     0.97719   0.66202   0.91605   0.00000  Uiso   1.00
H2371  H     0.51920   0.64307   0.93230   0.00000  Uiso   1.00
H2372  H     0.50868   0.63824   0.88411   0.00000  Uiso   1.00
H2373  H     0.92417   0.70668   0.57747   0.00000  Uiso   1.00
H2374  H     0.89030   0.74198   0.57130   0.00000  Uiso   1.00
H2375  H     0.89670   0.72137   0.61657   0.00000  Uiso   1.00
H2376  H     0.59100   0.73392   0.41763   0.00000  Uiso   1.00
H2377  H     0.60797   0.77877   0.42870   0.00000  Uiso   1.00
H2378  H     0.69757   0.92108   0.96499   0.00000  Uiso   1.00
H2379  H     0.61177   0.76315   0.38165   0.00000  Uiso   1.00
H2380  H     0.78724   0.92302   0.56923   0.00000  Uiso   1.00
H2381  H     0.75084   0.88932   0.56939   0.00000  Uiso   1.00
H2382  H     0.77812   0.89691   0.61079   0.00000  Uiso   1.00
H2383  H     0.76543   0.59311   0.41938   0.00000  Uiso   1.00
H2384  H     0.71982   0.61007   0.42587   0.00000  Uiso   1.00
H2385  H     0.73974   0.61136   0.38019   0.00000  Uiso   1.00
H2386  H     0.57648   0.79199   0.57671   0.00000  Uiso   1.00
H2387  H     0.61091   0.75679   0.57296   0.00000  Uiso   1.00
H2388  H     0.60160   0.77871   0.61752   0.00000  Uiso   1.00
H2389  H     0.63454   0.92014   0.97573   0.00000  Uiso   1.00
H2390  H     0.91401   0.77141   0.41672   0.00000  Uiso   1.00
H2391  H     0.89296   0.72920   0.43160   0.00000  Uiso   1.00
H2392  H     0.89053   0.74121   0.38354   0.00000  Uiso   1.00
H2393  H     0.69235   0.55014   0.62734   0.00000  Uiso   1.00
H2394  H     0.68831   0.56001   0.57699   0.00000  Uiso   1.00
H2395  H     0.69496   0.59600   0.60982   0.00000  Uiso   1.00
H2396  H     0.72182   0.91603   0.41277   0.00000  Uiso   1.00
H2397  H     0.75949   0.89448   0.43495   0.00000  Uiso   1.00
H2398  H     0.75506   0.88810   0.38634   0.00000  Uiso   1.00
H2399  H     0.65053   0.90825   0.02266   0.00000  Uiso   1.00
H2400  H     0.63396   0.57216   0.01767   0.00000  Uiso   1.00
H2401  H     0.63620   0.95384   0.01305   0.00000  Uiso   1.00
H2402  H     0.55285   0.79449   0.98811   0.00000  Uiso   1.00
H2403  H     0.57124   0.80678   0.03438   0.00000  Uiso   1.00
H2404  H     0.56784   0.87012   0.02066   0.00000  Uiso   1.00
H2405  H     0.58327   0.84997   0.97632   0.00000  Uiso   1.00
H2406  H     0.53657   0.86330   0.98180   0.00000  Uiso   1.00
H2407  H     0.56237   0.71009   0.01240   0.00000  Uiso   1.00
H2408  H     0.57677   0.70070   0.96349   0.00000  Uiso   1.00
H2409  H     0.58016   0.63786   0.97389   0.00000  Uiso   1.00
H2410  H     0.59229   0.65465   0.02069   0.00000  Uiso   1.00
H2411  H     0.65538   0.59138   0.97567   0.00000  Uiso   1.00
H2412  H     0.54710   0.63811   0.01189   0.00000  Uiso   1.00
H2413  H     0.95840   0.80752   0.48717   0.00000  Uiso   1.00
H2414  H     0.94699   0.82534   0.53429   0.00000  Uiso   1.00
H2415  H     0.88323   0.82119   0.52189   0.00000  Uiso   1.00
H2416  H     0.90282   0.83928   0.47839   0.00000  Uiso   1.00
H2417  H     0.88961   0.79213   0.48087   0.00000  Uiso   1.00
H2418  H     0.54072   0.81281   0.51287   0.00000  Uiso   1.00
H2419  H     0.55189   0.82889   0.46505   0.00000  Uiso   1.00
H2420  H     0.61498   0.82965   0.47741   0.00000  Uiso   1.00
H2421  H     0.59606   0.84424   0.52271   0.00000  Uiso   1.00
H2422  H     0.64307   0.54391   0.97658   0.00000  Uiso   1.00
H2423  H     0.61126   0.79821   0.51634   0.00000  Uiso   1.00
H2424  H     0.68747   0.96434   0.48756   0.00000  Uiso   1.00
H2425  H     0.66757   0.95341   0.53382   0.00000  Uiso   1.00
H2426  H     0.66874   0.88904   0.51901   0.00000  Uiso   1.00
H2427  H     0.64919   0.91152   0.47817   0.00000  Uiso   1.00
H2428  H     0.69573   0.89637   0.47654   0.00000  Uiso   1.00
H2429  H     0.68884   0.54623   0.51061   0.00000  Uiso   1.00
H2430  H     0.67539   0.56804   0.46649   0.00000  Uiso   1.00
H2431  H     0.69516   0.62744   0.49048   0.00000  Uiso   1.00
H2432  H     0.66670   0.60695   0.52677   0.00000  Uiso   1.00
H2433  H     0.79410   0.56440   0.01073   0.00000  Uiso   1.00
H2434  H     0.71536   0.60763   0.53189   0.00000  Uiso   1.00
H2435  H     0.54369   0.69207   0.48630   0.00000  Uiso   1.00
H2436  H     0.55479   0.67391   0.53300   0.00000  Uiso   1.00
H2437  H     0.61874   0.67878   0.52026   0.00000  Uiso   1.00
H2438  H     0.59954   0.66089   0.47660   0.00000  Uiso   1.00
H2439  H     0.61226   0.70813   0.47983   0.00000  Uiso   1.00
H2440  H     0.95923   0.68411   0.51192   0.00000  Uiso   1.00
H2441  H     0.94871   0.66988   0.46327   0.00000  Uiso   1.00
H2442  H     0.88555   0.66899   0.47522   0.00000  Uiso   1.00
H2443  H     0.90306   0.65383   0.52045   0.00000  Uiso   1.00
H2444  H     0.80569   0.57729   0.96190   0.00000  Uiso   1.00
H2445  H     0.88837   0.69997   0.51489   0.00000  Uiso   1.00
H2446  H     0.80765   0.53673   0.49276   0.00000  Uiso   1.00
H2447  H     0.82591   0.55113   0.53829   0.00000  Uiso   1.00
H2448  H     0.82864   0.61311   0.51876   0.00000  Uiso   1.00
H2449  H     0.84279   0.58815   0.47673   0.00000  Uiso   1.00
H2450  H     0.79745   0.60590   0.47988   0.00000  Uiso   1.00
H2451  H     0.81472   0.95328   0.50814   0.00000  Uiso   1.00
H2452  H     0.82199   0.94186   0.45802   0.00000  Uiso   1.00
H2453  H     0.81795   0.87940   0.46890   0.00000  Uiso   1.00
H2454  H     0.83510   0.89358   0.51487   0.00000  Uiso   1.00
H2455  H     0.86848   0.57670   0.97376   0.00000  Uiso   1.00
H2456  H     0.78758   0.88397   0.50891   0.00000  Uiso   1.00
H2457  H     0.63315   0.94260   0.17100   0.00000  Uiso   1.00
H2458  H     0.62982   0.98491   0.19627   0.00000  Uiso   1.00
H2459  H     0.56695   0.99250   0.18554   0.00000  Uiso   1.00
H2460  H     0.59011   0.98433   0.14051   0.00000  Uiso   1.00
H2461  H     0.56340   0.94840   0.16256   0.00000  Uiso   1.00
H2462  H     0.87609   0.51086   0.79483   0.00000  Uiso   1.00
H2463  H     0.86938   0.55214   0.82124   0.00000  Uiso   1.00
H2464  H     0.92858   0.55050   0.84582   0.00000  Uiso   1.00
H2465  H     0.91814   0.50228   0.84128   0.00000  Uiso   1.00
H2466  H     0.85132   0.59208   0.01950   0.00000  Uiso   1.00
H2467  H     0.94673   0.52456   0.80469   0.00000  Uiso   1.00
H2468  H     0.55662   0.63353   0.17359   0.00000  Uiso   1.00
H2469  H     0.51415   0.62708   0.19796   0.00000  Uiso   1.00
H2470  H     0.51298   0.56200   0.18351   0.00000  Uiso   1.00
H2471  H     0.51367   0.59014   0.14168   0.00000  Uiso   1.00
H2472  H     0.55424   0.56720   0.15600   0.00000  Uiso   1.00
H2473  H     0.98851   0.87588   0.79448   0.00000  Uiso   1.00
H2474  H     0.94775   0.86906   0.82205   0.00000  Uiso   1.00
H2475  H     0.95211   0.92899   0.84715   0.00000  Uiso   1.00
H2476  H     0.99835   0.91564   0.84359   0.00000  Uiso   1.00
O2477  O     0.75000   0.50000   0.25000   0.00000  Uiso   1.00
O2478  O     0.75000   0.96964   0.66317   0.00000  Uiso   1.00
O2479  O     0.82081   0.62820   0.69299   0.00000  Uiso   1.00
O2480  O     0.68615   0.51163   0.10140   0.00000  Uiso   1.00
O2481  O     0.81046   0.52749   0.89735   0.00000  Uiso   1.00
O2482  O     0.98861   0.68511   0.10157   0.00000  Uiso   1.00
O2483  O     0.97078   0.80948   0.89697   0.00000  Uiso   1.00
O2484  O     0.81502   0.99324   0.10095   0.00000  Uiso   1.00
O2485  O     0.69139   0.97118   0.89880   0.00000  Uiso   1.00
O2486  O     0.99183   0.81535   0.09983   0.00000  Uiso   1.00
O2487  O     0.52485   0.68990   0.89866   0.00000  Uiso   1.00
O2488  O     0.93553   0.75868   0.60153   0.00000  Uiso   1.00
O2489  O     0.96964   0.75000   0.33683   0.00000  Uiso   1.00
O2490  O     0.56001   0.77793   0.39718   0.00000  Uiso   1.00
O2491  O     0.73929   0.93529   0.60097   0.00000  Uiso   1.00
O2492  O     0.72278   0.56065   0.39693   0.00000  Uiso   1.00
O2493  O     0.56444   0.74053   0.60114   0.00000  Uiso   1.00
O2494  O     0.94028   0.72318   0.39881   0.00000  Uiso   1.00
O2495  O     0.74080   0.56567   0.60016   0.00000  Uiso   1.00
O2496  O     0.77272   0.93930   0.39999   0.00000  Uiso   1.00
O2497  O     0.53036   0.75000   0.66317   0.00000  Uiso   1.00
O2498  O     0.50000   0.71964   0.83683   0.00000  Uiso   1.00
O2499  O     0.50000   0.78036   0.16317   0.00000  Uiso   1.00
O2500  O     0.78036   0.50000   0.83683   0.00000  Uiso   1.00
O2501  O     0.71964   0.50000   0.16317   0.00000  Uiso   1.00
O2502  O     0.50000   0.78036   0.83683   0.00000  Uiso   1.00
O2503  O     0.50000   0.71964   0.16317   0.00000  Uiso   1.00
O2504  O     0.71964   0.50000   0.83683   0.00000  Uiso   1.00
O2505  O     0.75000   0.50000   0.75000   0.00000  Uiso   1.00
O2506  O     0.78036   0.50000   0.16317   0.00000  Uiso   1.00
O2507  O     0.70725   0.57307   0.27282   0.00000  Uiso   1.00
O2508  O     0.79274   0.92693   0.72718   0.00000  Uiso   1.00
O2509  O     0.92693   0.70726   0.27282   0.00000  Uiso   1.00
O2510  O     0.57307   0.79275   0.72718   0.00000  Uiso   1.00
O2511  O     0.79274   0.92693   0.27282   0.00000  Uiso   1.00
O2512  O     0.70725   0.57307   0.72718   0.00000  Uiso   1.00
O2513  O     0.57307   0.79275   0.27282   0.00000  Uiso   1.00
O2514  O     0.92693   0.70726   0.72718   0.00000  Uiso   1.00
O2515  O     0.70725   0.92693   0.72718   0.00000  Uiso   1.00
O2516  O     0.50000   0.75000   0.25000   0.00000  Uiso   1.00
O2517  O     0.79274   0.57307   0.27282   0.00000  Uiso   1.00
O2518  O     0.92693   0.79275   0.72718   0.00000  Uiso   1.00
O2519  O     0.57307   0.70726   0.27282   0.00000  Uiso   1.00
O2520  O     0.79274   0.57307   0.72718   0.00000  Uiso   1.00
O2521  O     0.70725   0.92693   0.27282   0.00000  Uiso   1.00
O2522  O     0.57307   0.70726   0.72718   0.00000  Uiso   1.00
O2523  O     0.92693   0.79275   0.27282   0.00000  Uiso   1.00
O2524  O     0.95725   0.82307   0.77282   0.00000  Uiso   1.00
O2525  O     0.54274   0.67693   0.22718   0.00000  Uiso   1.00
O2526  O     0.67693   0.95726   0.77282   0.00000  Uiso   1.00
O2527  O     0.50000   0.75000   0.75000   0.00000  Uiso   1.00
O2528  O     0.82307   0.54275   0.22718   0.00000  Uiso   1.00
O2529  O     0.54274   0.67693   0.77282   0.00000  Uiso   1.00
O2530  O     0.95725   0.82307   0.22718   0.00000  Uiso   1.00
O2531  O     0.82307   0.54275   0.77282   0.00000  Uiso   1.00
O2532  O     0.67693   0.95726   0.22718   0.00000  Uiso   1.00
O2533  O     0.95725   0.67693   0.22718   0.00000  Uiso   1.00
O2534  O     0.54274   0.82307   0.77282   0.00000  Uiso   1.00
O2535  O     0.67693   0.54275   0.22718   0.00000  Uiso   1.00
O2536  O     0.82307   0.95726   0.77282   0.00000  Uiso   1.00
O2537  O     0.54274   0.82307   0.22718   0.00000  Uiso   1.00
O2538  O     0.75000   0.96964   0.33683   0.00000  Uiso   1.00
O2539  O     0.95725   0.67693   0.77282   0.00000  Uiso   1.00
O2540  O     0.82307   0.95726   0.22718   0.00000  Uiso   1.00
O2541  O     0.67693   0.54275   0.77282   0.00000  Uiso   1.00
O2542  O     0.68794   0.52276   0.02538   0.00000  Uiso   1.00
O2543  O     0.81258   0.52292   0.97618   0.00000  Uiso   1.00
O2544  O     0.97631   0.68654   0.02556   0.00000  Uiso   1.00
O2545  O     0.97343   0.81240   0.97577   0.00000  Uiso   1.00
O2546  O     0.81348   0.97752   0.02566   0.00000  Uiso   1.00
O2547  O     0.68920   0.97586   0.97695   0.00000  Uiso   1.00
O2548  O     0.51591   0.81515   0.02774   0.00000  Uiso   1.00
O2549  O     0.75000   0.53036   0.66317   0.00000  Uiso   1.00
O2550  O     0.52258   0.68994   0.97698   0.00000  Uiso   1.00
O2551  O     0.93717   0.77026   0.52568   0.00000  Uiso   1.00
O2552  O     0.56195   0.77444   0.47598   0.00000  Uiso   1.00
O2553  O     0.72156   0.93894   0.52607   0.00000  Uiso   1.00
O2554  O     0.73064   0.56547   0.47599   0.00000  Uiso   1.00
O2555  O     0.56413   0.72918   0.52549   0.00000  Uiso   1.00
O2556  O     0.93961   0.72416   0.47684   0.00000  Uiso   1.00
O2557  O     0.77180   0.56388   0.52950   0.00000  Uiso   1.00
O2558  O     0.76867   0.93994   0.47854   0.00000  Uiso   1.00
O2559  O     0.60462   0.94225   0.22436   0.00000  Uiso   1.00
O2560  O     0.53036   0.75000   0.33683   0.00000  Uiso   1.00
O2561  O     0.89793   0.55530   0.76788   0.00000  Uiso   1.00
O2562  O     0.55695   0.60291   0.22519   0.00000  Uiso   1.00
O2563  O     0.94385   0.89879   0.76987   0.00000  Uiso   1.00
O2564  O     0.89778   0.55662   0.22612   0.00000  Uiso   1.00
O2565  O     0.60264   0.94312   0.77268   0.00000  Uiso   1.00
O2566  O     0.94223   0.89213   0.21628   0.00000  Uiso   1.00
O2567  O     0.55632   0.60142   0.76783   0.00000  Uiso   1.00
O2568  O     0.61763   0.57084   0.80212   0.00000  Uiso   1.00
O2569  O     0.87993   0.92822   0.19446   0.00000  Uiso   1.00
O2570  O     0.57113   0.88047   0.80433   0.00000  Uiso   1.00
O2571  O     0.96964   0.75000   0.66317   0.00000  Uiso   1.00
O2572  O     0.92915   0.61933   0.19503   0.00000  Uiso   1.00
O2573  O     0.88119   0.92957   0.80112   0.00000  Uiso   1.00
O2574  O     0.61981   0.57032   0.19565   0.00000  Uiso   1.00
O2575  O     0.92804   0.61830   0.80160   0.00000  Uiso   1.00
O2576  O     0.56847   0.88086   0.19593   0.00000  Uiso   1.00
O2577  O     0.85099   0.69096   0.72511   0.00000  Uiso   1.00
O2578  O     0.64769   0.80430   0.26693   0.00000  Uiso   1.00
O2579  O     0.80834   0.85150   0.72108   0.00000  Uiso   1.00
O2580  O     0.69362   0.64847   0.27097   0.00000  Uiso   1.00
O2581  O     0.64760   0.80634   0.72621   0.00000  Uiso   1.00
O2582  O     0.75000   0.53036   0.33683   0.00000  Uiso   1.00
O2583  O     0.85256   0.69299   0.27338   0.00000  Uiso   1.00
O2584  O     0.69426   0.64567   0.72120   0.00000  Uiso   1.00
O2585  O     0.80576   0.85270   0.27171   0.00000  Uiso   1.00
O2586  O     0.86804   0.82056   0.30209   0.00000  Uiso   1.00
O2587  O     0.63201   0.68056   0.69675   0.00000  Uiso   1.00
O2588  O     0.82159   0.62973   0.30487   0.00000  Uiso   1.00
O2589  O     0.67906   0.86923   0.69492   0.00000  Uiso   1.00
O2590  O     0.63105   0.67994   0.30234   0.00000  Uiso   1.00
O2591  O     0.86997   0.81605   0.69801   0.00000  Uiso   1.00
O2592  O     0.67913   0.86677   0.29949   0.00000  Uiso   1.00
Zn2593 Zn    0.70660   0.50000   0.21760   0.00000  Uiso   1.00
Zn2594 Zn    0.54340   0.75000   0.28240   0.00000  Uiso   1.00
Zn2595 Zn    0.75000   0.95660   0.71760   0.00000  Uiso   1.00
Zn2596 Zn    0.75000   0.54340   0.28240   0.00000  Uiso   1.00
Zn2597 Zn    0.54340   0.75000   0.71760   0.00000  Uiso   1.00
Zn2598 Zn    0.95660   0.75000   0.28240   0.00000  Uiso   1.00
Zn2599 Zn    0.75000   0.54340   0.71760   0.00000  Uiso   1.00
Zn2600 Zn    0.75000   0.95660   0.28240   0.00000  Uiso   1.00
Zn2601 Zn    0.79340   0.50000   0.78240   0.00000  Uiso   1.00
Zn2602 Zn    0.50000   0.70660   0.21760   0.00000  Uiso   1.00
Zn2603 Zn    0.50000   0.79340   0.78240   0.00000  Uiso   1.00
Zn2604 Zn    0.79340   0.50000   0.21760   0.00000  Uiso   1.00
Zn2605 Zn    0.70660   0.50000   0.78240   0.00000  Uiso   1.00
Zn2606 Zn    0.50000   0.79340   0.21760   0.00000  Uiso   1.00
Zn2607 Zn    0.50000   0.70660   0.78240   0.00000  Uiso   1.00
Zn2608 Zn    0.95660   0.75000   0.71760   0.00000  Uiso   1.00
loop_
_geom_bond_atom_site_label_1
_geom_bond_atom_site_label_2
_geom_bond_distance
_geom_bond_site_symmetry_2
_ccdc_geom_bond_type
C1     C79     1.401   .     A
C1     O586    1.382   .     S
C1     C160    1.426   .     A
C2     C152    1.416   .     A
C2     C165    1.419   .     A
C2     O596    1.377   .     S
C3     C215    1.426   .     A
C3     C208    1.423   .     A
C3     C179    1.486   .     S
C4     C180    1.472   .     S
C4     C207    1.427   .     A
C4     C218    1.409   .     A
C5     C217    1.411   .     A
C5     C206    1.424   .     A
C5     C181    1.472   .     S
C6     C205    1.425   .     A
C6     C182    1.480   .     S
C6     C220    1.405   .     A
C7     C183    1.477   .     S
C7     C204    1.425   .     A
C7     C219    1.420   .     A
C8     C193    1.479   .     S
C8     C223    1.429   .     A
C8     C203    1.405   .     A
C9     C202    1.413   .     A
C9     C194    1.473   .     S
C9     C221    1.420   .     A
C10    C186    1.472   .     S
C10    C225    1.427   .     A
C10    C201    1.407   .     A
C11    C199    1.411   .     A
C11    C224    1.423   .     A
C11    C187    1.470   .     S
C12    C227    1.422   .     A
C12    C198    1.405   .     A
C12    C188    1.473   .     S
C13    O597    1.381   .     S
C13    C153    1.399   .     A
C13    C1470   1.434   .     S
C14    C197    1.412   .     A
C14    C190    1.480   .     S
C14    C226    1.422   .     A
C15    C196    1.400   .     A
C15    C191    1.469   .     S
C15    C229    1.424   .     A
C16    C228    1.420   .     A
C16    C195    1.413   .     A
C16    C192    1.478   .     S
C17    C79     1.401   .     A
C17    C176    1.489   .     S
C17    C1428   1.401   1_545 S
C18    C135    1.407   .     A
C18    C1394   1.412   .     S
C18    C1479   1.494   .     S
C19    C174    1.477   .     S
C19    C146    1.402   .     A
C19    C101    1.403   .     A
C20    C113    1.414   .     A
C20    C173    1.491   .     S
C20    C802    1.414   .     S
C21    C172    1.489   .     S
C21    C155    1.399   .     A
C21    C803    1.400   1_455 S
C22    C152    1.411   .     A
C22    C809    1.407   1_455 S
C22    C823    1.494   1_455 S
C23    C158    1.402   .     A
C23    C1457   1.401   1_545 S
C23    C1474   1.469   1_545 S
C24    C154    1.416   .     A
C24    O598    1.378   .     S
C24    C168    1.423   .     A
C25    C154    1.419   .     A
C25    C169    1.495   .     S
C25    C1463   1.418   1_545 S
C26    O586    1.403   .     S
C26    H344    1.114   .     S
C26    C27     1.524   1_554 S
C26    H233    1.111   1_554 S
C27    H455    1.109   .     S
C27    H466    1.113   .     S
C27    C26     1.524   1_556 S
C27    H444    1.111   1_556 S
C28    O587    1.401   .     S
C28    C29     1.529   .     S
C28    H488    1.114   .     S
C28    H477    1.113   1_556 S
C29    H499    1.110   .     S
C29    H234    1.113   1_556 S
C29    H510    1.110   1_556 S
C30    H256    1.114   .     S
C30    O588    1.402   .     S
C30    C31     1.525   1_554 S
C30    H245    1.110   1_554 S
C31    H289    1.113   .     S
C31    H278    1.109   .     S
C31    C30     1.525   1_556 S
C31    H267    1.111   1_556 S
C32    O589    1.400   .     S
C32    H311    1.111   .     S
C32    C33     1.527   1_556 S
C32    H300    1.112   1_556 S
C33    H345    1.113   .     S
C33    H333    1.110   .     S
C33    C32     1.527   1_554 S
C33    H322    1.110   1_554 S
C34    H367    1.113   .     S
C34    O590    1.403   .     S
C34    C36     1.523   1_554 S
C34    H356    1.111   1_554 S
C35    C155    1.398   .     A
C35    O599    1.382   .     S
C35    C164    1.424   .     A
C36    H389    1.109   .     S
C36    H400    1.114   .     S
C36    C34     1.523   1_556 S
C36    H378    1.110   1_556 S
C37    H422    1.113   .     S
C37    O591    1.400   .     S
C37    C38     1.531   1_556 S
C37    H411    1.113   1_556 S
C38    H445    1.113   .     S
C38    H443    1.108   .     S
C38    C37     1.531   1_554 S
C38    H433    1.111   1_554 S
C39    H447    1.113   .     S
C39    O592    1.405   .     S
C39    C40     1.525   1_554 S
C39    H446    1.111   1_554 S
C40    H450    1.113   .     S
C40    H449    1.109   .     S
C40    C39     1.525   1_556 S
C40    H448    1.110   1_556 S
C41    H452    1.113   .     S
C41    C42     1.530   .     S
C41    O594    1.401   .     S
C41    H451    1.113   1_556 S
C42    H453    1.111   .     S
C42    H454    1.108   1_556 S
C42    H456    1.113   1_556 S
C43    O595    1.401   .     S
C43    H458    1.114   .     S
C43    C44     1.523   .     S
C43    H457    1.112   .     S
C44    H459    1.111   .     S
C44    H461    1.113   .     S
C44    H460    1.109   .     S
C45    H463    1.112   .     S
C45    C47     1.526   .     S
C45    H462    1.113   .     S
C45    O596    1.399   .     S
C46    O600    1.379   .     S
C46    C157    1.410   .     A
C46    C817    1.415   .     S
C47    H465    1.109   .     S
C47    H467    1.113   .     S
C47    H464    1.110   .     S
C48    H468    1.111   .     S
C48    O597    1.401   .     S
C48    H469    1.113   .     S
C48    C49     1.519   .     S
C49    H470    1.109   .     S
C49    H472    1.114   .     S
C49    H471    1.110   .     S
C50    H474    1.111   .     S
C50    C51     1.527   .     S
C50    O598    1.400   .     S
C50    H473    1.111   .     S
C51    H478    1.113   .     S
C51    H476    1.109   .     S
C51    H475    1.109   .     S
C52    O599    1.402   .     S
C52    H479    1.111   .     S
C52    C53     1.524   .     S
C52    H480    1.113   .     S
C53    H482    1.109   .     S
C53    H481    1.111   .     S
C53    H483    1.113   .     S
C54    H484    1.113   .     S
C54    C55     1.530   .     S
C54    O600    1.400   .     S
C54    H485    1.112   .     S
C55    H487    1.109   .     S
C55    H489    1.113   .     S
C55    H486    1.110   .     S
C56    C58     1.523   .     S
C56    O601    1.407   .     S
C56    H491    1.114   .     S
C56    H490    1.111   .     S
C57    C158    1.390   .     A
C57    C166    1.428   .     A
C57    O601    1.380   .     S
C58    H494    1.112   .     S
C58    H492    1.110   .     S
C58    H493    1.109   .     S
C59    C60     1.532   .     S
C59    H495    1.113   .     S
C59    O602    1.399   .     S
C59    H496    1.111   .     S
C60    H497    1.111   .     S
C60    H498    1.108   .     S
C60    H500    1.114   .     S
C61    H501    1.116   .     S
C61    C62     1.519   .     S
C61    H502    1.113   .     S
C61    O603    1.421   .     S
C62    H504    1.115   .     S
C62    H503    1.118   .     S
C62    H505    1.110   .     S
C63    H507    1.115   .     S
C63    C64     1.520   .     S
C63    H506    1.114   .     S
C63    O605    1.420   .     S
C64    H509    1.131   .     S
C64    H511    1.132   .     S
C64    H508    1.124   .     S
C65    O606    1.420   .     S
C65    H513    1.112   .     S
C65    H512    1.114   .     S
C65    C66     1.519   .     S
C66    H516    1.103   .     S
C66    H514    1.109   .     S
C66    H515    1.112   .     S
C67    H517    1.113   .     S
C67    O607    1.422   .     S
C67    H518    1.113   .     S
C67    C69     1.522   .     S
C68    O602    1.377   .     S
C68    C159    1.405   .     A
C68    C1472   1.412   .     S
C69    H235    1.110   .     S
C69    H520    1.111   .     S
C69    H519    1.102   .     S
C70    H237    1.113   .     S
C70    C71     1.520   .     S
C70    H236    1.113   .     S
C70    O608    1.421   .     S
C71    H240    1.103   .     S
C71    H238    1.110   .     S
C71    H239    1.114   .     S
C72    C73     1.523   .     S
C72    H242    1.113   .     S
C72    O609    1.422   .     S
C72    H241    1.114   .     S
C73    H244    1.113   .     S
C73    H246    1.112   .     S
C73    H243    1.109   .     S
C74    H248    1.111   .     S
C74    O610    1.424   .     S
C74    C75     1.517   .     S
C74    H247    1.111   .     S
C75    H250    1.118   .     S
C75    H249    1.109   .     S
C75    H251    1.109   .     S
C76    O611    1.420   .     S
C76    H252    1.113   .     S
C76    C77     1.518   .     S
C76    H253    1.115   .     S
C77    H257    1.114   .     S
C77    H254    1.106   .     S
C77    H907    1.120   1_455 S
C78    H259    1.115   .     S
C78    C80     1.511   .     S
C78    H258    1.115   .     S
C78    O612    1.422   .     S
C79    O524    1.377   .     S
C80    H262    1.115   .     S
C80    H260    1.105   .     S
C80    H261    1.118   .     S
C81    H263    1.121   .     S
C81    O613    1.419   .     S
C81    C82     1.494   .     S
C81    H264    1.107   .     S
C82    H265    1.112   .     S
C82    H268    1.105   .     S
C82    H266    1.116   .     S
C83    O614    1.418   .     S
C83    H270    1.116   .     S
C83    C84     1.505   .     S
C83    H269    1.110   .     S
C84    H271    1.106   .     S
C84    H273    1.110   .     S
C84    H272    1.112   .     S
C85    H274    1.115   .     S
C85    C86     1.516   .     S
C85    H275    1.113   .     S
C85    O616    1.420   .     S
C86    H277    1.114   .     S
C86    H276    1.110   .     S
C86    H279    1.104   .     S
C87    O617    1.414   .     S
C87    H280    1.112   .     S
C87    C88     1.500   .     S
C87    H281    1.115   .     S
C88    H282    1.099   .     S
C88    H284    1.107   .     S
C88    H283    1.111   .     S
C89    H285    1.116   .     S
C89    C91     1.511   .     S
C89    H286    1.112   .     S
C89    O618    1.415   .     S
C90    O525    1.391   .     S
C90    C112    1.415   .     A
C90    C1322   1.412   1_545 S
C91    H287    1.114   .     S
C91    H288    1.100   .     S
C91    H290    1.119   .     S
C92    O619    1.420   .     S
C92    H292    1.116   .     S
C92    C93     1.500   .     S
C92    H291    1.113   .     S
C93    H293    1.099   .     S
C93    H295    1.108   .     S
C93    H294    1.113   .     S
C94    O620    1.423   .     S
C94    H296    1.125   .     S
C94    C95     1.528   .     S
C94    H297    1.122   .     S
C95    H301    1.117   .     S
C95    H298    1.121   .     S
C95    H299    1.117   .     S
C96    H302    1.111   .     S
C96    H303    1.110   .     S
C96    C97     1.530   .     S
C96    O621    1.422   .     S
C97    H306    1.107   .     S
C97    H305    1.111   .     S
C97    H304    1.111   .     S
C98    H307    1.113   .     S
C98    C99     1.524   .     S
C98    O622    1.422   .     S
C98    H308    1.113   .     S
C99    H312    1.110   .     S
C99    H310    1.111   .     S
C99    H309    1.105   .     S
C100   H313    1.116   .     S
C100   H314    1.106   .     S
C100   C102    1.525   .     S
C100   O623    1.422   .     S
C101   C156    1.401   .     A
C101   O526    1.382   .     S
C102   H316    1.105   .     S
C102   H317    1.111   .     S
C102   H315    1.107   .     S
C103   O624    1.421   .     S
C103   H318    1.112   .     S
C103   H319    1.114   .     S
C103   C104    1.524   .     S
C104   H323    1.110   .     S
C104   H320    1.103   .     S
C104   H321    1.111   .     S
C105   O625    1.421   .     S
C105   C106    1.520   .     S
C105   H324    1.112   .     S
C105   H325    1.113   .     S
C106   H328    1.104   .     S
C106   H326    1.109   .     S
C106   H327    1.113   .     S
C107   C108    1.521   .     S
C107   H330    1.114   .     S
C107   O627    1.421   .     S
C107   H329    1.113   .     S
C108   H332    1.110   .     S
C108   H334    1.109   .     S
C108   H331    1.107   .     S
C109   O628    1.426   .     S
C109   H335    1.109   .     S
C109   H336    1.109   .     S
C109   C110    1.516   .     S
C110   H338    1.114   .     S
C110   H339    1.104   .     S
C110   H337    1.112   .     S
C111   C114    1.521   .     S
C111   O629    1.421   .     S
C111   H341    1.113   .     S
C111   H340    1.113   .     S
C112   O587    1.377   .     S
C112   C1465   1.417   1_545 S
C113   O527    1.394   .     S
C113   C167    1.412   .     A
C114   H342    1.110   .     S
C114   H343    1.112   .     S
C114   H346    1.108   .     S
C115   C116    1.502   .     S
C115   O630    1.418   .     S
C115   H347    1.112   .     S
C115   H348    1.113   .     S
C116   H349    1.086   .     S
C116   H351    1.106   .     S
C116   H350    1.110   .     S
C117   O631    1.422   .     S
C117   H352    1.120   .     S
C117   H353    1.105   .     S
C117   C118    1.500   .     S
C118   H357    1.106   .     S
C118   H355    1.114   .     S
C118   H354    1.110   .     S
C119   H359    1.116   .     S
C119   C120    1.501   .     S
C119   O632    1.418   .     S
C119   H358    1.109   .     S
C120   H361    1.113   .     S
C120   H360    1.105   .     S
C120   H362    1.112   .     S
C121   O633    1.420   .     S
C121   H364    1.111   .     S
C121   H363    1.114   .     S
C121   C122    1.513   .     S
C122   H368    1.098   .     S
C122   H366    1.113   .     S
C122   H365    1.109   .     S
C123   O634    1.417   .     S
C123   C125    1.500   .     S
C123   H370    1.116   .     S
C123   H369    1.111   .     S
C124   O528    1.375   .     S
C124   C178    1.397   .     A
C124   C1321   1.401   .     S
C125   H373    1.108   .     S
C125   H371    1.100   .     S
C125   H372    1.111   .     S
C126   C127    1.513   .     S
C126   O635    1.420   .     S
C126   H374    1.116   .     S
C126   H375    1.099   .     S
C127   H379    1.106   .     S
C127   H376    1.109   .     S
C127   H377    1.110   .     S
C128   H381    1.117   .     S
C128   C129    1.490   .     S
C128   O636    1.418   .     S
C128   H380    1.111   .     S
C129   H382    1.099   .     S
C129   H384    1.107   .     S
C129   H383    1.112   .     S
C130   O523    1.421   .     S
C130   H386    1.107   .     S
C130   C131    1.516   .     S
C130   H385    1.115   .     S
C131   H388    1.114   .     S
C131   H390    1.107   .     S
C131   H387    1.110   .     S
C132   H391    1.115   .     S
C132   H393    1.103   .     S
C132   H392    1.111   .     S
C132   O1828   1.415   .     S
C133   H396    1.110   .     S
C133   O525    1.418   .     S
C133   H395    1.103   .     S
C133   H1698   1.114   1_545 S
C134   H398    1.110   .     S
C134   H399    1.105   .     S
C134   H397    1.114   .     S
C134   O1178   1.414   1_455 S
C135   C189    1.409   .     A
C135   O529    1.384   .     S
C136   H402    1.106   .     S
C136   H403    1.109   .     S
C136   O527    1.418   .     S
C136   H1053   1.113   .     S
C137   H406    1.107   .     S
C137   H405    1.110   .     S
C137   H404    1.114   .     S
C137   O1832   1.412   1_545 S
C138   H409    1.107   .     S
C138   O529    1.412   .     S
C138   H408    1.110   .     S
C138   H1711   1.121   .     S
C139   H412    1.119   .     S
C139   H410    1.111   .     S
C139   H413    1.111   .     S
C139   O530    1.422   .     S
C140   H415    1.103   .     S
C140   O531    1.419   .     S
C140   H416    1.111   .     S
C140   H1066   1.114   1_455 S
C141   H417    1.115   .     S
C141   H419    1.102   .     S
C141   H418    1.111   .     S
C141   O532    1.413   .     S
C142   O534    1.418   .     S
C142   H420    1.114   .     S
C142   H423    1.109   .     S
C142   H421    1.105   .     S
C143   O535    1.414   .     S
C143   H426    1.107   .     S
C143   H425    1.109   .     S
C143   H424    1.113   .     S
C144   H428    1.107   .     S
C144   H429    1.106   .     S
C144   H427    1.114   .     S
C144   O536    1.416   .     S
C145   H430    1.114   .     S
C145   H432    1.103   .     S
C145   O537    1.409   .     S
C145   H431    1.110   .     S
C146   O530    1.382   .     S
C146   C852    1.389   .     S
C147   H436    1.100   .     S
C147   H434    1.118   .     S
C147   H435    1.108   .     S
C147   O538    1.413   .     S
C148   O539    1.416   .     S
C148   H438    1.110   .     S
C148   H437    1.116   .     S
C148   H439    1.104   .     S
C149   H440    1.114   .     S
C149   O540    1.418   .     S
C149   H442    1.112   .     S
C149   H441    1.097   .     S
C150   C211    1.408   .     A
C150   O531    1.392   .     S
C150   C672    1.414   1_455 S
C151   C222    1.401   .     A
C151   O532    1.378   .     S
C151   C673    1.400   .     S
C152   O534    1.392   .     S
C153   O535    1.379   .     S
C153   C1327   1.401   .     S
C154   O536    1.394   .     S
C155   O537    1.373   .     S
C156   C162    1.434   .     A
C156   O588    1.383   .     S
C157   O538    1.384   .     S
C157   C674    1.407   .     S
C158   O539    1.380   .     S
C159   O540    1.391   .     S
C159   C1329   1.418   .     S
C160   C1465   1.498   1_544 S
C160   C1482   1.425   1_545 S
C161   C189    1.415   .     A
C161   C1416   1.417   .     S
C161   C1464   1.498   1_556 S
C162   C163    1.506   1_554 S
C162   C852    1.431   .     S
C163   C167    1.426   .     A
C163   C162    1.506   1_556 S
C163   C863    1.419   .     S
C164   C165    1.501   .     S
C164   C874    1.426   1_455 S
C165   C698    1.415   1_455 S
C166   C168    1.508   .     S
C166   C1317   1.434   1_545 S
C167   O589    1.380   .     S
C168   C1372   1.412   1_545 S
C169   O626    1.292   .     A
C169   O1886   1.294   1_545 S
C170   O522    1.289   .     A
C170   C1327   1.469   .     S
C170   O1897   1.287   .     S
C171   O533    1.294   .     A
C171   C674    1.494   .     S
C171   O1256   1.287   .     S
C172   O541    1.291   .     A
C172   O1267   1.288   1_455 S
C173   O1198   1.292   .     A
C173   O1194   1.291   .     S
C174   O1195   1.289   .     A
C174   O1199   1.288   .     S
C175   O544    1.286   .     A
C175   O548    1.295   .     A
C175   C1322   1.494   1_545 S
C176   O545    1.291   .     S
C176   O550    1.291   .     S
C177   O579    1.289   .     A
C177   C232    1.478   .     S
C177   O551    1.295   .     A
C178   O590    1.382   .     S
C178   C1464   1.425   .     S
C179   O580    1.301   .     A
C179   O552    1.288   .     A
C180   O553    1.294   .     A
C180   O577    1.286   .     A
C181   O578    1.289   .     A
C181   O554    1.291   .     A
C182   O584    1.289   .     A
C182   O555    1.293   .     A
C183   O556    1.288   .     A
C183   O585    1.295   .     A
C184   O581    1.285   .     A
C184   O557    1.303   .     A
C184   C230    1.467   .     S
C185   O583    1.303   .     A
C185   O558    1.293   .     A
C185   C231    1.481   .     S
C186   O570    1.293   .     A
C186   O559    1.286   .     A
C187   O561    1.289   .     A
C187   O572    1.289   .     A
C188   O568    1.298   .     A
C188   O562    1.284   .     A
C189   O591    1.380   .     S
C190   O569    1.294   .     A
C190   O563    1.292   .     A
C191   O564    1.287   .     A
C191   O575    1.302   .     A
C192   O565    1.299   .     A
C192   O576    1.296   .     A
C193   O573    1.296   .     A
C193   O566    1.286   .     A
C194   O567    1.292   .     A
C194   O574    1.288   .     A
C195   C212    1.402   .     A
C195   O603    1.398   .     S
C196   C210    1.394   .     A
C196   O605    1.397   .     S
C197   O606    1.400   .     S
C197   C209    1.402   .     A
C198   O607    1.400   .     S
C198   C208    1.396   .     A
C199   C207    1.397   .     A
C199   O608    1.402   .     S
C200   O592    1.382   .     S
C200   C814    1.431   1_455 S
C200   C798    1.389   1_455 S
C201   O609    1.401   .     S
C201   C206    1.395   .     A
C202   O610    1.404   .     S
C202   C205    1.398   .     A
C203   O611    1.399   .     S
C203   C204    1.396   .     A
C204   O612    1.380   .     S
C205   O613    1.374   .     S
C206   O614    1.381   .     S
C207   O616    1.383   .     S
C208   O617    1.377   .     S
C209   O618    1.376   .     S
C209   C232    1.429   .     A
C210   C231    1.425   .     A
C210   O619    1.374   .     S
C211   O594    1.378   .     S
C211   C815    1.419   1_455 S
C212   C230    1.429   .     A
C212   O620    1.386   .     S
C213   C229    1.402   .     A
C213   C231    1.423   .     A
C213   O621    1.403   .     S
C214   C230    1.402   .     A
C214   O622    1.399   .     S
C214   C228    1.392   .     A
C215   C227    1.404   .     A
C215   O623    1.406   .     S
C216   O624    1.399   .     S
C216   C226    1.398   .     A
C216   C232    1.410   .     A
C217   O625    1.403   .     S
C217   C225    1.398   .     A
C218   C224    1.396   .     A
C218   O627    1.400   .     S
C219   C223    1.402   .     A
C219   O628    1.411   .     S
C220   O629    1.398   .     S
C220   C221    1.398   .     A
C221   O630    1.378   .     S
C222   O595    1.380   .     S
C222   C816    1.426   .     S
C223   O631    1.378   .     S
C224   O632    1.380   .     S
C225   O633    1.383   .     S
C226   O634    1.377   .     S
C227   O635    1.392   .     S
C228   O636    1.368   .     S
C229   O523    1.384   .     S
H233   C26     1.111   1_556 S
H234   C29     1.113   1_554 S
H245   C30     1.110   1_556 S
H255   C729    1.120   .     S
H267   C31     1.111   1_554 S
H300   C32     1.112   1_554 S
H322   C33     1.110   1_556 S
H356   C34     1.111   1_556 S
H378   C36     1.110   1_554 S
H394   C1437   1.114   .     S
H401   C788    1.113   1_455 S
H407   C1442   1.121   1_545 S
H411   C37     1.113   1_554 S
H414   C792    1.114   .     S
H433   C38     1.111   1_556 S
H444   C27     1.111   1_554 S
H446   C39     1.111   1_556 S
H448   C40     1.110   1_554 S
H451   C41     1.113   1_554 S
H454   C42     1.108   1_554 S
H456   C42     1.113   1_554 S
H477   C28     1.113   1_554 S
H510   C29     1.110   1_554 S
O521   Zn1948  1.966   1_545 S
O521   Zn637   1.968   .     S
O521   Zn640   1.958   .     S
O521   Zn648   1.956   .     S
O522   Zn639   1.969   .     S
O524   C1436   1.415   1_545 S
O526   C786    1.414   .     S
O528   C1441   1.412   .     S
O533   Zn642   1.970   .     S
O541   Zn641   1.970   .     S
O542   Zn651   1.965   .     S
O542   C825    1.291   1_455 S
O543   C826    1.289   1_455 A
O543   Zn650   1.965   .     S
O544   Zn645   1.964   .     S
O545   Zn637   1.964   .     S
O546   C825    1.292   1_455 A
O546   Zn647   1.969   .     S
O547   C826    1.288   1_455 S
O547   Zn646   1.969   .     S
O548   Zn649   1.970   .     S
O549   Zn1943  1.958   1_545 S
O549   Zn645   1.968   .     S
O549   Zn649   1.956   .     S
O549   Zn643   1.966   .     S
O550   Zn648   1.970   .     S
O551   Zn640   1.956   .     S
O552   Zn639   1.956   .     S
O553   Zn642   1.942   .     S
O554   Zn641   1.942   .     S
O555   Zn644   1.951   .     S
O556   Zn643   1.951   .     S
O557   Zn638   1.942   .     S
O558   Zn652   1.942   .     S
O559   Zn639   1.942   .     S
O560   Zn638   1.968   .     S
O560   Zn1294  1.956   1_455 S
O560   Zn646   1.958   .     S
O560   Zn650   1.966   .     S
O561   Zn640   1.942   .     S
O562   Zn652   1.951   .     S
O563   Zn638   1.951   .     S
O564   Zn643   1.943   .     S
O565   Zn644   1.943   .     S
O566   Zn641   1.956   .     S
O567   Zn642   1.956   .     S
O568   Zn1299  1.956   .     S
O569   Zn646   1.956   .     S
O570   Zn1953  1.942   .     S
O571   Zn651   1.966   .     S
O571   Zn647   1.958   .     S
O571   Zn641   1.956   .     S
O571   Zn1304  1.968   1_455 S
O572   Zn648   1.942   .     S
O573   Zn651   1.951   .     S
O574   Zn1302  1.951   .     S
O575   Zn645   1.942   .     S
O576   Zn1941  1.942   .     S
O577   Zn1298  1.942   .     S
O578   Zn647   1.942   .     S
O579   Zn637   1.951   .     S
O580   Zn1949  1.951   .     S
O581   Zn650   1.943   .     S
O582   Zn644   1.965   .     S
O582   C1473   1.294   .     S
O583   Zn1303  1.943   .     S
O584   Zn1952  1.956   .     S
O585   Zn649   1.956   .     S
O593   Zn643   1.965   .     S
O593   C1474   1.287   1_545 S
O604   Zn638   1.964   .     S
O604   C823    1.287   1_455 S
O615   Zn652   1.964   .     S
O615   C824    1.288   .     S
O626   Zn640   1.969   .     S
Zn637  O1880   1.942   1_545 S
Zn639  O1853   1.958   .     S
Zn642  O1212   1.956   .     S
Zn644  O1825   1.966   .     S
Zn645  O1884   1.951   1_545 S
Zn646  O1229   1.942   1_455 S
Zn647  O1220   1.956   1_455 S
Zn648  O1888   1.956   1_545 S
Zn649  O1874   1.942   1_545 S
Zn650  O1226   1.951   1_455 S
Zn651  O1235   1.943   1_455 S
Zn652  O1223   1.968   .     S
C653   C731    1.401   .     A
C653   O1238   1.382   .     S
C653   C812    1.426   .     A
C654   C804    1.416   .     A
C654   C817    1.419   .     A
C654   O1248   1.377   .     S
C655   C867    1.426   .     A
C655   C860    1.423   .     A
C655   C831    1.486   .     S
C656   C832    1.472   .     S
C656   C859    1.427   .     A
C656   C870    1.409   .     A
C657   C869    1.411   .     A
C657   C858    1.424   .     A
C657   C833    1.472   .     S
C658   C857    1.425   .     A
C658   C834    1.480   .     S
C658   C872    1.405   .     A
C659   C835    1.477   .     S
C659   C856    1.425   .     A
C659   C871    1.420   .     A
C660   C845    1.479   .     S
C660   C875    1.429   .     A
C660   C855    1.405   .     A
C661   C854    1.413   .     A
C661   C846    1.473   .     S
C661   C873    1.420   .     A
C662   C838    1.472   .     S
C662   C877    1.427   .     A
C662   C853    1.407   .     A
C663   C851    1.411   .     A
C663   C876    1.423   .     A
C663   C839    1.470   .     S
C664   C879    1.422   .     A
C664   C850    1.405   .     A
C664   C840    1.473   .     S
C665   O1249   1.381   .     S
C665   C805    1.399   .     A
C665   C2122   1.434   .     S
C666   C849    1.412   .     A
C666   C842    1.480   .     S
C666   C878    1.422   .     A
C667   C848    1.400   .     A
C667   C843    1.469   .     S
C667   C881    1.424   .     A
C668   C880    1.420   .     A
C668   C847    1.413   .     A
C668   C844    1.478   .     S
C669   C731    1.401   .     A
C669   C828    1.489   .     S
C669   C2080   1.401   1_545 S
C670   C787    1.407   .     A
C670   C2046   1.412   .     S
C670   C2131   1.494   .     S
C671   C826    1.477   .     S
C671   C798    1.402   .     A
C671   C753    1.403   .     A
C672   C765    1.414   .     A
C672   C825    1.491   .     S
C672   C150    1.414   1_655 S
C673   C824    1.489   .     S
C673   C807    1.399   .     A
C674   C804    1.411   .     A
C675   C810    1.402   .     A
C675   C2109   1.401   1_545 S
C675   C2126   1.469   1_545 S
C676   C806    1.416   .     A
C676   O1250   1.378   .     S
C676   C820    1.423   .     A
C677   C806    1.419   .     A
C677   C821    1.495   .     S
C677   C2115   1.418   1_545 S
C678   O1238   1.403   .     S
C678   H996    1.114   .     S
C678   C679    1.524   1_554 S
C678   H885    1.111   1_554 S
C679   H1107   1.109   .     S
C679   H1118   1.113   .     S
C679   C678    1.524   1_556 S
C679   H1096   1.111   1_556 S
C680   O1239   1.401   .     S
C680   C681    1.529   .     S
C680   H1140   1.114   .     S
C680   H1129   1.113   1_556 S
C681   H1151   1.110   .     S
C681   H886    1.113   1_556 S
C681   H1162   1.110   1_556 S
C682   H908    1.114   .     S
C682   O1240   1.402   .     S
C682   C683    1.525   1_554 S
C682   H897    1.110   1_554 S
C683   H941    1.113   .     S
C683   H930    1.109   .     S
C683   C682    1.525   1_556 S
C683   H919    1.111   1_556 S
C684   O1241   1.400   .     S
C684   H963    1.111   .     S
C684   C685    1.527   1_556 S
C684   H952    1.112   1_556 S
C685   H997    1.113   .     S
C685   H985    1.110   .     S
C685   C684    1.527   1_554 S
C685   H974    1.110   1_554 S
C686   H1019   1.113   .     S
C686   O1242   1.403   .     S
C686   C688    1.523   1_554 S
C686   H1008   1.111   1_554 S
C687   C807    1.398   .     A
C687   O1251   1.382   .     S
C687   C816    1.424   .     A
C688   H1041   1.109   .     S
C688   H1052   1.114   .     S
C688   C686    1.523   1_556 S
C688   H1030   1.110   1_556 S
C689   H1074   1.113   .     S
C689   O1243   1.400   .     S
C689   C690    1.531   1_556 S
C689   H1063   1.113   1_556 S
C690   H1097   1.113   .     S
C690   H1095   1.108   .     S
C690   C689    1.531   1_554 S
C690   H1085   1.111   1_554 S
C691   H1099   1.113   .     S
C691   O1244   1.405   .     S
C691   C692    1.525   1_554 S
C691   H1098   1.111   1_554 S
C692   H1102   1.113   .     S
C692   H1101   1.109   .     S
C692   C691    1.525   1_556 S
C692   H1100   1.110   1_556 S
C693   H1104   1.113   .     S
C693   C694    1.530   .     S
C693   O1246   1.401   .     S
C693   H1103   1.113   1_556 S
C694   H1105   1.111   .     S
C694   H1106   1.108   1_556 S
C694   H1108   1.113   1_556 S
C695   O1247   1.401   .     S
C695   H1110   1.114   .     S
C695   C696    1.523   .     S
C695   H1109   1.112   .     S
C696   H1111   1.111   .     S
C696   H1113   1.113   .     S
C696   H1112   1.109   .     S
C697   H1115   1.112   .     S
C697   C699    1.526   .     S
C697   H1114   1.113   .     S
C697   O1248   1.399   .     S
C698   O1252   1.379   .     S
C698   C809    1.410   .     A
C698   C165    1.415   1_655 S
C699   H1117   1.109   .     S
C699   H1119   1.113   .     S
C699   H1116   1.110   .     S
C700   H1120   1.111   .     S
C700   O1249   1.401   .     S
C700   H1121   1.113   .     S
C700   C701    1.519   .     S
C701   H1122   1.109   .     S
C701   H1124   1.114   .     S
C701   H1123   1.110   .     S
C702   H1126   1.111   .     S
C702   C703    1.527   .     S
C702   O1250   1.400   .     S
C702   H1125   1.111   .     S
C703   H1130   1.113   .     S
C703   H1128   1.109   .     S
C703   H1127   1.109   .     S
C704   O1251   1.402   .     S
C704   H1131   1.111   .     S
C704   C705    1.524   .     S
C704   H1132   1.113   .     S
C705   H1134   1.109   .     S
C705   H1133   1.111   .     S
C705   H1135   1.113   .     S
C706   H1136   1.113   .     S
C706   C707    1.530   .     S
C706   O1252   1.400   .     S
C706   H1137   1.112   .     S
C707   H1139   1.109   .     S
C707   H1141   1.113   .     S
C707   H1138   1.110   .     S
C708   C710    1.523   .     S
C708   O1253   1.407   .     S
C708   H1143   1.114   .     S
C708   H1142   1.111   .     S
C709   C810    1.390   .     A
C709   C818    1.428   .     A
C709   O1253   1.380   .     S
C710   H1146   1.112   .     S
C710   H1144   1.110   .     S
C710   H1145   1.109   .     S
C711   C712    1.532   .     S
C711   H1147   1.113   .     S
C711   O1254   1.399   .     S
C711   H1148   1.111   .     S
C712   H1149   1.111   .     S
C712   H1150   1.108   .     S
C712   H1152   1.114   .     S
C713   H1153   1.116   .     S
C713   C714    1.519   .     S
C713   H1154   1.113   .     S
C713   O1255   1.421   .     S
C714   H1156   1.115   .     S
C714   H1155   1.118   .     S
C714   H1157   1.110   .     S
C715   H1159   1.115   .     S
C715   C716    1.520   .     S
C715   H1158   1.114   .     S
C715   O1257   1.420   .     S
C716   H1161   1.131   .     S
C716   H1163   1.132   .     S
C716   H1160   1.124   .     S
C717   O1258   1.420   .     S
C717   H1165   1.112   .     S
C717   H1164   1.114   .     S
C717   C718    1.519   .     S
C718   H1168   1.103   .     S
C718   H1166   1.109   .     S
C718   H1167   1.112   .     S
C719   H1169   1.113   .     S
C719   O1259   1.422   .     S
C719   H1170   1.113   .     S
C719   C721    1.522   .     S
C720   O1254   1.377   .     S
C720   C811    1.405   .     A
C720   C2124   1.412   .     S
C721   H887    1.110   .     S
C721   H1172   1.111   .     S
C721   H1171   1.102   .     S
C722   H889    1.113   .     S
C722   C723    1.520   .     S
C722   H888    1.113   .     S
C722   O1260   1.421   .     S
C723   H892    1.103   .     S
C723   H890    1.110   .     S
C723   H891    1.114   .     S
C724   C725    1.523   .     S
C724   H894    1.113   .     S
C724   O1261   1.422   .     S
C724   H893    1.114   .     S
C725   H896    1.113   .     S
C725   H898    1.112   .     S
C725   H895    1.109   .     S
C726   H900    1.111   .     S
C726   O1262   1.424   .     S
C726   C727    1.517   .     S
C726   H899    1.111   .     S
C727   H902    1.118   .     S
C727   H901    1.109   .     S
C727   H903    1.109   .     S
C728   O1263   1.420   .     S
C728   H904    1.113   .     S
C728   C729    1.518   .     S
C728   H905    1.115   .     S
C729   H909    1.114   .     S
C729   H906    1.106   .     S
C730   H911    1.115   .     S
C730   C732    1.511   .     S
C730   H910    1.115   .     S
C730   O1264   1.422   .     S
C731   O1176   1.377   .     S
C732   H914    1.115   .     S
C732   H912    1.105   .     S
C732   H913    1.118   .     S
C733   H915    1.121   .     S
C733   O1265   1.419   .     S
C733   C734    1.494   .     S
C733   H916    1.107   .     S
C734   H917    1.112   .     S
C734   H920    1.105   .     S
C734   H918    1.116   .     S
C735   O1266   1.418   .     S
C735   H922    1.116   .     S
C735   C736    1.505   .     S
C735   H921    1.110   .     S
C736   H923    1.106   .     S
C736   H925    1.110   .     S
C736   H924    1.112   .     S
C737   H926    1.115   .     S
C737   C738    1.516   .     S
C737   H927    1.113   .     S
C737   O1268   1.420   .     S
C738   H929    1.114   .     S
C738   H928    1.110   .     S
C738   H931    1.104   .     S
C739   O1269   1.414   .     S
C739   H932    1.112   .     S
C739   C740    1.500   .     S
C739   H933    1.115   .     S
C740   H934    1.099   .     S
C740   H936    1.107   .     S
C740   H935    1.111   .     S
C741   H937    1.116   .     S
C741   C743    1.511   .     S
C741   H938    1.112   .     S
C741   O1270   1.415   .     S
C742   O1177   1.391   .     S
C742   C764    1.415   .     A
C742   C1974   1.412   1_545 S
C743   H939    1.114   .     S
C743   H940    1.100   .     S
C743   H942    1.119   .     S
C744   O1271   1.420   .     S
C744   H944    1.116   .     S
C744   C745    1.500   .     S
C744   H943    1.113   .     S
C745   H945    1.099   .     S
C745   H947    1.108   .     S
C745   H946    1.113   .     S
C746   O1272   1.423   .     S
C746   H948    1.125   .     S
C746   C747    1.528   .     S
C746   H949    1.122   .     S
C747   H953    1.117   .     S
C747   H950    1.121   .     S
C747   H951    1.117   .     S
C748   H954    1.111   .     S
C748   H955    1.110   .     S
C748   C749    1.530   .     S
C748   O1273   1.422   .     S
C749   H958    1.107   .     S
C749   H957    1.111   .     S
C749   H956    1.111   .     S
C750   H959    1.113   .     S
C750   C751    1.524   .     S
C750   O1274   1.422   .     S
C750   H960    1.113   .     S
C751   H964    1.110   .     S
C751   H962    1.111   .     S
C751   H961    1.105   .     S
C752   H965    1.116   .     S
C752   H966    1.106   .     S
C752   C754    1.525   .     S
C752   O1275   1.422   .     S
C753   C808    1.401   .     A
C753   O1178   1.382   .     S
C754   H968    1.105   .     S
C754   H969    1.111   .     S
C754   H967    1.107   .     S
C755   O1276   1.421   .     S
C755   H970    1.112   .     S
C755   H971    1.114   .     S
C755   C756    1.524   .     S
C756   H975    1.110   .     S
C756   H972    1.103   .     S
C756   H973    1.111   .     S
C757   O1277   1.421   .     S
C757   C758    1.520   .     S
C757   H976    1.112   .     S
C757   H977    1.113   .     S
C758   H980    1.104   .     S
C758   H978    1.109   .     S
C758   H979    1.113   .     S
C759   C760    1.521   .     S
C759   H982    1.114   .     S
C759   O1279   1.421   .     S
C759   H981    1.113   .     S
C760   H984    1.110   .     S
C760   H986    1.109   .     S
C760   H983    1.107   .     S
C761   O1280   1.426   .     S
C761   H987    1.109   .     S
C761   H988    1.109   .     S
C761   C762    1.516   .     S
C762   H990    1.114   .     S
C762   H991    1.104   .     S
C762   H989    1.112   .     S
C763   C766    1.521   .     S
C763   O1281   1.421   .     S
C763   H993    1.113   .     S
C763   H992    1.113   .     S
C764   O1239   1.377   .     S
C764   C2117   1.417   1_545 S
C765   O1179   1.394   .     S
C765   C819    1.412   .     A
C766   H994    1.110   .     S
C766   H995    1.112   .     S
C766   H998    1.108   .     S
C767   C768    1.502   .     S
C767   O1282   1.418   .     S
C767   H999    1.112   .     S
C767   H1000   1.113   .     S
C768   H1001   1.086   .     S
C768   H1003   1.106   .     S
C768   H1002   1.110   .     S
C769   O1283   1.422   .     S
C769   H1004   1.120   .     S
C769   H1005   1.105   .     S
C769   C770    1.500   .     S
C770   H1009   1.106   .     S
C770   H1007   1.114   .     S
C770   H1006   1.110   .     S
C771   H1011   1.116   .     S
C771   C772    1.501   .     S
C771   O1284   1.418   .     S
C771   H1010   1.109   .     S
C772   H1013   1.113   .     S
C772   H1012   1.105   .     S
C772   H1014   1.112   .     S
C773   O1285   1.420   .     S
C773   H1016   1.111   .     S
C773   H1015   1.114   .     S
C773   C774    1.513   .     S
C774   H1020   1.098   .     S
C774   H1018   1.113   .     S
C774   H1017   1.109   .     S
C775   O1286   1.417   .     S
C775   C777    1.500   .     S
C775   H1022   1.116   .     S
C775   H1021   1.111   .     S
C776   O1180   1.375   .     S
C776   C830    1.397   .     A
C776   C1973   1.401   .     S
C777   H1025   1.108   .     S
C777   H1023   1.100   .     S
C777   H1024   1.111   .     S
C778   C779    1.513   .     S
C778   O1287   1.420   .     S
C778   H1026   1.116   .     S
C778   H1027   1.099   .     S
C779   H1031   1.106   .     S
C779   H1028   1.109   .     S
C779   H1029   1.110   .     S
C780   H1033   1.117   .     S
C780   C781    1.490   .     S
C780   O1288   1.418   .     S
C780   H1032   1.111   .     S
C781   H1034   1.099   .     S
C781   H1036   1.107   .     S
C781   H1035   1.112   .     S
C782   O1175   1.421   .     S
C782   H1038   1.107   .     S
C782   C783    1.516   .     S
C782   H1037   1.115   .     S
C783   H1040   1.114   .     S
C783   H1042   1.107   .     S
C783   H1039   1.110   .     S
C784   H1043   1.115   .     S
C784   H1045   1.103   .     S
C784   H1044   1.111   .     S
C784   O2480   1.415   .     S
C785   H1048   1.110   .     S
C785   O1177   1.418   .     S
C785   H1047   1.103   .     S
C785   H2350   1.114   1_545 S
C786   H1050   1.110   .     S
C786   H1051   1.105   .     S
C786   H1049   1.114   .     S
C787   C841    1.409   .     A
C787   O1181   1.384   .     S
C788   H1054   1.106   .     S
C788   H1055   1.109   .     S
C788   O1179   1.418   .     S
C788   H401    1.113   1_655 S
C789   H1058   1.107   .     S
C789   H1057   1.110   .     S
C789   H1056   1.114   .     S
C789   O2484   1.412   1_545 S
C790   H1061   1.107   .     S
C790   O1181   1.412   .     S
C790   H1060   1.110   .     S
C790   H2363   1.121   .     S
C791   H1064   1.119   .     S
C791   H1062   1.111   .     S
C791   H1065   1.111   .     S
C791   O1182   1.422   .     S
C792   H1067   1.103   .     S
C792   O1183   1.419   .     S
C792   H1068   1.111   .     S
C793   H1069   1.115   .     S
C793   H1071   1.102   .     S
C793   H1070   1.111   .     S
C793   O1184   1.413   .     S
C794   O1186   1.418   .     S
C794   H1072   1.114   .     S
C794   H1075   1.109   .     S
C794   H1073   1.105   .     S
C795   O1187   1.414   .     S
C795   H1078   1.107   .     S
C795   H1077   1.109   .     S
C795   H1076   1.113   .     S
C796   H1080   1.107   .     S
C796   H1081   1.106   .     S
C796   H1079   1.114   .     S
C796   O1188   1.416   .     S
C797   H1082   1.114   .     S
C797   H1084   1.103   .     S
C797   O1189   1.409   .     S
C797   H1083   1.110   .     S
C798   O1182   1.382   .     S
C798   C200    1.389   1_655 S
C799   H1088   1.100   .     S
C799   H1086   1.118   .     S
C799   H1087   1.108   .     S
C799   O1190   1.413   .     S
C800   O1191   1.416   .     S
C800   H1090   1.110   .     S
C800   H1089   1.116   .     S
C800   H1091   1.104   .     S
C801   H1092   1.114   .     S
C801   O1192   1.418   .     S
C801   H1094   1.112   .     S
C801   H1093   1.097   .     S
C802   C863    1.408   .     A
C802   O1183   1.392   .     S
C803   C874    1.401   .     A
C803   O1184   1.378   .     S
C803   C21     1.400   1_655 S
C804   O1186   1.392   .     S
C805   O1187   1.379   .     S
C805   C1979   1.401   .     S
C806   O1188   1.394   .     S
C807   O1189   1.373   .     S
C808   C814    1.434   .     A
C808   O1240   1.383   .     S
C809   O1190   1.384   .     S
C809   C22     1.407   1_655 S
C810   O1191   1.380   .     S
C811   O1192   1.391   .     S
C811   C1981   1.418   .     S
C812   C2117   1.498   1_544 S
C812   C2134   1.425   1_545 S
C813   C841    1.415   .     A
C813   C2068   1.417   .     S
C813   C2116   1.498   1_556 S
C814   C815    1.506   1_554 S
C814   C200    1.431   1_655 S
C815   C819    1.426   .     A
C815   C814    1.506   1_556 S
C815   C211    1.419   1_655 S
C816   C817    1.501   .     S
C818   C820    1.508   .     S
C818   C1969   1.434   1_545 S
C819   O1241   1.380   .     S
C820   C2024   1.412   1_545 S
C821   O1278   1.292   .     A
C821   O2538   1.294   1_545 S
C822   O1174   1.289   .     A
C822   C1979   1.469   .     S
C822   O2549   1.287   .     S
C823   O1185   1.294   .     A
C823   C22     1.494   1_655 S
C823   O604    1.287   1_655 S
C824   O1193   1.291   .     A
C825   O546    1.292   1_655 A
C825   O542    1.291   1_655 S
C826   O543    1.289   1_655 A
C826   O547    1.288   1_655 S
C827   O1196   1.286   .     A
C827   O1200   1.295   .     A
C827   C1974   1.494   1_545 S
C828   O1197   1.291   .     S
C828   O1202   1.291   .     S
C829   O1231   1.289   .     A
C829   C884    1.478   .     S
C829   O1203   1.295   .     A
C830   O1242   1.382   .     S
C830   C2116   1.425   .     S
C831   O1232   1.301   .     A
C831   O1204   1.288   .     A
C832   O1205   1.294   .     A
C832   O1229   1.286   .     A
C833   O1230   1.289   .     A
C833   O1206   1.291   .     A
C834   O1236   1.289   .     A
C834   O1207   1.293   .     A
C835   O1208   1.288   .     A
C835   O1237   1.295   .     A
C836   O1233   1.285   .     A
C836   O1209   1.303   .     A
C836   C882    1.467   .     S
C837   O1235   1.303   .     A
C837   O1210   1.293   .     A
C837   C883    1.481   .     S
C838   O1222   1.293   .     A
C838   O1211   1.286   .     A
C839   O1213   1.289   .     A
C839   O1224   1.289   .     A
C840   O1220   1.298   .     A
C840   O1214   1.284   .     A
C841   O1243   1.380   .     S
C842   O1221   1.294   .     A
C842   O1215   1.292   .     A
C843   O1216   1.287   .     A
C843   O1227   1.302   .     A
C844   O1217   1.299   .     A
C844   O1228   1.296   .     A
C845   O1225   1.296   .     A
C845   O1218   1.286   .     A
C846   O1219   1.292   .     A
C846   O1226   1.288   .     A
C847   C864    1.402   .     A
C847   O1255   1.398   .     S
C848   C862    1.394   .     A
C848   O1257   1.397   .     S
C849   O1258   1.400   .     S
C849   C861    1.402   .     A
C850   O1259   1.400   .     S
C850   C860    1.396   .     A
C851   C859    1.397   .     A
C851   O1260   1.402   .     S
C852   O1244   1.382   .     S
C853   O1261   1.401   .     S
C853   C858    1.395   .     A
C854   O1262   1.404   .     S
C854   C857    1.398   .     A
C855   O1263   1.399   .     S
C855   C856    1.396   .     A
C856   O1264   1.380   .     S
C857   O1265   1.374   .     S
C858   O1266   1.381   .     S
C859   O1268   1.383   .     S
C860   O1269   1.377   .     S
C861   O1270   1.376   .     S
C861   C884    1.429   .     A
C862   C883    1.425   .     A
C862   O1271   1.374   .     S
C863   O1246   1.378   .     S
C864   C882    1.429   .     A
C864   O1272   1.386   .     S
C865   C881    1.402   .     A
C865   C883    1.423   .     A
C865   O1273   1.403   .     S
C866   C882    1.402   .     A
C866   O1274   1.399   .     S
C866   C880    1.392   .     A
C867   C879    1.404   .     A
C867   O1275   1.406   .     S
C868   O1276   1.399   .     S
C868   C878    1.398   .     A
C868   C884    1.410   .     A
C869   O1277   1.403   .     S
C869   C877    1.398   .     A
C870   C876    1.396   .     A
C870   O1279   1.400   .     S
C871   C875    1.402   .     A
C871   O1280   1.411   .     S
C872   O1281   1.398   .     S
C872   C873    1.398   .     A
C873   O1282   1.378   .     S
C874   O1247   1.380   .     S
C874   C164    1.426   1_655 S
C875   O1283   1.378   .     S
C876   O1284   1.380   .     S
C877   O1285   1.383   .     S
C878   O1286   1.377   .     S
C879   O1287   1.392   .     S
C880   O1288   1.368   .     S
C881   O1175   1.384   .     S
H885   C678    1.111   1_556 S
H886   C681    1.113   1_554 S
H897   C682    1.110   1_556 S
H907   C77     1.120   1_655 S
H919   C683    1.111   1_554 S
H952   C684    1.112   1_554 S
H974   C685    1.110   1_556 S
H1008  C686    1.111   1_556 S
H1030  C688    1.110   1_554 S
H1046  C2089   1.114   .     S
H1059  C2094   1.121   1_545 S
H1063  C689    1.113   1_554 S
H1066  C140    1.114   1_655 S
H1085  C690    1.111   1_556 S
H1096  C679    1.111   1_554 S
H1098  C691    1.111   1_556 S
H1100  C692    1.110   1_554 S
H1103  C693    1.113   1_554 S
H1106  C694    1.108   1_554 S
H1108  C694    1.113   1_554 S
H1129  C680    1.113   1_554 S
H1162  C681    1.110   1_554 S
O1173  Zn2600  1.966   1_545 S
O1173  Zn1289  1.968   .     S
O1173  Zn1292  1.958   .     S
O1173  Zn1300  1.956   .     S
O1174  Zn1291  1.969   .     S
O1176  C2088   1.415   1_545 S
O1178  C134    1.414   1_655 S
O1180  C2093   1.412   .     S
O1185  Zn1294  1.970   .     S
O1193  Zn1293  1.970   .     S
O1194  Zn1303  1.965   .     S
O1195  Zn1302  1.965   .     S
O1196  Zn1297  1.964   .     S
O1197  Zn1289  1.964   .     S
O1198  Zn1299  1.969   .     S
O1199  Zn1298  1.969   .     S
O1200  Zn1301  1.970   .     S
O1201  Zn2595  1.958   1_545 S
O1201  Zn1297  1.968   .     S
O1201  Zn1301  1.956   .     S
O1201  Zn1295  1.966   .     S
O1202  Zn1300  1.970   .     S
O1203  Zn1292  1.956   .     S
O1204  Zn1291  1.956   .     S
O1205  Zn1294  1.942   .     S
O1206  Zn1293  1.942   .     S
O1207  Zn1296  1.951   .     S
O1208  Zn1295  1.951   .     S
O1209  Zn1290  1.942   .     S
O1210  Zn1304  1.942   .     S
O1211  Zn1291  1.942   .     S
O1212  Zn1290  1.968   .     S
O1212  Zn1298  1.958   .     S
O1212  Zn1302  1.966   .     S
O1213  Zn1292  1.942   .     S
O1214  Zn1304  1.951   .     S
O1215  Zn1290  1.951   .     S
O1216  Zn1295  1.943   .     S
O1217  Zn1296  1.943   .     S
O1218  Zn1293  1.956   .     S
O1219  Zn1294  1.956   .     S
O1220  Zn647   1.956   1_655 S
O1221  Zn1298  1.956   .     S
O1222  Zn2605  1.942   .     S
O1223  Zn1303  1.966   .     S
O1223  Zn1299  1.958   .     S
O1223  Zn1293  1.956   .     S
O1224  Zn1300  1.942   .     S
O1225  Zn1303  1.951   .     S
O1226  Zn650   1.951   1_655 S
O1227  Zn1297  1.942   .     S
O1228  Zn2593  1.942   .     S
O1229  Zn646   1.942   1_655 S
O1230  Zn1299  1.942   .     S
O1231  Zn1289  1.951   .     S
O1232  Zn2601  1.951   .     S
O1233  Zn1302  1.943   .     S
O1234  Zn1296  1.965   .     S
O1234  C2125   1.294   .     S
O1235  Zn651   1.943   1_655 S
O1236  Zn2604  1.956   .     S
O1237  Zn1301  1.956   .     S
O1245  Zn1295  1.965   .     S
O1245  C2126   1.287   1_545 S
O1256  Zn1290  1.964   .     S
O1267  Zn1304  1.964   .     S
O1267  C172    1.288   1_655 S
O1278  Zn1292  1.969   .     S
Zn1289 O2532   1.942   1_545 S
Zn1291 O2505   1.958   .     S
Zn1294 O560    1.956   1_655 S
Zn1296 O2477   1.966   .     S
Zn1297 O2536   1.951   1_545 S
Zn1300 O2540   1.956   1_545 S
Zn1301 O2526   1.942   1_545 S
Zn1304 O571    1.968   1_655 S
C1305  C1383   1.401   .     A
C1305  O1890   1.382   .     S
C1305  C1464   1.426   .     A
C1306  C1456   1.416   .     A
C1306  C1469   1.419   .     A
C1306  O1900   1.377   .     S
C1307  C1519   1.426   .     A
C1307  C1512   1.423   .     A
C1307  C1483   1.486   .     S
C1308  C1484   1.472   .     S
C1308  C1511   1.427   .     A
C1308  C1522   1.409   .     A
C1309  C1521   1.411   .     A
C1309  C1510   1.424   .     A
C1309  C1485   1.472   .     S
C1310  C1509   1.425   .     A
C1310  C1486   1.480   .     S
C1310  C1524   1.405   .     A
C1311  C1487   1.477   .     S
C1311  C1508   1.425   .     A
C1311  C1523   1.420   .     A
C1312  C1497   1.479   .     S
C1312  C1527   1.429   .     A
C1312  C1507   1.405   .     A
C1313  C1506   1.413   .     A
C1313  C1498   1.473   .     S
C1313  C1525   1.420   .     A
C1314  C1490   1.472   .     S
C1314  C1529   1.427   .     A
C1314  C1505   1.407   .     A
C1315  C1503   1.411   .     A
C1315  C1528   1.423   .     A
C1315  C1491   1.470   .     S
C1316  C1531   1.422   .     A
C1316  C1502   1.405   .     A
C1316  C1492   1.473   .     S
C1317  O1901   1.381   .     S
C1317  C1457   1.399   .     A
C1317  C166    1.434   1_565 S
C1318  C1501   1.412   .     A
C1318  C1494   1.480   .     S
C1318  C1530   1.422   .     A
C1319  C1500   1.400   .     A
C1319  C1495   1.469   .     S
C1319  C1533   1.424   .     A
C1320  C1532   1.420   .     A
C1320  C1499   1.413   .     A
C1320  C1496   1.478   .     S
C1321  C1383   1.401   .     A
C1321  C1480   1.489   .     S
C1322  C1439   1.407   .     A
C1322  C90     1.412   1_565 S
C1322  C175    1.494   1_565 S
C1323  C1478   1.477   .     S
C1323  C1450   1.402   .     A
C1323  C1405   1.403   .     A
C1324  C1417   1.414   .     A
C1324  C1477   1.491   .     S
C1324  C2106   1.414   .     S
C1325  C1476   1.489   .     S
C1325  C1459   1.399   .     A
C1325  C2107   1.400   1_455 S
C1326  C1456   1.411   .     A
C1326  C2113   1.407   1_455 S
C1326  C2127   1.494   1_455 S
C1327  C1462   1.402   .     A
C1328  C1458   1.416   .     A
C1328  O1902   1.378   .     S
C1328  C1472   1.423   .     A
C1329  C1458   1.419   .     A
C1329  C1473   1.495   .     S
C1330  O1890   1.403   .     S
C1330  H1648   1.114   .     S
C1330  C1331   1.524   1_554 S
C1330  H1537   1.111   1_554 S
C1331  H1759   1.109   .     S
C1331  H1770   1.113   .     S
C1331  C1330   1.524   1_556 S
C1331  H1748   1.111   1_556 S
C1332  O1891   1.401   .     S
C1332  C1333   1.529   .     S
C1332  H1792   1.114   .     S
C1332  H1781   1.113   1_556 S
C1333  H1803   1.110   .     S
C1333  H1538   1.113   1_556 S
C1333  H1814   1.110   1_556 S
C1334  H1560   1.114   .     S
C1334  O1892   1.402   .     S
C1334  C1335   1.525   1_554 S
C1334  H1549   1.110   1_554 S
C1335  H1593   1.113   .     S
C1335  H1582   1.109   .     S
C1335  C1334   1.525   1_556 S
C1335  H1571   1.111   1_556 S
C1336  O1893   1.400   .     S
C1336  H1615   1.111   .     S
C1336  C1337   1.527   1_556 S
C1336  H1604   1.112   1_556 S
C1337  H1649   1.113   .     S
C1337  H1637   1.110   .     S
C1337  C1336   1.527   1_554 S
C1337  H1626   1.110   1_554 S
C1338  H1671   1.113   .     S
C1338  O1894   1.403   .     S
C1338  C1340   1.523   1_554 S
C1338  H1660   1.111   1_554 S
C1339  C1459   1.398   .     A
C1339  O1903   1.382   .     S
C1339  C1468   1.424   .     A
C1340  H1693   1.109   .     S
C1340  H1704   1.114   .     S
C1340  C1338   1.523   1_556 S
C1340  H1682   1.110   1_556 S
C1341  H1726   1.113   .     S
C1341  O1895   1.400   .     S
C1341  C1342   1.531   1_556 S
C1341  H1715   1.113   1_556 S
C1342  H1749   1.113   .     S
C1342  H1747   1.108   .     S
C1342  C1341   1.531   1_554 S
C1342  H1737   1.111   1_554 S
C1343  H1751   1.113   .     S
C1343  O1896   1.405   .     S
C1343  C1344   1.525   1_554 S
C1343  H1750   1.111   1_554 S
C1344  H1754   1.113   .     S
C1344  H1753   1.109   .     S
C1344  C1343   1.525   1_556 S
C1344  H1752   1.110   1_556 S
C1345  H1756   1.113   .     S
C1345  C1346   1.530   .     S
C1345  O1898   1.401   .     S
C1345  H1755   1.113   1_556 S
C1346  H1757   1.111   .     S
C1346  H1758   1.108   1_556 S
C1346  H1760   1.113   1_556 S
C1347  O1899   1.401   .     S
C1347  H1762   1.114   .     S
C1347  C1348   1.523   .     S
C1347  H1761   1.112   .     S
C1348  H1763   1.111   .     S
C1348  H1765   1.113   .     S
C1348  H1764   1.109   .     S
C1349  H1767   1.112   .     S
C1349  C1351   1.526   .     S
C1349  H1766   1.113   .     S
C1349  O1900   1.399   .     S
C1350  O1904   1.379   .     S
C1350  C1461   1.410   .     A
C1350  C2121   1.415   .     S
C1351  H1769   1.109   .     S
C1351  H1771   1.113   .     S
C1351  H1768   1.110   .     S
C1352  H1772   1.111   .     S
C1352  O1901   1.401   .     S
C1352  H1773   1.113   .     S
C1352  C1353   1.519   .     S
C1353  H1774   1.109   .     S
C1353  H1776   1.114   .     S
C1353  H1775   1.110   .     S
C1354  H1778   1.111   .     S
C1354  C1355   1.527   .     S
C1354  O1902   1.400   .     S
C1354  H1777   1.111   .     S
C1355  H1782   1.113   .     S
C1355  H1780   1.109   .     S
C1355  H1779   1.109   .     S
C1356  O1903   1.402   .     S
C1356  H1783   1.111   .     S
C1356  C1357   1.524   .     S
C1356  H1784   1.113   .     S
C1357  H1786   1.109   .     S
C1357  H1785   1.111   .     S
C1357  H1787   1.113   .     S
C1358  H1788   1.113   .     S
C1358  C1359   1.530   .     S
C1358  O1904   1.400   .     S
C1358  H1789   1.112   .     S
C1359  H1791   1.109   .     S
C1359  H1793   1.113   .     S
C1359  H1790   1.110   .     S
C1360  C1362   1.523   .     S
C1360  O1905   1.407   .     S
C1360  H1795   1.114   .     S
C1360  H1794   1.111   .     S
C1361  C1462   1.390   .     A
C1361  C1470   1.428   .     A
C1361  O1905   1.380   .     S
C1362  H1798   1.112   .     S
C1362  H1796   1.110   .     S
C1362  H1797   1.109   .     S
C1363  C1364   1.532   .     S
C1363  H1799   1.113   .     S
C1363  O1906   1.399   .     S
C1363  H1800   1.111   .     S
C1364  H1801   1.111   .     S
C1364  H1802   1.108   .     S
C1364  H1804   1.114   .     S
C1365  H1805   1.116   .     S
C1365  C1366   1.519   .     S
C1365  H1806   1.113   .     S
C1365  O1907   1.421   .     S
C1366  H1808   1.115   .     S
C1366  H1807   1.118   .     S
C1366  H1809   1.110   .     S
C1367  H1811   1.115   .     S
C1367  C1368   1.520   .     S
C1367  H1810   1.114   .     S
C1367  O1909   1.420   .     S
C1368  H1813   1.131   .     S
C1368  H1815   1.132   .     S
C1368  H1812   1.124   .     S
C1369  O1910   1.420   .     S
C1369  H1817   1.112   .     S
C1369  H1816   1.114   .     S
C1369  C1370   1.519   .     S
C1370  H1820   1.103   .     S
C1370  H1818   1.109   .     S
C1370  H1819   1.112   .     S
C1371  H1821   1.113   .     S
C1371  O1911   1.422   .     S
C1371  H1822   1.113   .     S
C1371  C1373   1.522   .     S
C1372  O1906   1.377   .     S
C1372  C1463   1.405   .     A
C1372  C168    1.412   1_565 S
C1373  H1539   1.110   .     S
C1373  H1824   1.111   .     S
C1373  H1823   1.102   .     S
C1374  H1541   1.113   .     S
C1374  C1375   1.520   .     S
C1374  H1540   1.113   .     S
C1374  O1912   1.421   .     S
C1375  H1544   1.103   .     S
C1375  H1542   1.110   .     S
C1375  H1543   1.114   .     S
C1376  C1377   1.523   .     S
C1376  H1546   1.113   .     S
C1376  O1913   1.422   .     S
C1376  H1545   1.114   .     S
C1377  H1548   1.113   .     S
C1377  H1550   1.112   .     S
C1377  H1547   1.109   .     S
C1378  H1552   1.111   .     S
C1378  O1914   1.424   .     S
C1378  C1379   1.517   .     S
C1378  H1551   1.111   .     S
C1379  H1554   1.118   .     S
C1379  H1553   1.109   .     S
C1379  H1555   1.109   .     S
C1380  O1915   1.420   .     S
C1380  H1556   1.113   .     S
C1380  C1381   1.518   .     S
C1380  H1557   1.115   .     S
C1381  H1561   1.114   .     S
C1381  H1558   1.106   .     S
C1381  H2211   1.120   1_455 S
C1382  H1563   1.115   .     S
C1382  C1384   1.511   .     S
C1382  H1562   1.115   .     S
C1382  O1916   1.422   .     S
C1383  O1828   1.377   .     S
C1384  H1566   1.115   .     S
C1384  H1564   1.105   .     S
C1384  H1565   1.118   .     S
C1385  H1567   1.121   .     S
C1385  O1917   1.419   .     S
C1385  C1386   1.494   .     S
C1385  H1568   1.107   .     S
C1386  H1569   1.112   .     S
C1386  H1572   1.105   .     S
C1386  H1570   1.116   .     S
C1387  O1918   1.418   .     S
C1387  H1574   1.116   .     S
C1387  C1388   1.505   .     S
C1387  H1573   1.110   .     S
C1388  H1575   1.106   .     S
C1388  H1577   1.110   .     S
C1388  H1576   1.112   .     S
C1389  H1578   1.115   .     S
C1389  C1390   1.516   .     S
C1389  H1579   1.113   .     S
C1389  O1920   1.420   .     S
C1390  H1581   1.114   .     S
C1390  H1580   1.110   .     S
C1390  H1583   1.104   .     S
C1391  O1921   1.414   .     S
C1391  H1584   1.112   .     S
C1391  C1392   1.500   .     S
C1391  H1585   1.115   .     S
C1392  H1586   1.099   .     S
C1392  H1588   1.107   .     S
C1392  H1587   1.111   .     S
C1393  H1589   1.116   .     S
C1393  C1395   1.511   .     S
C1393  H1590   1.112   .     S
C1393  O1922   1.415   .     S
C1394  O1829   1.391   .     S
C1394  C1416   1.415   .     A
C1395  H1591   1.114   .     S
C1395  H1592   1.100   .     S
C1395  H1594   1.119   .     S
C1396  O1923   1.420   .     S
C1396  H1596   1.116   .     S
C1396  C1397   1.500   .     S
C1396  H1595   1.113   .     S
C1397  H1597   1.099   .     S
C1397  H1599   1.108   .     S
C1397  H1598   1.113   .     S
C1398  O1924   1.423   .     S
C1398  H1600   1.125   .     S
C1398  C1399   1.528   .     S
C1398  H1601   1.122   .     S
C1399  H1605   1.117   .     S
C1399  H1602   1.121   .     S
C1399  H1603   1.117   .     S
C1400  H1606   1.111   .     S
C1400  H1607   1.110   .     S
C1400  C1401   1.530   .     S
C1400  O1925   1.422   .     S
C1401  H1610   1.107   .     S
C1401  H1609   1.111   .     S
C1401  H1608   1.111   .     S
C1402  H1611   1.113   .     S
C1402  C1403   1.524   .     S
C1402  O1926   1.422   .     S
C1402  H1612   1.113   .     S
C1403  H1616   1.110   .     S
C1403  H1614   1.111   .     S
C1403  H1613   1.105   .     S
C1404  H1617   1.116   .     S
C1404  H1618   1.106   .     S
C1404  C1406   1.525   .     S
C1404  O1927   1.422   .     S
C1405  C1460   1.401   .     A
C1405  O1830   1.382   .     S
C1406  H1620   1.105   .     S
C1406  H1621   1.111   .     S
C1406  H1619   1.107   .     S
C1407  O1928   1.421   .     S
C1407  H1622   1.112   .     S
C1407  H1623   1.114   .     S
C1407  C1408   1.524   .     S
C1408  H1627   1.110   .     S
C1408  H1624   1.103   .     S
C1408  H1625   1.111   .     S
C1409  O1929   1.421   .     S
C1409  C1410   1.520   .     S
C1409  H1628   1.112   .     S
C1409  H1629   1.113   .     S
C1410  H1632   1.104   .     S
C1410  H1630   1.109   .     S
C1410  H1631   1.113   .     S
C1411  C1412   1.521   .     S
C1411  H1634   1.114   .     S
C1411  O1931   1.421   .     S
C1411  H1633   1.113   .     S
C1412  H1636   1.110   .     S
C1412  H1638   1.109   .     S
C1412  H1635   1.107   .     S
C1413  O1932   1.426   .     S
C1413  H1639   1.109   .     S
C1413  H1640   1.109   .     S
C1413  C1414   1.516   .     S
C1414  H1642   1.114   .     S
C1414  H1643   1.104   .     S
C1414  H1641   1.112   .     S
C1415  C1418   1.521   .     S
C1415  O1933   1.421   .     S
C1415  H1645   1.113   .     S
C1415  H1644   1.113   .     S
C1416  O1891   1.377   .     S
C1417  O1831   1.394   .     S
C1417  C1471   1.412   .     A
C1418  H1646   1.110   .     S
C1418  H1647   1.112   .     S
C1418  H1650   1.108   .     S
C1419  C1420   1.502   .     S
C1419  O1934   1.418   .     S
C1419  H1651   1.112   .     S
C1419  H1652   1.113   .     S
C1420  H1653   1.086   .     S
C1420  H1655   1.106   .     S
C1420  H1654   1.110   .     S
C1421  O1935   1.422   .     S
C1421  H1656   1.120   .     S
C1421  H1657   1.105   .     S
C1421  C1422   1.500   .     S
C1422  H1661   1.106   .     S
C1422  H1659   1.114   .     S
C1422  H1658   1.110   .     S
C1423  H1663   1.116   .     S
C1423  C1424   1.501   .     S
C1423  O1936   1.418   .     S
C1423  H1662   1.109   .     S
C1424  H1665   1.113   .     S
C1424  H1664   1.105   .     S
C1424  H1666   1.112   .     S
C1425  O1937   1.420   .     S
C1425  H1668   1.111   .     S
C1425  H1667   1.114   .     S
C1425  C1426   1.513   .     S
C1426  H1672   1.098   .     S
C1426  H1670   1.113   .     S
C1426  H1669   1.109   .     S
C1427  O1938   1.417   .     S
C1427  C1429   1.500   .     S
C1427  H1674   1.116   .     S
C1427  H1673   1.111   .     S
C1428  O1832   1.375   .     S
C1428  C1482   1.397   .     A
C1428  C17     1.401   1_565 S
C1429  H1677   1.108   .     S
C1429  H1675   1.100   .     S
C1429  H1676   1.111   .     S
C1430  C1431   1.513   .     S
C1430  O1939   1.420   .     S
C1430  H1678   1.116   .     S
C1430  H1679   1.099   .     S
C1431  H1683   1.106   .     S
C1431  H1680   1.109   .     S
C1431  H1681   1.110   .     S
C1432  H1685   1.117   .     S
C1432  C1433   1.490   .     S
C1432  O1940   1.418   .     S
C1432  H1684   1.111   .     S
C1433  H1686   1.099   .     S
C1433  H1688   1.107   .     S
C1433  H1687   1.112   .     S
C1434  O1827   1.421   .     S
C1434  H1690   1.107   .     S
C1434  C1435   1.516   .     S
C1434  H1689   1.115   .     S
C1435  H1692   1.114   .     S
C1435  H1694   1.107   .     S
C1435  H1691   1.110   .     S
C1436  H1695   1.115   .     S
C1436  H1697   1.103   .     S
C1436  H1696   1.111   .     S
C1436  O524    1.415   1_565 S
C1437  H1700   1.110   .     S
C1437  O1829   1.418   .     S
C1437  H1699   1.103   .     S
C1438  H1702   1.110   .     S
C1438  H1703   1.105   .     S
C1438  H1701   1.114   .     S
C1438  O2482   1.414   1_455 S
C1439  C1493   1.409   .     A
C1439  O1833   1.384   .     S
C1440  H1706   1.106   .     S
C1440  H1707   1.109   .     S
C1440  O1831   1.418   .     S
C1440  H2357   1.113   .     S
C1441  H1710   1.107   .     S
C1441  H1709   1.110   .     S
C1441  H1708   1.114   .     S
C1442  H1713   1.107   .     S
C1442  O1833   1.412   .     S
C1442  H1712   1.110   .     S
C1442  H407    1.121   1_565 S
C1443  H1716   1.119   .     S
C1443  H1714   1.111   .     S
C1443  H1717   1.111   .     S
C1443  O1834   1.422   .     S
C1444  H1719   1.103   .     S
C1444  O1835   1.419   .     S
C1444  H1720   1.111   .     S
C1444  H2370   1.114   1_455 S
C1445  H1721   1.115   .     S
C1445  H1723   1.102   .     S
C1445  H1722   1.111   .     S
C1445  O1836   1.413   .     S
C1446  O1838   1.418   .     S
C1446  H1724   1.114   .     S
C1446  H1727   1.109   .     S
C1446  H1725   1.105   .     S
C1447  O1839   1.414   .     S
C1447  H1730   1.107   .     S
C1447  H1729   1.109   .     S
C1447  H1728   1.113   .     S
C1448  H1732   1.107   .     S
C1448  H1733   1.106   .     S
C1448  H1731   1.114   .     S
C1448  O1840   1.416   .     S
C1449  H1734   1.114   .     S
C1449  H1736   1.103   .     S
C1449  O1841   1.409   .     S
C1449  H1735   1.110   .     S
C1450  O1834   1.382   .     S
C1450  C2156   1.389   .     S
C1451  H1740   1.100   .     S
C1451  H1738   1.118   .     S
C1451  H1739   1.108   .     S
C1451  O1842   1.413   .     S
C1452  O1843   1.416   .     S
C1452  H1742   1.110   .     S
C1452  H1741   1.116   .     S
C1452  H1743   1.104   .     S
C1453  H1744   1.114   .     S
C1453  O1844   1.418   .     S
C1453  H1746   1.112   .     S
C1453  H1745   1.097   .     S
C1454  C1515   1.408   .     A
C1454  O1835   1.392   .     S
C1454  C1976   1.414   1_455 S
C1455  C1526   1.401   .     A
C1455  O1836   1.378   .     S
C1455  C1977   1.400   .     S
C1456  O1838   1.392   .     S
C1457  O1839   1.379   .     S
C1457  C23     1.401   1_565 S
C1458  O1840   1.394   .     S
C1459  O1841   1.373   .     S
C1460  C1466   1.434   .     A
C1460  O1892   1.383   .     S
C1461  O1842   1.384   .     S
C1461  C1978   1.407   .     S
C1462  O1843   1.380   .     S
C1463  O1844   1.391   .     S
C1463  C25     1.418   1_565 S
C1464  C161    1.498   1_554 S
C1465  C1493   1.415   .     A
C1465  C112    1.417   1_565 S
C1465  C160    1.498   1_566 S
C1466  C1467   1.506   1_554 S
C1466  C2156   1.431   .     S
C1467  C1471   1.426   .     A
C1467  C1466   1.506   1_556 S
C1467  C2167   1.419   .     S
C1468  C1469   1.501   .     S
C1468  C2178   1.426   1_455 S
C1469  C2002   1.415   1_455 S
C1470  C1472   1.508   .     S
C1471  O1893   1.380   .     S
C1473  O1930   1.292   .     A
C1474  O1826   1.289   .     A
C1474  C23     1.469   1_565 S
C1474  O593    1.287   1_565 S
C1475  O1837   1.294   .     A
C1475  C1978   1.494   .     S
C1475  O2560   1.287   .     S
C1476  O1845   1.291   .     A
C1476  O2571   1.288   1_455 S
C1477  O2502   1.292   .     A
C1477  O2498   1.291   .     S
C1478  O2499   1.289   .     A
C1478  O2503   1.288   .     S
C1479  O1848   1.286   .     A
C1479  O1852   1.295   .     A
C1480  O1849   1.291   .     S
C1480  O1854   1.291   .     S
C1481  O1883   1.289   .     A
C1481  C1536   1.478   .     S
C1481  O1855   1.295   .     A
C1482  O1894   1.382   .     S
C1482  C160    1.425   1_565 S
C1483  O1884   1.301   .     A
C1483  O1856   1.288   .     A
C1484  O1857   1.294   .     A
C1484  O1881   1.286   .     A
C1485  O1882   1.289   .     A
C1485  O1858   1.291   .     A
C1486  O1888   1.289   .     A
C1486  O1859   1.293   .     A
C1487  O1860   1.288   .     A
C1487  O1889   1.295   .     A
C1488  O1885   1.285   .     A
C1488  O1861   1.303   .     A
C1488  C1534   1.467   .     S
C1489  O1887   1.303   .     A
C1489  O1862   1.293   .     A
C1489  C1535   1.481   .     S
C1490  O1874   1.293   .     A
C1490  O1863   1.286   .     A
C1491  O1865   1.289   .     A
C1491  O1876   1.289   .     A
C1492  O1872   1.298   .     A
C1492  O1866   1.284   .     A
C1493  O1895   1.380   .     S
C1494  O1873   1.294   .     A
C1494  O1867   1.292   .     A
C1495  O1868   1.287   .     A
C1495  O1879   1.302   .     A
C1496  O1869   1.299   .     A
C1496  O1880   1.296   .     A
C1497  O1877   1.296   .     A
C1497  O1870   1.286   .     A
C1498  O1871   1.292   .     A
C1498  O1878   1.288   .     A
C1499  C1516   1.402   .     A
C1499  O1907   1.398   .     S
C1500  C1514   1.394   .     A
C1500  O1909   1.397   .     S
C1501  O1910   1.400   .     S
C1501  C1513   1.402   .     A
C1502  O1911   1.400   .     S
C1502  C1512   1.396   .     A
C1503  C1511   1.397   .     A
C1503  O1912   1.402   .     S
C1504  O1896   1.382   .     S
C1504  C2118   1.431   1_455 S
C1504  C2102   1.389   1_455 S
C1505  O1913   1.401   .     S
C1505  C1510   1.395   .     A
C1506  O1914   1.404   .     S
C1506  C1509   1.398   .     A
C1507  O1915   1.399   .     S
C1507  C1508   1.396   .     A
C1508  O1916   1.380   .     S
C1509  O1917   1.374   .     S
C1510  O1918   1.381   .     S
C1511  O1920   1.383   .     S
C1512  O1921   1.377   .     S
C1513  O1922   1.376   .     S
C1513  C1536   1.429   .     A
C1514  C1535   1.425   .     A
C1514  O1923   1.374   .     S
C1515  O1898   1.378   .     S
C1515  C2119   1.419   1_455 S
C1516  C1534   1.429   .     A
C1516  O1924   1.386   .     S
C1517  C1533   1.402   .     A
C1517  C1535   1.423   .     A
C1517  O1925   1.403   .     S
C1518  C1534   1.402   .     A
C1518  O1926   1.399   .     S
C1518  C1532   1.392   .     A
C1519  C1531   1.404   .     A
C1519  O1927   1.406   .     S
C1520  O1928   1.399   .     S
C1520  C1530   1.398   .     A
C1520  C1536   1.410   .     A
C1521  O1929   1.403   .     S
C1521  C1529   1.398   .     A
C1522  C1528   1.396   .     A
C1522  O1931   1.400   .     S
C1523  C1527   1.402   .     A
C1523  O1932   1.411   .     S
C1524  O1933   1.398   .     S
C1524  C1525   1.398   .     A
C1525  O1934   1.378   .     S
C1526  O1899   1.380   .     S
C1526  C2120   1.426   .     S
C1527  O1935   1.378   .     S
C1528  O1936   1.380   .     S
C1529  O1937   1.383   .     S
C1530  O1938   1.377   .     S
C1531  O1939   1.392   .     S
C1532  O1940   1.368   .     S
C1533  O1827   1.384   .     S
H1537  C1330   1.111   1_556 S
H1538  C1333   1.113   1_554 S
H1549  C1334   1.110   1_556 S
H1559  C2033   1.120   .     S
H1571  C1335   1.111   1_554 S
H1604  C1336   1.112   1_554 S
H1626  C1337   1.110   1_556 S
H1660  C1338   1.111   1_556 S
H1682  C1340   1.110   1_554 S
H1698  C133    1.114   1_565 S
H1705  C2092   1.113   1_455 S
H1715  C1341   1.113   1_554 S
H1718  C2096   1.114   .     S
H1737  C1342   1.111   1_556 S
H1748  C1331   1.111   1_554 S
H1750  C1343   1.111   1_556 S
H1752  C1344   1.110   1_554 S
H1755  C1345   1.113   1_554 S
H1758  C1346   1.108   1_554 S
H1760  C1346   1.113   1_554 S
H1781  C1332   1.113   1_554 S
H1814  C1333   1.110   1_554 S
O1825  Zn1941  1.968   .     S
O1825  Zn1944  1.958   .     S
O1825  Zn1952  1.956   .     S
O1826  Zn1943  1.969   .     S
O1830  C2090   1.414   .     S
O1832  C137    1.412   1_565 S
O1837  Zn1946  1.970   .     S
O1845  Zn1945  1.970   .     S
O1846  Zn1955  1.965   .     S
O1846  C2129   1.291   1_455 S
O1847  C2130   1.289   1_455 A
O1847  Zn1954  1.965   .     S
O1848  Zn1949  1.964   .     S
O1849  Zn1941  1.964   .     S
O1850  C2129   1.292   1_455 A
O1850  Zn1951  1.969   .     S
O1851  C2130   1.288   1_455 S
O1851  Zn1950  1.969   .     S
O1852  Zn1953  1.970   .     S
O1853  Zn1949  1.968   .     S
O1853  Zn1953  1.956   .     S
O1853  Zn1947  1.966   .     S
O1854  Zn1952  1.970   .     S
O1855  Zn1944  1.956   .     S
O1856  Zn1943  1.956   .     S
O1857  Zn1946  1.942   .     S
O1858  Zn1945  1.942   .     S
O1859  Zn1948  1.951   .     S
O1860  Zn1947  1.951   .     S
O1861  Zn1942  1.942   .     S
O1862  Zn1956  1.942   .     S
O1863  Zn1943  1.942   .     S
O1864  Zn1942  1.968   .     S
O1864  Zn2598  1.956   1_455 S
O1864  Zn1950  1.958   .     S
O1864  Zn1954  1.966   .     S
O1865  Zn1944  1.942   .     S
O1866  Zn1956  1.951   .     S
O1867  Zn1942  1.951   .     S
O1868  Zn1947  1.943   .     S
O1869  Zn1948  1.943   .     S
O1870  Zn1945  1.956   .     S
O1871  Zn1946  1.956   .     S
O1872  Zn2603  1.956   .     S
O1873  Zn1950  1.956   .     S
O1874  Zn649   1.942   1_565 S
O1875  Zn1955  1.966   .     S
O1875  Zn1951  1.958   .     S
O1875  Zn1945  1.956   .     S
O1875  Zn2608  1.968   1_455 S
O1876  Zn1952  1.942   .     S
O1877  Zn1955  1.951   .     S
O1878  Zn2606  1.951   .     S
O1879  Zn1949  1.942   .     S
O1880  Zn637   1.942   1_565 S
O1881  Zn2602  1.942   .     S
O1882  Zn1951  1.942   .     S
O1883  Zn1941  1.951   .     S
O1884  Zn645   1.951   1_565 S
O1885  Zn1954  1.943   .     S
O1886  Zn1948  1.965   .     S
O1886  C169    1.294   1_565 S
O1887  Zn2607  1.943   .     S
O1888  Zn648   1.956   1_565 S
O1889  Zn1953  1.956   .     S
O1897  Zn1947  1.965   .     S
O1908  Zn1942  1.964   .     S
O1908  C2127   1.287   1_455 S
O1919  Zn1956  1.964   .     S
O1919  C2128   1.288   .     S
O1930  Zn1944  1.969   .     S
Zn1943 O549    1.958   1_565 S
Zn1946 O2516   1.956   .     S
Zn1948 O521    1.966   1_565 S
Zn1950 O2533   1.942   1_455 S
Zn1951 O2524   1.956   1_455 S
Zn1954 O2530   1.951   1_455 S
Zn1955 O2539   1.943   1_455 S
Zn1956 O2527   1.968   .     S
C1957  C2035   1.401   .     A
C1957  O2542   1.382   .     S
C1957  C2116   1.426   .     A
C1958  C2108   1.416   .     A
C1958  C2121   1.419   .     A
C1958  O2552   1.377   .     S
C1959  C2171   1.426   .     A
C1959  C2164   1.423   .     A
C1959  C2135   1.486   .     S
C1960  C2136   1.472   .     S
C1960  C2163   1.427   .     A
C1960  C2174   1.409   .     A
C1961  C2173   1.411   .     A
C1961  C2162   1.424   .     A
C1961  C2137   1.472   .     S
C1962  C2161   1.425   .     A
C1962  C2138   1.480   .     S
C1962  C2176   1.405   .     A
C1963  C2139   1.477   .     S
C1963  C2160   1.425   .     A
C1963  C2175   1.420   .     A
C1964  C2149   1.479   .     S
C1964  C2179   1.429   .     A
C1964  C2159   1.405   .     A
C1965  C2158   1.413   .     A
C1965  C2150   1.473   .     S
C1965  C2177   1.420   .     A
C1966  C2142   1.472   .     S
C1966  C2181   1.427   .     A
C1966  C2157   1.407   .     A
C1967  C2155   1.411   .     A
C1967  C2180   1.423   .     A
C1967  C2143   1.470   .     S
C1968  C2183   1.422   .     A
C1968  C2154   1.405   .     A
C1968  C2144   1.473   .     S
C1969  O2553   1.381   .     S
C1969  C2109   1.399   .     A
C1969  C818    1.434   1_565 S
C1970  C2153   1.412   .     A
C1970  C2146   1.480   .     S
C1970  C2182   1.422   .     A
C1971  C2152   1.400   .     A
C1971  C2147   1.469   .     S
C1971  C2185   1.424   .     A
C1972  C2184   1.420   .     A
C1972  C2151   1.413   .     A
C1972  C2148   1.478   .     S
C1973  C2035   1.401   .     A
C1973  C2132   1.489   .     S
C1974  C2091   1.407   .     A
C1974  C742    1.412   1_565 S
C1974  C827    1.494   1_565 S
C1975  C2130   1.477   .     S
C1975  C2102   1.402   .     A
C1975  C2057   1.403   .     A
C1976  C2069   1.414   .     A
C1976  C2129   1.491   .     S
C1976  C1454   1.414   1_655 S
C1977  C2128   1.489   .     S
C1977  C2111   1.399   .     A
C1978  C2108   1.411   .     A
C1979  C2114   1.402   .     A
C1980  C2110   1.416   .     A
C1980  O2554   1.378   .     S
C1980  C2124   1.423   .     A
C1981  C2110   1.419   .     A
C1981  C2125   1.495   .     S
C1982  O2542   1.403   .     S
C1982  H2300   1.114   .     S
C1982  C1983   1.524   1_554 S
C1982  H2189   1.111   1_554 S
C1983  H2411   1.109   .     S
C1983  H2422   1.113   .     S
C1983  C1982   1.524   1_556 S
C1983  H2400   1.111   1_556 S
C1984  O2543   1.401   .     S
C1984  C1985   1.529   .     S
C1984  H2444   1.114   .     S
C1984  H2433   1.113   1_556 S
C1985  H2455   1.110   .     S
C1985  H2190   1.113   1_556 S
C1985  H2466   1.110   1_556 S
C1986  H2212   1.114   .     S
C1986  O2544   1.402   .     S
C1986  C1987   1.525   1_554 S
C1986  H2201   1.110   1_554 S
C1987  H2245   1.113   .     S
C1987  H2234   1.109   .     S
C1987  C1986   1.525   1_556 S
C1987  H2223   1.111   1_556 S
C1988  O2545   1.400   .     S
C1988  H2267   1.111   .     S
C1988  C1989   1.527   1_556 S
C1988  H2256   1.112   1_556 S
C1989  H2301   1.113   .     S
C1989  H2289   1.110   .     S
C1989  C1988   1.527   1_554 S
C1989  H2278   1.110   1_554 S
C1990  H2323   1.113   .     S
C1990  O2546   1.403   .     S
C1990  C1992   1.523   1_554 S
C1990  H2312   1.111   1_554 S
C1991  C2111   1.398   .     A
C1991  O2555   1.382   .     S
C1991  C2120   1.424   .     A
C1992  H2345   1.109   .     S
C1992  H2356   1.114   .     S
C1992  C1990   1.523   1_556 S
C1992  H2334   1.110   1_556 S
C1993  H2378   1.113   .     S
C1993  O2547   1.400   .     S
C1993  C1994   1.531   1_556 S
C1993  H2367   1.113   1_556 S
C1994  H2401   1.113   .     S
C1994  H2399   1.108   .     S
C1994  C1993   1.531   1_554 S
C1994  H2389   1.111   1_554 S
C1995  H2403   1.113   .     S
C1995  O2548   1.405   .     S
C1995  C1996   1.525   1_554 S
C1995  H2402   1.111   1_554 S
C1996  H2406   1.113   .     S
C1996  H2405   1.109   .     S
C1996  C1995   1.525   1_556 S
C1996  H2404   1.110   1_556 S
C1997  H2408   1.113   .     S
C1997  C1998   1.530   .     S
C1997  O2550   1.401   .     S
C1997  H2407   1.113   1_556 S
C1998  H2409   1.111   .     S
C1998  H2410   1.108   1_556 S
C1998  H2412   1.113   1_556 S
C1999  O2551   1.401   .     S
C1999  H2414   1.114   .     S
C1999  C2000   1.523   .     S
C1999  H2413   1.112   .     S
C2000  H2415   1.111   .     S
C2000  H2417   1.113   .     S
C2000  H2416   1.109   .     S
C2001  H2419   1.112   .     S
C2001  C2003   1.526   .     S
C2001  H2418   1.113   .     S
C2001  O2552   1.399   .     S
C2002  O2556   1.379   .     S
C2002  C2113   1.410   .     A
C2002  C1469   1.415   1_655 S
C2003  H2421   1.109   .     S
C2003  H2423   1.113   .     S
C2003  H2420   1.110   .     S
C2004  H2424   1.111   .     S
C2004  O2553   1.401   .     S
C2004  H2425   1.113   .     S
C2004  C2005   1.519   .     S
C2005  H2426   1.109   .     S
C2005  H2428   1.114   .     S
C2005  H2427   1.110   .     S
C2006  H2430   1.111   .     S
C2006  C2007   1.527   .     S
C2006  O2554   1.400   .     S
C2006  H2429   1.111   .     S
C2007  H2434   1.113   .     S
C2007  H2432   1.109   .     S
C2007  H2431   1.109   .     S
C2008  O2555   1.402   .     S
C2008  H2435   1.111   .     S
C2008  C2009   1.524   .     S
C2008  H2436   1.113   .     S
C2009  H2438   1.109   .     S
C2009  H2437   1.111   .     S
C2009  H2439   1.113   .     S
C2010  H2440   1.113   .     S
C2010  C2011   1.530   .     S
C2010  O2556   1.400   .     S
C2010  H2441   1.112   .     S
C2011  H2443   1.109   .     S
C2011  H2445   1.113   .     S
C2011  H2442   1.110   .     S
C2012  C2014   1.523   .     S
C2012  O2557   1.407   .     S
C2012  H2447   1.114   .     S
C2012  H2446   1.111   .     S
C2013  C2114   1.390   .     A
C2013  C2122   1.428   .     A
C2013  O2557   1.380   .     S
C2014  H2450   1.112   .     S
C2014  H2448   1.110   .     S
C2014  H2449   1.109   .     S
C2015  C2016   1.532   .     S
C2015  H2451   1.113   .     S
C2015  O2558   1.399   .     S
C2015  H2452   1.111   .     S
C2016  H2453   1.111   .     S
C2016  H2454   1.108   .     S
C2016  H2456   1.114   .     S
C2017  H2457   1.116   .     S
C2017  C2018   1.519   .     S
C2017  H2458   1.113   .     S
C2017  O2559   1.421   .     S
C2018  H2460   1.115   .     S
C2018  H2459   1.118   .     S
C2018  H2461   1.110   .     S
C2019  H2463   1.115   .     S
C2019  C2020   1.520   .     S
C2019  H2462   1.114   .     S
C2019  O2561   1.420   .     S
C2020  H2465   1.131   .     S
C2020  H2467   1.132   .     S
C2020  H2464   1.124   .     S
C2021  O2562   1.420   .     S
C2021  H2469   1.112   .     S
C2021  H2468   1.114   .     S
C2021  C2022   1.519   .     S
C2022  H2472   1.103   .     S
C2022  H2470   1.109   .     S
C2022  H2471   1.112   .     S
C2023  H2473   1.113   .     S
C2023  O2563   1.422   .     S
C2023  H2474   1.113   .     S
C2023  C2025   1.522   .     S
C2024  O2558   1.377   .     S
C2024  C2115   1.405   .     A
C2024  C820    1.412   1_565 S
C2025  H2191   1.110   .     S
C2025  H2476   1.111   .     S
C2025  H2475   1.102   .     S
C2026  H2193   1.113   .     S
C2026  C2027   1.520   .     S
C2026  H2192   1.113   .     S
C2026  O2564   1.421   .     S
C2027  H2196   1.103   .     S
C2027  H2194   1.110   .     S
C2027  H2195   1.114   .     S
C2028  C2029   1.523   .     S
C2028  H2198   1.113   .     S
C2028  O2565   1.422   .     S
C2028  H2197   1.114   .     S
C2029  H2200   1.113   .     S
C2029  H2202   1.112   .     S
C2029  H2199   1.109   .     S
C2030  H2204   1.111   .     S
C2030  O2566   1.424   .     S
C2030  C2031   1.517   .     S
C2030  H2203   1.111   .     S
C2031  H2206   1.118   .     S
C2031  H2205   1.109   .     S
C2031  H2207   1.109   .     S
C2032  O2567   1.420   .     S
C2032  H2208   1.113   .     S
C2032  C2033   1.518   .     S
C2032  H2209   1.115   .     S
C2033  H2213   1.114   .     S
C2033  H2210   1.106   .     S
C2034  H2215   1.115   .     S
C2034  C2036   1.511   .     S
C2034  H2214   1.115   .     S
C2034  O2568   1.422   .     S
C2035  O2480   1.377   .     S
C2036  H2218   1.115   .     S
C2036  H2216   1.105   .     S
C2036  H2217   1.118   .     S
C2037  H2219   1.121   .     S
C2037  O2569   1.419   .     S
C2037  C2038   1.494   .     S
C2037  H2220   1.107   .     S
C2038  H2221   1.112   .     S
C2038  H2224   1.105   .     S
C2038  H2222   1.116   .     S
C2039  O2570   1.418   .     S
C2039  H2226   1.116   .     S
C2039  C2040   1.505   .     S
C2039  H2225   1.110   .     S
C2040  H2227   1.106   .     S
C2040  H2229   1.110   .     S
C2040  H2228   1.112   .     S
C2041  H2230   1.115   .     S
C2041  C2042   1.516   .     S
C2041  H2231   1.113   .     S
C2041  O2572   1.420   .     S
C2042  H2233   1.114   .     S
C2042  H2232   1.110   .     S
C2042  H2235   1.104   .     S
C2043  O2573   1.414   .     S
C2043  H2236   1.112   .     S
C2043  C2044   1.500   .     S
C2043  H2237   1.115   .     S
C2044  H2238   1.099   .     S
C2044  H2240   1.107   .     S
C2044  H2239   1.111   .     S
C2045  H2241   1.116   .     S
C2045  C2047   1.511   .     S
C2045  H2242   1.112   .     S
C2045  O2574   1.415   .     S
C2046  O2481   1.391   .     S
C2046  C2068   1.415   .     A
C2047  H2243   1.114   .     S
C2047  H2244   1.100   .     S
C2047  H2246   1.119   .     S
C2048  O2575   1.420   .     S
C2048  H2248   1.116   .     S
C2048  C2049   1.500   .     S
C2048  H2247   1.113   .     S
C2049  H2249   1.099   .     S
C2049  H2251   1.108   .     S
C2049  H2250   1.113   .     S
C2050  O2576   1.423   .     S
C2050  H2252   1.125   .     S
C2050  C2051   1.528   .     S
C2050  H2253   1.122   .     S
C2051  H2257   1.117   .     S
C2051  H2254   1.121   .     S
C2051  H2255   1.117   .     S
C2052  H2258   1.111   .     S
C2052  H2259   1.110   .     S
C2052  C2053   1.530   .     S
C2052  O2577   1.422   .     S
C2053  H2262   1.107   .     S
C2053  H2261   1.111   .     S
C2053  H2260   1.111   .     S
C2054  H2263   1.113   .     S
C2054  C2055   1.524   .     S
C2054  O2578   1.422   .     S
C2054  H2264   1.113   .     S
C2055  H2268   1.110   .     S
C2055  H2266   1.111   .     S
C2055  H2265   1.105   .     S
C2056  H2269   1.116   .     S
C2056  H2270   1.106   .     S
C2056  C2058   1.525   .     S
C2056  O2579   1.422   .     S
C2057  C2112   1.401   .     A
C2057  O2482   1.382   .     S
C2058  H2272   1.105   .     S
C2058  H2273   1.111   .     S
C2058  H2271   1.107   .     S
C2059  O2580   1.421   .     S
C2059  H2274   1.112   .     S
C2059  H2275   1.114   .     S
C2059  C2060   1.524   .     S
C2060  H2279   1.110   .     S
C2060  H2276   1.103   .     S
C2060  H2277   1.111   .     S
C2061  O2581   1.421   .     S
C2061  C2062   1.520   .     S
C2061  H2280   1.112   .     S
C2061  H2281   1.113   .     S
C2062  H2284   1.104   .     S
C2062  H2282   1.109   .     S
C2062  H2283   1.113   .     S
C2063  C2064   1.521   .     S
C2063  H2286   1.114   .     S
C2063  O2583   1.421   .     S
C2063  H2285   1.113   .     S
C2064  H2288   1.110   .     S
C2064  H2290   1.109   .     S
C2064  H2287   1.107   .     S
C2065  O2584   1.426   .     S
C2065  H2291   1.109   .     S
C2065  H2292   1.109   .     S
C2065  C2066   1.516   .     S
C2066  H2294   1.114   .     S
C2066  H2295   1.104   .     S
C2066  H2293   1.112   .     S
C2067  C2070   1.521   .     S
C2067  O2585   1.421   .     S
C2067  H2297   1.113   .     S
C2067  H2296   1.113   .     S
C2068  O2543   1.377   .     S
C2069  O2483   1.394   .     S
C2069  C2123   1.412   .     A
C2070  H2298   1.110   .     S
C2070  H2299   1.112   .     S
C2070  H2302   1.108   .     S
C2071  C2072   1.502   .     S
C2071  O2586   1.418   .     S
C2071  H2303   1.112   .     S
C2071  H2304   1.113   .     S
C2072  H2305   1.086   .     S
C2072  H2307   1.106   .     S
C2072  H2306   1.110   .     S
C2073  O2587   1.422   .     S
C2073  H2308   1.120   .     S
C2073  H2309   1.105   .     S
C2073  C2074   1.500   .     S
C2074  H2313   1.106   .     S
C2074  H2311   1.114   .     S
C2074  H2310   1.110   .     S
C2075  H2315   1.116   .     S
C2075  C2076   1.501   .     S
C2075  O2588   1.418   .     S
C2075  H2314   1.109   .     S
C2076  H2317   1.113   .     S
C2076  H2316   1.105   .     S
C2076  H2318   1.112   .     S
C2077  O2589   1.420   .     S
C2077  H2320   1.111   .     S
C2077  H2319   1.114   .     S
C2077  C2078   1.513   .     S
C2078  H2324   1.098   .     S
C2078  H2322   1.113   .     S
C2078  H2321   1.109   .     S
C2079  O2590   1.417   .     S
C2079  C2081   1.500   .     S
C2079  H2326   1.116   .     S
C2079  H2325   1.111   .     S
C2080  O2484   1.375   .     S
C2080  C2134   1.397   .     A
C2080  C669    1.401   1_565 S
C2081  H2329   1.108   .     S
C2081  H2327   1.100   .     S
C2081  H2328   1.111   .     S
C2082  C2083   1.513   .     S
C2082  O2591   1.420   .     S
C2082  H2330   1.116   .     S
C2082  H2331   1.099   .     S
C2083  H2335   1.106   .     S
C2083  H2332   1.109   .     S
C2083  H2333   1.110   .     S
C2084  H2337   1.117   .     S
C2084  C2085   1.490   .     S
C2084  O2592   1.418   .     S
C2084  H2336   1.111   .     S
C2085  H2338   1.099   .     S
C2085  H2340   1.107   .     S
C2085  H2339   1.112   .     S
C2086  O2479   1.421   .     S
C2086  H2342   1.107   .     S
C2086  C2087   1.516   .     S
C2086  H2341   1.115   .     S
C2087  H2344   1.114   .     S
C2087  H2346   1.107   .     S
C2087  H2343   1.110   .     S
C2088  H2347   1.115   .     S
C2088  H2349   1.103   .     S
C2088  H2348   1.111   .     S
C2088  O1176   1.415   1_565 S
C2089  H2352   1.110   .     S
C2089  O2481   1.418   .     S
C2089  H2351   1.103   .     S
C2090  H2354   1.110   .     S
C2090  H2355   1.105   .     S
C2090  H2353   1.114   .     S
C2091  C2145   1.409   .     A
C2091  O2485   1.384   .     S
C2092  H2358   1.106   .     S
C2092  H2359   1.109   .     S
C2092  O2483   1.418   .     S
C2092  H1705   1.113   1_655 S
C2093  H2362   1.107   .     S
C2093  H2361   1.110   .     S
C2093  H2360   1.114   .     S
C2094  H2365   1.107   .     S
C2094  O2485   1.412   .     S
C2094  H2364   1.110   .     S
C2094  H1059   1.121   1_565 S
C2095  H2368   1.119   .     S
C2095  H2366   1.111   .     S
C2095  H2369   1.111   .     S
C2095  O2486   1.422   .     S
C2096  H2371   1.103   .     S
C2096  O2487   1.419   .     S
C2096  H2372   1.111   .     S
C2097  H2373   1.115   .     S
C2097  H2375   1.102   .     S
C2097  H2374   1.111   .     S
C2097  O2488   1.413   .     S
C2098  O2490   1.418   .     S
C2098  H2376   1.114   .     S
C2098  H2379   1.109   .     S
C2098  H2377   1.105   .     S
C2099  O2491   1.414   .     S
C2099  H2382   1.107   .     S
C2099  H2381   1.109   .     S
C2099  H2380   1.113   .     S
C2100  H2384   1.107   .     S
C2100  H2385   1.106   .     S
C2100  H2383   1.114   .     S
C2100  O2492   1.416   .     S
C2101  H2386   1.114   .     S
C2101  H2388   1.103   .     S
C2101  O2493   1.409   .     S
C2101  H2387   1.110   .     S
C2102  O2486   1.382   .     S
C2102  C1504   1.389   1_655 S
C2103  H2392   1.100   .     S
C2103  H2390   1.118   .     S
C2103  H2391   1.108   .     S
C2103  O2494   1.413   .     S
C2104  O2495   1.416   .     S
C2104  H2394   1.110   .     S
C2104  H2393   1.116   .     S
C2104  H2395   1.104   .     S
C2105  H2396   1.114   .     S
C2105  O2496   1.418   .     S
C2105  H2398   1.112   .     S
C2105  H2397   1.097   .     S
C2106  C2167   1.408   .     A
C2106  O2487   1.392   .     S
C2107  C2178   1.401   .     A
C2107  O2488   1.378   .     S
C2107  C1325   1.400   1_655 S
C2108  O2490   1.392   .     S
C2109  O2491   1.379   .     S
C2109  C675    1.401   1_565 S
C2110  O2492   1.394   .     S
C2111  O2493   1.373   .     S
C2112  C2118   1.434   .     A
C2112  O2544   1.383   .     S
C2113  O2494   1.384   .     S
C2113  C1326   1.407   1_655 S
C2114  O2495   1.380   .     S
C2115  O2496   1.391   .     S
C2115  C677    1.418   1_565 S
C2116  C813    1.498   1_554 S
C2117  C2145   1.415   .     A
C2117  C764    1.417   1_565 S
C2117  C812    1.498   1_566 S
C2118  C2119   1.506   1_554 S
C2118  C1504   1.431   1_655 S
C2119  C2123   1.426   .     A
C2119  C2118   1.506   1_556 S
C2119  C1515   1.419   1_655 S
C2120  C2121   1.501   .     S
C2122  C2124   1.508   .     S
C2123  O2545   1.380   .     S
C2125  O2582   1.292   .     A
C2126  O2478   1.289   .     A
C2126  C675    1.469   1_565 S
C2126  O1245   1.287   1_565 S
C2127  O2489   1.294   .     A
C2127  C1326   1.494   1_655 S
C2127  O1908   1.287   1_655 S
C2128  O2497   1.291   .     A
C2129  O1850   1.292   1_655 A
C2129  O1846   1.291   1_655 S
C2130  O1847   1.289   1_655 A
C2130  O1851   1.288   1_655 S
C2131  O2500   1.286   .     A
C2131  O2504   1.295   .     A
C2132  O2501   1.291   .     S
C2132  O2506   1.291   .     S
C2133  O2535   1.289   .     A
C2133  C2188   1.478   .     S
C2133  O2507   1.295   .     A
C2134  O2546   1.382   .     S
C2134  C812    1.425   1_565 S
C2135  O2536   1.301   .     A
C2135  O2508   1.288   .     A
C2136  O2509   1.294   .     A
C2136  O2533   1.286   .     A
C2137  O2534   1.289   .     A
C2137  O2510   1.291   .     A
C2138  O2540   1.289   .     A
C2138  O2511   1.293   .     A
C2139  O2512   1.288   .     A
C2139  O2541   1.295   .     A
C2140  O2537   1.285   .     A
C2140  O2513   1.303   .     A
C2140  C2186   1.467   .     S
C2141  O2539   1.303   .     A
C2141  O2514   1.293   .     A
C2141  C2187   1.481   .     S
C2142  O2526   1.293   .     A
C2142  O2515   1.286   .     A
C2143  O2517   1.289   .     A
C2143  O2528   1.289   .     A
C2144  O2524   1.298   .     A
C2144  O2518   1.284   .     A
C2145  O2547   1.380   .     S
C2146  O2525   1.294   .     A
C2146  O2519   1.292   .     A
C2147  O2520   1.287   .     A
C2147  O2531   1.302   .     A
C2148  O2521   1.299   .     A
C2148  O2532   1.296   .     A
C2149  O2529   1.296   .     A
C2149  O2522   1.286   .     A
C2150  O2523   1.292   .     A
C2150  O2530   1.288   .     A
C2151  C2168   1.402   .     A
C2151  O2559   1.398   .     S
C2152  C2166   1.394   .     A
C2152  O2561   1.397   .     S
C2153  O2562   1.400   .     S
C2153  C2165   1.402   .     A
C2154  O2563   1.400   .     S
C2154  C2164   1.396   .     A
C2155  C2163   1.397   .     A
C2155  O2564   1.402   .     S
C2156  O2548   1.382   .     S
C2157  O2565   1.401   .     S
C2157  C2162   1.395   .     A
C2158  O2566   1.404   .     S
C2158  C2161   1.398   .     A
C2159  O2567   1.399   .     S
C2159  C2160   1.396   .     A
C2160  O2568   1.380   .     S
C2161  O2569   1.374   .     S
C2162  O2570   1.381   .     S
C2163  O2572   1.383   .     S
C2164  O2573   1.377   .     S
C2165  O2574   1.376   .     S
C2165  C2188   1.429   .     A
C2166  C2187   1.425   .     A
C2166  O2575   1.374   .     S
C2167  O2550   1.378   .     S
C2168  C2186   1.429   .     A
C2168  O2576   1.386   .     S
C2169  C2185   1.402   .     A
C2169  C2187   1.423   .     A
C2169  O2577   1.403   .     S
C2170  C2186   1.402   .     A
C2170  O2578   1.399   .     S
C2170  C2184   1.392   .     A
C2171  C2183   1.404   .     A
C2171  O2579   1.406   .     S
C2172  O2580   1.399   .     S
C2172  C2182   1.398   .     A
C2172  C2188   1.410   .     A
C2173  O2581   1.403   .     S
C2173  C2181   1.398   .     A
C2174  C2180   1.396   .     A
C2174  O2583   1.400   .     S
C2175  C2179   1.402   .     A
C2175  O2584   1.411   .     S
C2176  O2585   1.398   .     S
C2176  C2177   1.398   .     A
C2177  O2586   1.378   .     S
C2178  O2551   1.380   .     S
C2178  C1468   1.426   1_655 S
C2179  O2587   1.378   .     S
C2180  O2588   1.380   .     S
C2181  O2589   1.383   .     S
C2182  O2590   1.377   .     S
C2183  O2591   1.392   .     S
C2184  O2592   1.368   .     S
C2185  O2479   1.384   .     S
H2189  C1982   1.111   1_556 S
H2190  C1985   1.113   1_554 S
H2201  C1986   1.110   1_556 S
H2211  C1381   1.120   1_655 S
H2223  C1987   1.111   1_554 S
H2256  C1988   1.112   1_554 S
H2278  C1989   1.110   1_556 S
H2312  C1990   1.111   1_556 S
H2334  C1992   1.110   1_554 S
H2350  C785    1.114   1_565 S
H2367  C1993   1.113   1_554 S
H2370  C1444   1.114   1_655 S
H2389  C1994   1.111   1_556 S
H2400  C1983   1.111   1_554 S
H2402  C1995   1.111   1_556 S
H2404  C1996   1.110   1_554 S
H2407  C1997   1.113   1_554 S
H2410  C1998   1.108   1_554 S
H2412  C1998   1.113   1_554 S
H2433  C1984   1.113   1_554 S
H2466  C1985   1.110   1_554 S
O2477  Zn2593  1.968   .     S
O2477  Zn2596  1.958   .     S
O2477  Zn2604  1.956   .     S
O2478  Zn2595  1.969   .     S
O2482  C1438   1.414   1_655 S
O2484  C789    1.412   1_565 S
O2489  Zn2598  1.970   .     S
O2497  Zn2597  1.970   .     S
O2498  Zn2607  1.965   .     S
O2499  Zn2606  1.965   .     S
O2500  Zn2601  1.964   .     S
O2501  Zn2593  1.964   .     S
O2502  Zn2603  1.969   .     S
O2503  Zn2602  1.969   .     S
O2504  Zn2605  1.970   .     S
O2505  Zn2601  1.968   .     S
O2505  Zn2605  1.956   .     S
O2505  Zn2599  1.966   .     S
O2506  Zn2604  1.970   .     S
O2507  Zn2596  1.956   .     S
O2508  Zn2595  1.956   .     S
O2509  Zn2598  1.942   .     S
O2510  Zn2597  1.942   .     S
O2511  Zn2600  1.951   .     S
O2512  Zn2599  1.951   .     S
O2513  Zn2594  1.942   .     S
O2514  Zn2608  1.942   .     S
O2515  Zn2595  1.942   .     S
O2516  Zn2594  1.968   .     S
O2516  Zn2602  1.958   .     S
O2516  Zn2606  1.966   .     S
O2517  Zn2596  1.942   .     S
O2518  Zn2608  1.951   .     S
O2519  Zn2594  1.951   .     S
O2520  Zn2599  1.943   .     S
O2521  Zn2600  1.943   .     S
O2522  Zn2597  1.956   .     S
O2523  Zn2598  1.956   .     S
O2524  Zn1951  1.956   1_655 S
O2525  Zn2602  1.956   .     S
O2526  Zn1301  1.942   1_565 S
O2527  Zn2607  1.966   .     S
O2527  Zn2603  1.958   .     S
O2527  Zn2597  1.956   .     S
O2528  Zn2604  1.942   .     S
O2529  Zn2607  1.951   .     S
O2530  Zn1954  1.951   1_655 S
O2531  Zn2601  1.942   .     S
O2532  Zn1289  1.942   1_565 S
O2533  Zn1950  1.942   1_655 S
O2534  Zn2603  1.942   .     S
O2535  Zn2593  1.951   .     S
O2536  Zn1297  1.951   1_565 S
O2537  Zn2606  1.943   .     S
O2538  Zn2600  1.965   .     S
O2538  C821    1.294   1_565 S
O2539  Zn1955  1.943   1_655 S
O2540  Zn1300  1.956   1_565 S
O2541  Zn2605  1.956   .     S
O2549  Zn2599  1.965   .     S
O2560  Zn2594  1.964   .     S
O2571  Zn2608  1.964   .     S
O2571  C1476   1.288   1_655 S
O2582  Zn2596  1.969   .     S
Zn2595 O1201   1.958   1_565 S
Zn2598 O1864   1.956   1_655 S
Zn2600 O1173   1.966   1_565 S
Zn2608 O1875   1.968   1_655 S
