data_str_m3_o2_o10_pcu_sym.100
_audit_creation_date              2020-01-03
_audit_creation_method            'Materials Studio'
_symmetry_space_group_name_H-M    'P1'
_symmetry_Int_Tables_number       1
_symmetry_cell_setting            triclinic
loop_
_symmetry_equiv_pos_as_xyz
  x,y,z
_cell_length_a                    25.7495
_cell_length_b                    29.5282
_cell_length_c                    28.4709
_cell_angle_alpha                 91.4207
_cell_angle_beta                  99.3261
_cell_angle_gamma                 90.6353
loop_
_atom_site_label
_atom_site_type_symbol
_atom_site_fract_x
_atom_site_fract_y
_atom_site_fract_z
_atom_site_U_iso_or_equiv
_atom_site_adp_type
_atom_site_occupancy
O1     O     0.16667   0.18453   0.28974   0.00000  Uiso   1.00
O2     O     0.16666   0.31546   0.21026   0.00000  Uiso   1.00
O3     O     0.16667   0.18453   0.21026   0.00000  Uiso   1.00
O4     O     0.16666   0.31547   0.28974   0.00000  Uiso   1.00
C5     C     0.16650   0.16357   0.24941   0.00000  Uiso   1.00
C6     C     0.16527   0.33665   0.25034   0.00000  Uiso   1.00
O7     O     0.09058   0.25000   0.28045   0.00000  Uiso   1.00
O8     O     0.24275   0.25000   0.21956   0.00000  Uiso   1.00
O9     O     0.09058   0.24999   0.20097   0.00000  Uiso   1.00
O10    O     0.24275   0.25000   0.29904   0.00000  Uiso   1.00
C11    C     0.06698   0.24987   0.23742   0.00000  Uiso   1.00
C12    C     0.26635   0.25001   0.26258   0.00000  Uiso   1.00
Zn13   Zn    0.16667   0.25000   0.30307   0.00000  Uiso   1.00
Zn14   Zn    0.16667   0.24999   0.19693   0.00000  Uiso   1.00
C15    C     0.01177   0.24975   0.23077   0.00000  Uiso   1.00
C16    C     0.32155   0.24996   0.26924   0.00000  Uiso   1.00
H17    H     0.32404   0.24955   0.19441   0.00000  Uiso   1.00
H18    H     0.00928   0.25016   0.30560   0.00000  Uiso   1.00
C19    C     0.10144   0.05319   0.26424   0.00000  Uiso   1.00
C20    C     0.11159   0.44652   0.20282   0.00000  Uiso   1.00
C21    C     0.11604   0.09879   0.26856   0.00000  Uiso   1.00
C22    C     0.12496   0.40110   0.20689   0.00000  Uiso   1.00
H23    H     0.09474   0.12181   0.28852   0.00000  Uiso   1.00
H24    H     0.11257   0.37818   0.17675   0.00000  Uiso   1.00
C25    C     0.15698   0.11533   0.24648   0.00000  Uiso   1.00
C26    C     0.15363   0.38485   0.24925   0.00000  Uiso   1.00
C27    C     0.18371   0.08647   0.21864   0.00000  Uiso   1.00
C28    C     0.16760   0.41428   0.28931   0.00000  Uiso   1.00
C29    C     0.16858   0.04111   0.21374   0.00000  Uiso   1.00
C30    C     0.15368   0.45952   0.28529   0.00000  Uiso   1.00
H31    H     0.19036   0.01798   0.19429   0.00000  Uiso   1.00
H32    H     0.16643   0.48315   0.31480   0.00000  Uiso   1.00
C33    C     0.12899   0.02433   0.23724   0.00000  Uiso   1.00
C34    C     0.12738   0.47575   0.24232   0.00000  Uiso   1.00
C35    C     0.13837   0.21815   0.04676   0.00000  Uiso   1.00
C36    C     0.20564   0.27136   0.45475   0.00000  Uiso   1.00
H37    H     0.11888   0.19081   0.02436   0.00000  Uiso   1.00
H38    H     0.23887   0.28571   0.47891   0.00000  Uiso   1.00
C39    C     0.13992   0.21692   0.09643   0.00000  Uiso   1.00
C40    C     0.20703   0.27011   0.40548   0.00000  Uiso   1.00
N41    N     0.16667   0.24999   0.12624   0.00000  Uiso   1.00
N42    N     0.16667   0.25001   0.37377   0.00000  Uiso   1.00
C43    C     0.19096   0.28468   0.10709   0.00000  Uiso   1.00
C44    C     0.12452   0.23188   0.39064   0.00000  Uiso   1.00
H45    H     0.21132   0.31103   0.13031   0.00000  Uiso   1.00
H46    H     0.09247   0.21647   0.36597   0.00000  Uiso   1.00
C47    C     0.18945   0.28707   0.05746   0.00000  Uiso   1.00
C48    C     0.12174   0.23325   0.43977   0.00000  Uiso   1.00
H49    H     0.20854   0.31559   0.04386   0.00000  Uiso   1.00
H50    H     0.08715   0.21913   0.45138   0.00000  Uiso   1.00
C51    C     0.16304   0.25325   0.02620   0.00000  Uiso   1.00
C52    C     0.16293   0.25309   0.47297   0.00000  Uiso   1.00
N53    N     0.05956   0.03669   0.28760   0.00000  Uiso   1.00
O54    O     0.03228   0.00064   0.27139   0.00000  Uiso   1.00
O55    O     0.04550   0.05979   0.32288   0.00000  Uiso   1.00
N56    N     0.08326   0.46251   0.15859   0.00000  Uiso   1.00
O57    O     0.05430   0.49841   0.15792   0.00000  Uiso   1.00
O58    O     0.08293   0.43924   0.11911   0.00000  Uiso   1.00
C59    C     0.23013   0.10153   0.19631   0.00000  Uiso   1.00
H60    H     0.24459   0.13612   0.20802   0.00000  Uiso   1.00
H61    H     0.26354   0.07837   0.20656   0.00000  Uiso   1.00
H62    H     0.21920   0.10030   0.15695   0.00000  Uiso   1.00
C63    C     0.20004   0.39955   0.33513   0.00000  Uiso   1.00
H64    H     0.17726   0.37517   0.35311   0.00000  Uiso   1.00
H65    H     0.23696   0.38412   0.32745   0.00000  Uiso   1.00
H66    H     0.21130   0.42856   0.36046   0.00000  Uiso   1.00
C67    C     0.11230   0.17796   0.11533   0.00000  Uiso   1.00
H68    H     0.08798   0.18981   0.14161   0.00000  Uiso   1.00
H69    H     0.08514   0.15975   0.08654   0.00000  Uiso   1.00
H70    H     0.14161   0.15306   0.13088   0.00000  Uiso   1.00
C71    C     0.25439   0.29068   0.38934   0.00000  Uiso   1.00
H72    H     0.24250   0.31135   0.35781   0.00000  Uiso   1.00
H73    H     0.27660   0.31366   0.41720   0.00000  Uiso   1.00
H74    H     0.28152   0.26350   0.38185   0.00000  Uiso   1.00
O75    O     0.50000   0.18453   0.28974   0.00000  Uiso   1.00
O76    O     0.50000   0.31546   0.21026   0.00000  Uiso   1.00
O77    O     0.50000   0.18453   0.21026   0.00000  Uiso   1.00
O78    O     0.50000   0.31547   0.28974   0.00000  Uiso   1.00
C79    C     0.49983   0.16357   0.24941   0.00000  Uiso   1.00
C80    C     0.49860   0.33665   0.25034   0.00000  Uiso   1.00
O81    O     0.42392   0.25000   0.28045   0.00000  Uiso   1.00
O82    O     0.57608   0.25000   0.21956   0.00000  Uiso   1.00
O83    O     0.42392   0.24999   0.20097   0.00000  Uiso   1.00
O84    O     0.57608   0.25000   0.29904   0.00000  Uiso   1.00
C85    C     0.40031   0.24987   0.23742   0.00000  Uiso   1.00
C86    C     0.59968   0.25001   0.26258   0.00000  Uiso   1.00
Zn87   Zn    0.50000   0.25000   0.30307   0.00000  Uiso   1.00
Zn88   Zn    0.50000   0.24999   0.19693   0.00000  Uiso   1.00
C89    C     0.34511   0.24975   0.23077   0.00000  Uiso   1.00
C90    C     0.65488   0.24996   0.26924   0.00000  Uiso   1.00
H91    H     0.65737   0.24955   0.19441   0.00000  Uiso   1.00
H92    H     0.34261   0.25016   0.30560   0.00000  Uiso   1.00
C93    C     0.43477   0.05319   0.26424   0.00000  Uiso   1.00
C94    C     0.44493   0.44652   0.20282   0.00000  Uiso   1.00
C95    C     0.44937   0.09879   0.26856   0.00000  Uiso   1.00
C96    C     0.45830   0.40110   0.20689   0.00000  Uiso   1.00
H97    H     0.42808   0.12181   0.28852   0.00000  Uiso   1.00
H98    H     0.44591   0.37818   0.17675   0.00000  Uiso   1.00
C99    C     0.49032   0.11533   0.24648   0.00000  Uiso   1.00
C100   C     0.48697   0.38485   0.24925   0.00000  Uiso   1.00
C101   C     0.51704   0.08647   0.21864   0.00000  Uiso   1.00
C102   C     0.50093   0.41428   0.28931   0.00000  Uiso   1.00
C103   C     0.50191   0.04111   0.21374   0.00000  Uiso   1.00
C104   C     0.48701   0.45952   0.28529   0.00000  Uiso   1.00
H105   H     0.52369   0.01798   0.19429   0.00000  Uiso   1.00
H106   H     0.49976   0.48315   0.31480   0.00000  Uiso   1.00
C107   C     0.46233   0.02433   0.23724   0.00000  Uiso   1.00
C108   C     0.46072   0.47575   0.24232   0.00000  Uiso   1.00
C109   C     0.47170   0.21815   0.04676   0.00000  Uiso   1.00
C110   C     0.53897   0.27136   0.45475   0.00000  Uiso   1.00
H111   H     0.45221   0.19081   0.02436   0.00000  Uiso   1.00
H112   H     0.57220   0.28571   0.47891   0.00000  Uiso   1.00
C113   C     0.47325   0.21692   0.09643   0.00000  Uiso   1.00
C114   C     0.54036   0.27011   0.40548   0.00000  Uiso   1.00
N115   N     0.50000   0.24999   0.12624   0.00000  Uiso   1.00
N116   N     0.50000   0.25001   0.37377   0.00000  Uiso   1.00
C117   C     0.52429   0.28468   0.10709   0.00000  Uiso   1.00
C118   C     0.45785   0.23188   0.39064   0.00000  Uiso   1.00
H119   H     0.54465   0.31103   0.13031   0.00000  Uiso   1.00
H120   H     0.42580   0.21647   0.36597   0.00000  Uiso   1.00
C121   C     0.52278   0.28707   0.05746   0.00000  Uiso   1.00
C122   C     0.45507   0.23325   0.43977   0.00000  Uiso   1.00
H123   H     0.54188   0.31559   0.04386   0.00000  Uiso   1.00
H124   H     0.42048   0.21913   0.45138   0.00000  Uiso   1.00
C125   C     0.49638   0.25325   0.02620   0.00000  Uiso   1.00
C126   C     0.49626   0.25309   0.47297   0.00000  Uiso   1.00
N127   N     0.39289   0.03669   0.28760   0.00000  Uiso   1.00
O128   O     0.36562   0.00064   0.27139   0.00000  Uiso   1.00
O129   O     0.37883   0.05979   0.32288   0.00000  Uiso   1.00
N130   N     0.41659   0.46251   0.15859   0.00000  Uiso   1.00
O131   O     0.38764   0.49841   0.15792   0.00000  Uiso   1.00
O132   O     0.41626   0.43924   0.11911   0.00000  Uiso   1.00
C133   C     0.56347   0.10153   0.19631   0.00000  Uiso   1.00
H134   H     0.57792   0.13612   0.20802   0.00000  Uiso   1.00
H135   H     0.59688   0.07837   0.20656   0.00000  Uiso   1.00
H136   H     0.55254   0.10030   0.15695   0.00000  Uiso   1.00
C137   C     0.53337   0.39955   0.33513   0.00000  Uiso   1.00
H138   H     0.51059   0.37517   0.35311   0.00000  Uiso   1.00
H139   H     0.57029   0.38412   0.32745   0.00000  Uiso   1.00
H140   H     0.54464   0.42856   0.36046   0.00000  Uiso   1.00
C141   C     0.44564   0.17796   0.11533   0.00000  Uiso   1.00
H142   H     0.42131   0.18981   0.14161   0.00000  Uiso   1.00
H143   H     0.41848   0.15975   0.08654   0.00000  Uiso   1.00
H144   H     0.47494   0.15306   0.13088   0.00000  Uiso   1.00
C145   C     0.58772   0.29068   0.38934   0.00000  Uiso   1.00
H146   H     0.57583   0.31135   0.35781   0.00000  Uiso   1.00
H147   H     0.60994   0.31366   0.41720   0.00000  Uiso   1.00
H148   H     0.61485   0.26350   0.38185   0.00000  Uiso   1.00
O149   O     0.83334   0.18453   0.28974   0.00000  Uiso   1.00
O150   O     0.83333   0.31546   0.21026   0.00000  Uiso   1.00
O151   O     0.83334   0.18453   0.21026   0.00000  Uiso   1.00
O152   O     0.83333   0.31547   0.28974   0.00000  Uiso   1.00
C153   C     0.83316   0.16357   0.24941   0.00000  Uiso   1.00
C154   C     0.83194   0.33665   0.25034   0.00000  Uiso   1.00
O155   O     0.75725   0.25000   0.28045   0.00000  Uiso   1.00
O156   O     0.90942   0.25000   0.21956   0.00000  Uiso   1.00
O157   O     0.75725   0.24999   0.20097   0.00000  Uiso   1.00
O158   O     0.90942   0.25000   0.29904   0.00000  Uiso   1.00
C159   C     0.73365   0.24987   0.23742   0.00000  Uiso   1.00
C160   C     0.93302   0.25001   0.26258   0.00000  Uiso   1.00
Zn161  Zn    0.83333   0.25000   0.30307   0.00000  Uiso   1.00
Zn162  Zn    0.83333   0.24999   0.19693   0.00000  Uiso   1.00
C163   C     0.67844   0.24975   0.23077   0.00000  Uiso   1.00
C164   C     0.98822   0.24996   0.26924   0.00000  Uiso   1.00
H165   H     0.99070   0.24955   0.19441   0.00000  Uiso   1.00
H166   H     0.67594   0.25016   0.30560   0.00000  Uiso   1.00
C167   C     0.76810   0.05319   0.26424   0.00000  Uiso   1.00
C168   C     0.77826   0.44652   0.20282   0.00000  Uiso   1.00
C169   C     0.78270   0.09879   0.26856   0.00000  Uiso   1.00
C170   C     0.79163   0.40110   0.20689   0.00000  Uiso   1.00
H171   H     0.76141   0.12181   0.28852   0.00000  Uiso   1.00
H172   H     0.77924   0.37818   0.17675   0.00000  Uiso   1.00
C173   C     0.82365   0.11533   0.24648   0.00000  Uiso   1.00
C174   C     0.82030   0.38485   0.24925   0.00000  Uiso   1.00
C175   C     0.85037   0.08647   0.21864   0.00000  Uiso   1.00
C176   C     0.83427   0.41428   0.28931   0.00000  Uiso   1.00
C177   C     0.83525   0.04111   0.21374   0.00000  Uiso   1.00
C178   C     0.82034   0.45952   0.28529   0.00000  Uiso   1.00
H179   H     0.85703   0.01798   0.19429   0.00000  Uiso   1.00
H180   H     0.83310   0.48315   0.31480   0.00000  Uiso   1.00
C181   C     0.79566   0.02433   0.23724   0.00000  Uiso   1.00
C182   C     0.79405   0.47575   0.24232   0.00000  Uiso   1.00
C183   C     0.80503   0.21815   0.04676   0.00000  Uiso   1.00
C184   C     0.87230   0.27136   0.45475   0.00000  Uiso   1.00
H185   H     0.78555   0.19081   0.02436   0.00000  Uiso   1.00
H186   H     0.90554   0.28571   0.47891   0.00000  Uiso   1.00
C187   C     0.80658   0.21692   0.09643   0.00000  Uiso   1.00
C188   C     0.87370   0.27011   0.40548   0.00000  Uiso   1.00
N189   N     0.83333   0.24999   0.12624   0.00000  Uiso   1.00
N190   N     0.83333   0.25001   0.37377   0.00000  Uiso   1.00
C191   C     0.85762   0.28468   0.10709   0.00000  Uiso   1.00
C192   C     0.79118   0.23188   0.39064   0.00000  Uiso   1.00
H193   H     0.87798   0.31103   0.13031   0.00000  Uiso   1.00
H194   H     0.75914   0.21647   0.36597   0.00000  Uiso   1.00
C195   C     0.85612   0.28707   0.05746   0.00000  Uiso   1.00
C196   C     0.78840   0.23325   0.43977   0.00000  Uiso   1.00
H197   H     0.87521   0.31559   0.04386   0.00000  Uiso   1.00
H198   H     0.75382   0.21913   0.45138   0.00000  Uiso   1.00
C199   C     0.82971   0.25325   0.02620   0.00000  Uiso   1.00
C200   C     0.82959   0.25309   0.47297   0.00000  Uiso   1.00
N201   N     0.72623   0.03669   0.28760   0.00000  Uiso   1.00
O202   O     0.69895   0.00064   0.27139   0.00000  Uiso   1.00
O203   O     0.71216   0.05979   0.32288   0.00000  Uiso   1.00
N204   N     0.74992   0.46251   0.15859   0.00000  Uiso   1.00
O205   O     0.72097   0.49841   0.15792   0.00000  Uiso   1.00
O206   O     0.74960   0.43924   0.11911   0.00000  Uiso   1.00
C207   C     0.89680   0.10153   0.19631   0.00000  Uiso   1.00
H208   H     0.91125   0.13612   0.20802   0.00000  Uiso   1.00
H209   H     0.93021   0.07837   0.20656   0.00000  Uiso   1.00
H210   H     0.88587   0.10030   0.15695   0.00000  Uiso   1.00
C211   C     0.86671   0.39955   0.33513   0.00000  Uiso   1.00
H212   H     0.84392   0.37517   0.35311   0.00000  Uiso   1.00
H213   H     0.90362   0.38412   0.32745   0.00000  Uiso   1.00
H214   H     0.87797   0.42856   0.36046   0.00000  Uiso   1.00
C215   C     0.77897   0.17796   0.11533   0.00000  Uiso   1.00
H216   H     0.75464   0.18981   0.14161   0.00000  Uiso   1.00
H217   H     0.75181   0.15975   0.08654   0.00000  Uiso   1.00
H218   H     0.80827   0.15306   0.13088   0.00000  Uiso   1.00
C219   C     0.92105   0.29068   0.38934   0.00000  Uiso   1.00
H220   H     0.90916   0.31135   0.35781   0.00000  Uiso   1.00
H221   H     0.94327   0.31366   0.41720   0.00000  Uiso   1.00
H222   H     0.94818   0.26350   0.38185   0.00000  Uiso   1.00
O223   O     0.16667   0.68453   0.28974   0.00000  Uiso   1.00
O224   O     0.16666   0.81546   0.21026   0.00000  Uiso   1.00
O225   O     0.16667   0.68453   0.21026   0.00000  Uiso   1.00
O226   O     0.16666   0.81547   0.28974   0.00000  Uiso   1.00
C227   C     0.16650   0.66357   0.24941   0.00000  Uiso   1.00
C228   C     0.16527   0.83665   0.25034   0.00000  Uiso   1.00
O229   O     0.09058   0.75000   0.28045   0.00000  Uiso   1.00
O230   O     0.24275   0.75000   0.21956   0.00000  Uiso   1.00
O231   O     0.09058   0.74999   0.20097   0.00000  Uiso   1.00
O232   O     0.24275   0.75000   0.29904   0.00000  Uiso   1.00
C233   C     0.06698   0.74987   0.23742   0.00000  Uiso   1.00
C234   C     0.26635   0.75001   0.26258   0.00000  Uiso   1.00
Zn235  Zn    0.16667   0.75000   0.30307   0.00000  Uiso   1.00
Zn236  Zn    0.16667   0.74999   0.19693   0.00000  Uiso   1.00
C237   C     0.01177   0.74975   0.23077   0.00000  Uiso   1.00
C238   C     0.32155   0.74996   0.26924   0.00000  Uiso   1.00
H239   H     0.32404   0.74955   0.19441   0.00000  Uiso   1.00
H240   H     0.00928   0.75016   0.30560   0.00000  Uiso   1.00
C241   C     0.10144   0.55319   0.26424   0.00000  Uiso   1.00
C242   C     0.11159   0.94652   0.20282   0.00000  Uiso   1.00
C243   C     0.11604   0.59879   0.26856   0.00000  Uiso   1.00
C244   C     0.12496   0.90110   0.20689   0.00000  Uiso   1.00
H245   H     0.09474   0.62181   0.28852   0.00000  Uiso   1.00
H246   H     0.11257   0.87818   0.17675   0.00000  Uiso   1.00
C247   C     0.15698   0.61533   0.24648   0.00000  Uiso   1.00
C248   C     0.15363   0.88485   0.24925   0.00000  Uiso   1.00
C249   C     0.18371   0.58647   0.21864   0.00000  Uiso   1.00
C250   C     0.16760   0.91428   0.28931   0.00000  Uiso   1.00
C251   C     0.16858   0.54111   0.21374   0.00000  Uiso   1.00
C252   C     0.15368   0.95952   0.28529   0.00000  Uiso   1.00
H253   H     0.19036   0.51798   0.19429   0.00000  Uiso   1.00
H254   H     0.16643   0.98315   0.31480   0.00000  Uiso   1.00
C255   C     0.12899   0.52433   0.23724   0.00000  Uiso   1.00
C256   C     0.12738   0.97575   0.24232   0.00000  Uiso   1.00
C257   C     0.13837   0.71815   0.04676   0.00000  Uiso   1.00
C258   C     0.20564   0.77136   0.45475   0.00000  Uiso   1.00
H259   H     0.11888   0.69081   0.02436   0.00000  Uiso   1.00
H260   H     0.23887   0.78571   0.47891   0.00000  Uiso   1.00
C261   C     0.13992   0.71692   0.09643   0.00000  Uiso   1.00
C262   C     0.20703   0.77011   0.40548   0.00000  Uiso   1.00
N263   N     0.16667   0.74999   0.12624   0.00000  Uiso   1.00
N264   N     0.16667   0.75001   0.37377   0.00000  Uiso   1.00
C265   C     0.19096   0.78468   0.10709   0.00000  Uiso   1.00
C266   C     0.12452   0.73188   0.39064   0.00000  Uiso   1.00
H267   H     0.21132   0.81103   0.13031   0.00000  Uiso   1.00
H268   H     0.09247   0.71647   0.36597   0.00000  Uiso   1.00
C269   C     0.18945   0.78707   0.05746   0.00000  Uiso   1.00
C270   C     0.12174   0.73325   0.43977   0.00000  Uiso   1.00
H271   H     0.20854   0.81559   0.04386   0.00000  Uiso   1.00
H272   H     0.08715   0.71913   0.45138   0.00000  Uiso   1.00
C273   C     0.16304   0.75325   0.02620   0.00000  Uiso   1.00
C274   C     0.16293   0.75309   0.47297   0.00000  Uiso   1.00
N275   N     0.05956   0.53669   0.28760   0.00000  Uiso   1.00
O276   O     0.03228   0.50064   0.27139   0.00000  Uiso   1.00
O277   O     0.04550   0.55979   0.32288   0.00000  Uiso   1.00
N278   N     0.08326   0.96251   0.15859   0.00000  Uiso   1.00
O279   O     0.05430   0.99841   0.15792   0.00000  Uiso   1.00
O280   O     0.08293   0.93924   0.11911   0.00000  Uiso   1.00
C281   C     0.23013   0.60153   0.19631   0.00000  Uiso   1.00
H282   H     0.24459   0.63612   0.20802   0.00000  Uiso   1.00
H283   H     0.26354   0.57837   0.20656   0.00000  Uiso   1.00
H284   H     0.21920   0.60030   0.15695   0.00000  Uiso   1.00
C285   C     0.20004   0.89955   0.33513   0.00000  Uiso   1.00
H286   H     0.17726   0.87517   0.35311   0.00000  Uiso   1.00
H287   H     0.23696   0.88412   0.32745   0.00000  Uiso   1.00
H288   H     0.21130   0.92856   0.36046   0.00000  Uiso   1.00
C289   C     0.11230   0.67796   0.11533   0.00000  Uiso   1.00
H290   H     0.08798   0.68981   0.14161   0.00000  Uiso   1.00
H291   H     0.08514   0.65975   0.08654   0.00000  Uiso   1.00
H292   H     0.14161   0.65306   0.13088   0.00000  Uiso   1.00
C293   C     0.25439   0.79068   0.38934   0.00000  Uiso   1.00
H294   H     0.24250   0.81135   0.35781   0.00000  Uiso   1.00
H295   H     0.27660   0.81366   0.41720   0.00000  Uiso   1.00
H296   H     0.28152   0.76350   0.38185   0.00000  Uiso   1.00
O297   O     0.50000   0.68453   0.28974   0.00000  Uiso   1.00
O298   O     0.50000   0.81546   0.21026   0.00000  Uiso   1.00
O299   O     0.50000   0.68453   0.21026   0.00000  Uiso   1.00
O300   O     0.50000   0.81547   0.28974   0.00000  Uiso   1.00
C301   C     0.49983   0.66357   0.24941   0.00000  Uiso   1.00
C302   C     0.49860   0.83665   0.25034   0.00000  Uiso   1.00
O303   O     0.42392   0.75000   0.28045   0.00000  Uiso   1.00
O304   O     0.57608   0.75000   0.21956   0.00000  Uiso   1.00
O305   O     0.42392   0.74999   0.20097   0.00000  Uiso   1.00
O306   O     0.57608   0.75000   0.29904   0.00000  Uiso   1.00
C307   C     0.40031   0.74987   0.23742   0.00000  Uiso   1.00
C308   C     0.59968   0.75001   0.26258   0.00000  Uiso   1.00
Zn309  Zn    0.50000   0.75000   0.30307   0.00000  Uiso   1.00
Zn310  Zn    0.50000   0.74999   0.19693   0.00000  Uiso   1.00
C311   C     0.34511   0.74975   0.23077   0.00000  Uiso   1.00
C312   C     0.65488   0.74996   0.26924   0.00000  Uiso   1.00
H313   H     0.65737   0.74955   0.19441   0.00000  Uiso   1.00
H314   H     0.34261   0.75016   0.30560   0.00000  Uiso   1.00
C315   C     0.43477   0.55319   0.26424   0.00000  Uiso   1.00
C316   C     0.44493   0.94652   0.20282   0.00000  Uiso   1.00
C317   C     0.44937   0.59879   0.26856   0.00000  Uiso   1.00
C318   C     0.45830   0.90110   0.20689   0.00000  Uiso   1.00
H319   H     0.42808   0.62181   0.28852   0.00000  Uiso   1.00
H320   H     0.44591   0.87818   0.17675   0.00000  Uiso   1.00
C321   C     0.49032   0.61533   0.24648   0.00000  Uiso   1.00
C322   C     0.48697   0.88485   0.24925   0.00000  Uiso   1.00
C323   C     0.51704   0.58647   0.21864   0.00000  Uiso   1.00
C324   C     0.50093   0.91428   0.28931   0.00000  Uiso   1.00
C325   C     0.50191   0.54111   0.21374   0.00000  Uiso   1.00
C326   C     0.48701   0.95952   0.28529   0.00000  Uiso   1.00
H327   H     0.52369   0.51798   0.19429   0.00000  Uiso   1.00
H328   H     0.49976   0.98315   0.31480   0.00000  Uiso   1.00
C329   C     0.46233   0.52433   0.23724   0.00000  Uiso   1.00
C330   C     0.46072   0.97575   0.24232   0.00000  Uiso   1.00
C331   C     0.47170   0.71815   0.04676   0.00000  Uiso   1.00
C332   C     0.53897   0.77136   0.45475   0.00000  Uiso   1.00
H333   H     0.45221   0.69081   0.02436   0.00000  Uiso   1.00
H334   H     0.57220   0.78571   0.47891   0.00000  Uiso   1.00
C335   C     0.47325   0.71692   0.09643   0.00000  Uiso   1.00
C336   C     0.54036   0.77011   0.40548   0.00000  Uiso   1.00
N337   N     0.50000   0.74999   0.12624   0.00000  Uiso   1.00
N338   N     0.50000   0.75001   0.37377   0.00000  Uiso   1.00
C339   C     0.52429   0.78468   0.10709   0.00000  Uiso   1.00
C340   C     0.45785   0.73188   0.39064   0.00000  Uiso   1.00
H341   H     0.54465   0.81103   0.13031   0.00000  Uiso   1.00
H342   H     0.42580   0.71647   0.36597   0.00000  Uiso   1.00
C343   C     0.52278   0.78707   0.05746   0.00000  Uiso   1.00
C344   C     0.45507   0.73325   0.43977   0.00000  Uiso   1.00
H345   H     0.54188   0.81559   0.04386   0.00000  Uiso   1.00
H346   H     0.42048   0.71913   0.45138   0.00000  Uiso   1.00
C347   C     0.49638   0.75325   0.02620   0.00000  Uiso   1.00
C348   C     0.49626   0.75309   0.47297   0.00000  Uiso   1.00
N349   N     0.39289   0.53669   0.28760   0.00000  Uiso   1.00
O350   O     0.36562   0.50064   0.27139   0.00000  Uiso   1.00
O351   O     0.37883   0.55979   0.32288   0.00000  Uiso   1.00
N352   N     0.41659   0.96251   0.15859   0.00000  Uiso   1.00
O353   O     0.38764   0.99841   0.15792   0.00000  Uiso   1.00
O354   O     0.41626   0.93924   0.11911   0.00000  Uiso   1.00
C355   C     0.56347   0.60153   0.19631   0.00000  Uiso   1.00
H356   H     0.57792   0.63612   0.20802   0.00000  Uiso   1.00
H357   H     0.59688   0.57837   0.20656   0.00000  Uiso   1.00
H358   H     0.55254   0.60030   0.15695   0.00000  Uiso   1.00
C359   C     0.53337   0.89955   0.33513   0.00000  Uiso   1.00
H360   H     0.51059   0.87517   0.35311   0.00000  Uiso   1.00
H361   H     0.57029   0.88412   0.32745   0.00000  Uiso   1.00
H362   H     0.54464   0.92856   0.36046   0.00000  Uiso   1.00
C363   C     0.44564   0.67796   0.11533   0.00000  Uiso   1.00
H364   H     0.42131   0.68981   0.14161   0.00000  Uiso   1.00
H365   H     0.41848   0.65975   0.08654   0.00000  Uiso   1.00
H366   H     0.47494   0.65306   0.13088   0.00000  Uiso   1.00
C367   C     0.58772   0.79068   0.38934   0.00000  Uiso   1.00
H368   H     0.57583   0.81135   0.35781   0.00000  Uiso   1.00
H369   H     0.60994   0.81366   0.41720   0.00000  Uiso   1.00
H370   H     0.61485   0.76350   0.38185   0.00000  Uiso   1.00
O371   O     0.83334   0.68453   0.28974   0.00000  Uiso   1.00
O372   O     0.83333   0.81546   0.21026   0.00000  Uiso   1.00
O373   O     0.83334   0.68453   0.21026   0.00000  Uiso   1.00
O374   O     0.83333   0.81547   0.28974   0.00000  Uiso   1.00
C375   C     0.83316   0.66357   0.24941   0.00000  Uiso   1.00
C376   C     0.83194   0.83665   0.25034   0.00000  Uiso   1.00
O377   O     0.75725   0.75000   0.28045   0.00000  Uiso   1.00
O378   O     0.90942   0.75000   0.21956   0.00000  Uiso   1.00
O379   O     0.75725   0.74999   0.20097   0.00000  Uiso   1.00
O380   O     0.90942   0.75000   0.29904   0.00000  Uiso   1.00
C381   C     0.73365   0.74987   0.23742   0.00000  Uiso   1.00
C382   C     0.93302   0.75001   0.26258   0.00000  Uiso   1.00
Zn383  Zn    0.83333   0.75000   0.30307   0.00000  Uiso   1.00
Zn384  Zn    0.83333   0.74999   0.19693   0.00000  Uiso   1.00
C385   C     0.67844   0.74975   0.23077   0.00000  Uiso   1.00
C386   C     0.98822   0.74996   0.26924   0.00000  Uiso   1.00
H387   H     0.99070   0.74955   0.19441   0.00000  Uiso   1.00
H388   H     0.67594   0.75016   0.30560   0.00000  Uiso   1.00
C389   C     0.76810   0.55319   0.26424   0.00000  Uiso   1.00
C390   C     0.77826   0.94652   0.20282   0.00000  Uiso   1.00
C391   C     0.78270   0.59879   0.26856   0.00000  Uiso   1.00
C392   C     0.79163   0.90110   0.20689   0.00000  Uiso   1.00
H393   H     0.76141   0.62181   0.28852   0.00000  Uiso   1.00
H394   H     0.77924   0.87818   0.17675   0.00000  Uiso   1.00
C395   C     0.82365   0.61533   0.24648   0.00000  Uiso   1.00
C396   C     0.82030   0.88485   0.24925   0.00000  Uiso   1.00
C397   C     0.85037   0.58647   0.21864   0.00000  Uiso   1.00
C398   C     0.83427   0.91428   0.28931   0.00000  Uiso   1.00
C399   C     0.83525   0.54111   0.21374   0.00000  Uiso   1.00
C400   C     0.82034   0.95952   0.28529   0.00000  Uiso   1.00
H401   H     0.85703   0.51798   0.19429   0.00000  Uiso   1.00
H402   H     0.83310   0.98315   0.31480   0.00000  Uiso   1.00
C403   C     0.79566   0.52433   0.23724   0.00000  Uiso   1.00
C404   C     0.79405   0.97575   0.24232   0.00000  Uiso   1.00
C405   C     0.80503   0.71815   0.04676   0.00000  Uiso   1.00
C406   C     0.87230   0.77136   0.45475   0.00000  Uiso   1.00
H407   H     0.78555   0.69081   0.02436   0.00000  Uiso   1.00
H408   H     0.90554   0.78571   0.47891   0.00000  Uiso   1.00
C409   C     0.80658   0.71692   0.09643   0.00000  Uiso   1.00
C410   C     0.87370   0.77011   0.40548   0.00000  Uiso   1.00
N411   N     0.83333   0.74999   0.12624   0.00000  Uiso   1.00
N412   N     0.83333   0.75001   0.37377   0.00000  Uiso   1.00
C413   C     0.85762   0.78468   0.10709   0.00000  Uiso   1.00
C414   C     0.79118   0.73188   0.39064   0.00000  Uiso   1.00
H415   H     0.87798   0.81103   0.13031   0.00000  Uiso   1.00
H416   H     0.75914   0.71647   0.36597   0.00000  Uiso   1.00
C417   C     0.85612   0.78707   0.05746   0.00000  Uiso   1.00
C418   C     0.78840   0.73325   0.43977   0.00000  Uiso   1.00
H419   H     0.87521   0.81559   0.04386   0.00000  Uiso   1.00
H420   H     0.75382   0.71913   0.45138   0.00000  Uiso   1.00
C421   C     0.82971   0.75325   0.02620   0.00000  Uiso   1.00
C422   C     0.82959   0.75309   0.47297   0.00000  Uiso   1.00
N423   N     0.72623   0.53669   0.28760   0.00000  Uiso   1.00
O424   O     0.69895   0.50064   0.27139   0.00000  Uiso   1.00
O425   O     0.71216   0.55979   0.32288   0.00000  Uiso   1.00
N426   N     0.74992   0.96251   0.15859   0.00000  Uiso   1.00
O427   O     0.72097   0.99841   0.15792   0.00000  Uiso   1.00
O428   O     0.74960   0.93924   0.11911   0.00000  Uiso   1.00
C429   C     0.89680   0.60153   0.19631   0.00000  Uiso   1.00
H430   H     0.91125   0.63612   0.20802   0.00000  Uiso   1.00
H431   H     0.93021   0.57837   0.20656   0.00000  Uiso   1.00
H432   H     0.88587   0.60030   0.15695   0.00000  Uiso   1.00
C433   C     0.86671   0.89955   0.33513   0.00000  Uiso   1.00
H434   H     0.84392   0.87517   0.35311   0.00000  Uiso   1.00
H435   H     0.90362   0.88412   0.32745   0.00000  Uiso   1.00
H436   H     0.87797   0.92856   0.36046   0.00000  Uiso   1.00
C437   C     0.77897   0.67796   0.11533   0.00000  Uiso   1.00
H438   H     0.75464   0.68981   0.14161   0.00000  Uiso   1.00
H439   H     0.75181   0.65975   0.08654   0.00000  Uiso   1.00
H440   H     0.80827   0.65306   0.13088   0.00000  Uiso   1.00
C441   C     0.92105   0.79068   0.38934   0.00000  Uiso   1.00
H442   H     0.90916   0.81135   0.35781   0.00000  Uiso   1.00
H443   H     0.94327   0.81366   0.41720   0.00000  Uiso   1.00
H444   H     0.94818   0.76350   0.38185   0.00000  Uiso   1.00
O445   O     0.16667   0.18453   0.78974   0.00000  Uiso   1.00
O446   O     0.16666   0.31546   0.71026   0.00000  Uiso   1.00
O447   O     0.16667   0.18453   0.71026   0.00000  Uiso   1.00
O448   O     0.16666   0.31547   0.78974   0.00000  Uiso   1.00
C449   C     0.16650   0.16357   0.74941   0.00000  Uiso   1.00
C450   C     0.16527   0.33665   0.75034   0.00000  Uiso   1.00
O451   O     0.09058   0.25000   0.78045   0.00000  Uiso   1.00
O452   O     0.24275   0.25000   0.71956   0.00000  Uiso   1.00
O453   O     0.09058   0.24999   0.70097   0.00000  Uiso   1.00
O454   O     0.24275   0.25000   0.79904   0.00000  Uiso   1.00
C455   C     0.06698   0.24987   0.73742   0.00000  Uiso   1.00
C456   C     0.26635   0.25001   0.76258   0.00000  Uiso   1.00
Zn457  Zn    0.16667   0.25000   0.80307   0.00000  Uiso   1.00
Zn458  Zn    0.16667   0.24999   0.69693   0.00000  Uiso   1.00
C459   C     0.01177   0.24975   0.73077   0.00000  Uiso   1.00
C460   C     0.32155   0.24996   0.76924   0.00000  Uiso   1.00
H461   H     0.32404   0.24955   0.69441   0.00000  Uiso   1.00
H462   H     0.00928   0.25016   0.80560   0.00000  Uiso   1.00
C463   C     0.10144   0.05319   0.76424   0.00000  Uiso   1.00
C464   C     0.11159   0.44652   0.70282   0.00000  Uiso   1.00
C465   C     0.11604   0.09879   0.76856   0.00000  Uiso   1.00
C466   C     0.12496   0.40110   0.70689   0.00000  Uiso   1.00
H467   H     0.09474   0.12181   0.78852   0.00000  Uiso   1.00
H468   H     0.11257   0.37818   0.67675   0.00000  Uiso   1.00
C469   C     0.15698   0.11533   0.74648   0.00000  Uiso   1.00
C470   C     0.15363   0.38485   0.74925   0.00000  Uiso   1.00
C471   C     0.18371   0.08647   0.71864   0.00000  Uiso   1.00
C472   C     0.16760   0.41428   0.78931   0.00000  Uiso   1.00
C473   C     0.16858   0.04111   0.71374   0.00000  Uiso   1.00
C474   C     0.15368   0.45952   0.78529   0.00000  Uiso   1.00
H475   H     0.19036   0.01798   0.69429   0.00000  Uiso   1.00
H476   H     0.16643   0.48315   0.81480   0.00000  Uiso   1.00
C477   C     0.12899   0.02433   0.73724   0.00000  Uiso   1.00
C478   C     0.12738   0.47575   0.74232   0.00000  Uiso   1.00
C479   C     0.13837   0.21815   0.54676   0.00000  Uiso   1.00
C480   C     0.20564   0.27136   0.95475   0.00000  Uiso   1.00
H481   H     0.11888   0.19081   0.52436   0.00000  Uiso   1.00
H482   H     0.23887   0.28571   0.97891   0.00000  Uiso   1.00
C483   C     0.13992   0.21692   0.59643   0.00000  Uiso   1.00
C484   C     0.20703   0.27011   0.90548   0.00000  Uiso   1.00
N485   N     0.16667   0.24999   0.62624   0.00000  Uiso   1.00
N486   N     0.16667   0.25001   0.87377   0.00000  Uiso   1.00
C487   C     0.19096   0.28468   0.60709   0.00000  Uiso   1.00
C488   C     0.12452   0.23188   0.89064   0.00000  Uiso   1.00
H489   H     0.21132   0.31103   0.63031   0.00000  Uiso   1.00
H490   H     0.09247   0.21647   0.86597   0.00000  Uiso   1.00
C491   C     0.18945   0.28707   0.55746   0.00000  Uiso   1.00
C492   C     0.12174   0.23325   0.93977   0.00000  Uiso   1.00
H493   H     0.20854   0.31559   0.54386   0.00000  Uiso   1.00
H494   H     0.08715   0.21913   0.95138   0.00000  Uiso   1.00
C495   C     0.16304   0.25325   0.52620   0.00000  Uiso   1.00
C496   C     0.16293   0.25309   0.97297   0.00000  Uiso   1.00
N497   N     0.05956   0.03669   0.78760   0.00000  Uiso   1.00
O498   O     0.03228   0.00064   0.77139   0.00000  Uiso   1.00
O499   O     0.04550   0.05979   0.82288   0.00000  Uiso   1.00
N500   N     0.08326   0.46251   0.65859   0.00000  Uiso   1.00
O501   O     0.05430   0.49841   0.65792   0.00000  Uiso   1.00
O502   O     0.08293   0.43924   0.61911   0.00000  Uiso   1.00
C503   C     0.23013   0.10153   0.69631   0.00000  Uiso   1.00
H504   H     0.24459   0.13612   0.70802   0.00000  Uiso   1.00
H505   H     0.26354   0.07837   0.70656   0.00000  Uiso   1.00
H506   H     0.21920   0.10030   0.65695   0.00000  Uiso   1.00
C507   C     0.20004   0.39955   0.83513   0.00000  Uiso   1.00
H508   H     0.17726   0.37517   0.85311   0.00000  Uiso   1.00
H509   H     0.23696   0.38412   0.82745   0.00000  Uiso   1.00
H510   H     0.21130   0.42856   0.86046   0.00000  Uiso   1.00
C511   C     0.11230   0.17796   0.61533   0.00000  Uiso   1.00
H512   H     0.08798   0.18981   0.64161   0.00000  Uiso   1.00
H513   H     0.08514   0.15975   0.58654   0.00000  Uiso   1.00
H514   H     0.14161   0.15306   0.63088   0.00000  Uiso   1.00
C515   C     0.25439   0.29068   0.88934   0.00000  Uiso   1.00
H516   H     0.24250   0.31135   0.85781   0.00000  Uiso   1.00
H517   H     0.27660   0.31366   0.91720   0.00000  Uiso   1.00
H518   H     0.28152   0.26350   0.88185   0.00000  Uiso   1.00
O519   O     0.50000   0.18453   0.78974   0.00000  Uiso   1.00
O520   O     0.50000   0.31546   0.71026   0.00000  Uiso   1.00
O521   O     0.50000   0.18453   0.71026   0.00000  Uiso   1.00
O522   O     0.50000   0.31547   0.78974   0.00000  Uiso   1.00
C523   C     0.49983   0.16357   0.74941   0.00000  Uiso   1.00
C524   C     0.49860   0.33665   0.75034   0.00000  Uiso   1.00
O525   O     0.42392   0.25000   0.78045   0.00000  Uiso   1.00
O526   O     0.57608   0.25000   0.71956   0.00000  Uiso   1.00
O527   O     0.42392   0.24999   0.70097   0.00000  Uiso   1.00
O528   O     0.57608   0.25000   0.79904   0.00000  Uiso   1.00
C529   C     0.40031   0.24987   0.73742   0.00000  Uiso   1.00
C530   C     0.59968   0.25001   0.76258   0.00000  Uiso   1.00
Zn531  Zn    0.50000   0.25000   0.80307   0.00000  Uiso   1.00
Zn532  Zn    0.50000   0.24999   0.69693   0.00000  Uiso   1.00
C533   C     0.34511   0.24975   0.73077   0.00000  Uiso   1.00
C534   C     0.65488   0.24996   0.76924   0.00000  Uiso   1.00
H535   H     0.65737   0.24955   0.69441   0.00000  Uiso   1.00
H536   H     0.34261   0.25016   0.80560   0.00000  Uiso   1.00
C537   C     0.43477   0.05319   0.76424   0.00000  Uiso   1.00
C538   C     0.44493   0.44652   0.70282   0.00000  Uiso   1.00
C539   C     0.44937   0.09879   0.76856   0.00000  Uiso   1.00
C540   C     0.45830   0.40110   0.70689   0.00000  Uiso   1.00
H541   H     0.42808   0.12181   0.78852   0.00000  Uiso   1.00
H542   H     0.44591   0.37818   0.67675   0.00000  Uiso   1.00
C543   C     0.49032   0.11533   0.74648   0.00000  Uiso   1.00
C544   C     0.48697   0.38485   0.74925   0.00000  Uiso   1.00
C545   C     0.51704   0.08647   0.71864   0.00000  Uiso   1.00
C546   C     0.50093   0.41428   0.78931   0.00000  Uiso   1.00
C547   C     0.50191   0.04111   0.71374   0.00000  Uiso   1.00
C548   C     0.48701   0.45952   0.78529   0.00000  Uiso   1.00
H549   H     0.52369   0.01798   0.69429   0.00000  Uiso   1.00
H550   H     0.49976   0.48315   0.81480   0.00000  Uiso   1.00
C551   C     0.46233   0.02433   0.73724   0.00000  Uiso   1.00
C552   C     0.46072   0.47575   0.74232   0.00000  Uiso   1.00
C553   C     0.47170   0.21815   0.54676   0.00000  Uiso   1.00
C554   C     0.53897   0.27136   0.95475   0.00000  Uiso   1.00
H555   H     0.45221   0.19081   0.52436   0.00000  Uiso   1.00
H556   H     0.57220   0.28571   0.97891   0.00000  Uiso   1.00
C557   C     0.47325   0.21692   0.59643   0.00000  Uiso   1.00
C558   C     0.54036   0.27011   0.90548   0.00000  Uiso   1.00
N559   N     0.50000   0.24999   0.62624   0.00000  Uiso   1.00
N560   N     0.50000   0.25001   0.87377   0.00000  Uiso   1.00
C561   C     0.52429   0.28468   0.60709   0.00000  Uiso   1.00
C562   C     0.45785   0.23188   0.89064   0.00000  Uiso   1.00
H563   H     0.54465   0.31103   0.63031   0.00000  Uiso   1.00
H564   H     0.42580   0.21647   0.86597   0.00000  Uiso   1.00
C565   C     0.52278   0.28707   0.55746   0.00000  Uiso   1.00
C566   C     0.45507   0.23325   0.93977   0.00000  Uiso   1.00
H567   H     0.54188   0.31559   0.54386   0.00000  Uiso   1.00
H568   H     0.42048   0.21913   0.95138   0.00000  Uiso   1.00
C569   C     0.49638   0.25325   0.52620   0.00000  Uiso   1.00
C570   C     0.49626   0.25309   0.97297   0.00000  Uiso   1.00
N571   N     0.39289   0.03669   0.78760   0.00000  Uiso   1.00
O572   O     0.36562   0.00064   0.77139   0.00000  Uiso   1.00
O573   O     0.37883   0.05979   0.82288   0.00000  Uiso   1.00
N574   N     0.41659   0.46251   0.65859   0.00000  Uiso   1.00
O575   O     0.38764   0.49841   0.65792   0.00000  Uiso   1.00
O576   O     0.41626   0.43924   0.61911   0.00000  Uiso   1.00
C577   C     0.56347   0.10153   0.69631   0.00000  Uiso   1.00
H578   H     0.57792   0.13612   0.70802   0.00000  Uiso   1.00
H579   H     0.59688   0.07837   0.70656   0.00000  Uiso   1.00
H580   H     0.55254   0.10030   0.65695   0.00000  Uiso   1.00
C581   C     0.53337   0.39955   0.83513   0.00000  Uiso   1.00
H582   H     0.51059   0.37517   0.85311   0.00000  Uiso   1.00
H583   H     0.57029   0.38412   0.82745   0.00000  Uiso   1.00
H584   H     0.54464   0.42856   0.86046   0.00000  Uiso   1.00
C585   C     0.44564   0.17796   0.61533   0.00000  Uiso   1.00
H586   H     0.42131   0.18981   0.64161   0.00000  Uiso   1.00
H587   H     0.41848   0.15975   0.58654   0.00000  Uiso   1.00
H588   H     0.47494   0.15306   0.63088   0.00000  Uiso   1.00
C589   C     0.58772   0.29068   0.88934   0.00000  Uiso   1.00
H590   H     0.57583   0.31135   0.85781   0.00000  Uiso   1.00
H591   H     0.60994   0.31366   0.91720   0.00000  Uiso   1.00
H592   H     0.61485   0.26350   0.88185   0.00000  Uiso   1.00
O593   O     0.83334   0.18453   0.78974   0.00000  Uiso   1.00
O594   O     0.83333   0.31546   0.71026   0.00000  Uiso   1.00
O595   O     0.83334   0.18453   0.71026   0.00000  Uiso   1.00
O596   O     0.83333   0.31547   0.78974   0.00000  Uiso   1.00
C597   C     0.83316   0.16357   0.74941   0.00000  Uiso   1.00
C598   C     0.83194   0.33665   0.75034   0.00000  Uiso   1.00
O599   O     0.75725   0.25000   0.78045   0.00000  Uiso   1.00
O600   O     0.90942   0.25000   0.71956   0.00000  Uiso   1.00
O601   O     0.75725   0.24999   0.70097   0.00000  Uiso   1.00
O602   O     0.90942   0.25000   0.79904   0.00000  Uiso   1.00
C603   C     0.73365   0.24987   0.73742   0.00000  Uiso   1.00
C604   C     0.93302   0.25001   0.76258   0.00000  Uiso   1.00
Zn605  Zn    0.83333   0.25000   0.80307   0.00000  Uiso   1.00
Zn606  Zn    0.83333   0.24999   0.69693   0.00000  Uiso   1.00
C607   C     0.67844   0.24975   0.73077   0.00000  Uiso   1.00
C608   C     0.98822   0.24996   0.76924   0.00000  Uiso   1.00
H609   H     0.99070   0.24955   0.69441   0.00000  Uiso   1.00
H610   H     0.67594   0.25016   0.80560   0.00000  Uiso   1.00
C611   C     0.76810   0.05319   0.76424   0.00000  Uiso   1.00
C612   C     0.77826   0.44652   0.70282   0.00000  Uiso   1.00
C613   C     0.78270   0.09879   0.76856   0.00000  Uiso   1.00
C614   C     0.79163   0.40110   0.70689   0.00000  Uiso   1.00
H615   H     0.76141   0.12181   0.78852   0.00000  Uiso   1.00
H616   H     0.77924   0.37818   0.67675   0.00000  Uiso   1.00
C617   C     0.82365   0.11533   0.74648   0.00000  Uiso   1.00
C618   C     0.82030   0.38485   0.74925   0.00000  Uiso   1.00
C619   C     0.85037   0.08647   0.71864   0.00000  Uiso   1.00
C620   C     0.83427   0.41428   0.78931   0.00000  Uiso   1.00
C621   C     0.83525   0.04111   0.71374   0.00000  Uiso   1.00
C622   C     0.82034   0.45952   0.78529   0.00000  Uiso   1.00
H623   H     0.85703   0.01798   0.69429   0.00000  Uiso   1.00
H624   H     0.83310   0.48315   0.81480   0.00000  Uiso   1.00
C625   C     0.79566   0.02433   0.73724   0.00000  Uiso   1.00
C626   C     0.79405   0.47575   0.74232   0.00000  Uiso   1.00
C627   C     0.80503   0.21815   0.54676   0.00000  Uiso   1.00
C628   C     0.87230   0.27136   0.95475   0.00000  Uiso   1.00
H629   H     0.78555   0.19081   0.52436   0.00000  Uiso   1.00
H630   H     0.90554   0.28571   0.97891   0.00000  Uiso   1.00
C631   C     0.80658   0.21692   0.59643   0.00000  Uiso   1.00
C632   C     0.87370   0.27011   0.90548   0.00000  Uiso   1.00
N633   N     0.83333   0.24999   0.62624   0.00000  Uiso   1.00
N634   N     0.83333   0.25001   0.87377   0.00000  Uiso   1.00
C635   C     0.85762   0.28468   0.60709   0.00000  Uiso   1.00
C636   C     0.79118   0.23188   0.89064   0.00000  Uiso   1.00
H637   H     0.87798   0.31103   0.63031   0.00000  Uiso   1.00
H638   H     0.75914   0.21647   0.86597   0.00000  Uiso   1.00
C639   C     0.85612   0.28707   0.55746   0.00000  Uiso   1.00
C640   C     0.78840   0.23325   0.93977   0.00000  Uiso   1.00
H641   H     0.87521   0.31559   0.54386   0.00000  Uiso   1.00
H642   H     0.75382   0.21913   0.95138   0.00000  Uiso   1.00
C643   C     0.82971   0.25325   0.52620   0.00000  Uiso   1.00
C644   C     0.82959   0.25309   0.97297   0.00000  Uiso   1.00
N645   N     0.72623   0.03669   0.78760   0.00000  Uiso   1.00
O646   O     0.69895   0.00064   0.77139   0.00000  Uiso   1.00
O647   O     0.71216   0.05979   0.82288   0.00000  Uiso   1.00
N648   N     0.74992   0.46251   0.65859   0.00000  Uiso   1.00
O649   O     0.72097   0.49841   0.65792   0.00000  Uiso   1.00
O650   O     0.74960   0.43924   0.61911   0.00000  Uiso   1.00
C651   C     0.89680   0.10153   0.69631   0.00000  Uiso   1.00
H652   H     0.91125   0.13612   0.70802   0.00000  Uiso   1.00
H653   H     0.93021   0.07837   0.70656   0.00000  Uiso   1.00
H654   H     0.88587   0.10030   0.65695   0.00000  Uiso   1.00
C655   C     0.86671   0.39955   0.83513   0.00000  Uiso   1.00
H656   H     0.84392   0.37517   0.85311   0.00000  Uiso   1.00
H657   H     0.90362   0.38412   0.82745   0.00000  Uiso   1.00
H658   H     0.87797   0.42856   0.86046   0.00000  Uiso   1.00
C659   C     0.77897   0.17796   0.61533   0.00000  Uiso   1.00
H660   H     0.75464   0.18981   0.64161   0.00000  Uiso   1.00
H661   H     0.75181   0.15975   0.58654   0.00000  Uiso   1.00
H662   H     0.80827   0.15306   0.63088   0.00000  Uiso   1.00
C663   C     0.92105   0.29068   0.88934   0.00000  Uiso   1.00
H664   H     0.90916   0.31135   0.85781   0.00000  Uiso   1.00
H665   H     0.94327   0.31366   0.91720   0.00000  Uiso   1.00
H666   H     0.94818   0.26350   0.88185   0.00000  Uiso   1.00
O667   O     0.16667   0.68453   0.78974   0.00000  Uiso   1.00
O668   O     0.16666   0.81546   0.71026   0.00000  Uiso   1.00
O669   O     0.16667   0.68453   0.71026   0.00000  Uiso   1.00
O670   O     0.16666   0.81547   0.78974   0.00000  Uiso   1.00
C671   C     0.16650   0.66357   0.74941   0.00000  Uiso   1.00
C672   C     0.16527   0.83665   0.75034   0.00000  Uiso   1.00
O673   O     0.09058   0.75000   0.78045   0.00000  Uiso   1.00
O674   O     0.24275   0.75000   0.71956   0.00000  Uiso   1.00
O675   O     0.09058   0.74999   0.70097   0.00000  Uiso   1.00
O676   O     0.24275   0.75000   0.79904   0.00000  Uiso   1.00
C677   C     0.06698   0.74987   0.73742   0.00000  Uiso   1.00
C678   C     0.26635   0.75001   0.76258   0.00000  Uiso   1.00
Zn679  Zn    0.16667   0.75000   0.80307   0.00000  Uiso   1.00
Zn680  Zn    0.16667   0.74999   0.69693   0.00000  Uiso   1.00
C681   C     0.01177   0.74975   0.73077   0.00000  Uiso   1.00
C682   C     0.32155   0.74996   0.76924   0.00000  Uiso   1.00
H683   H     0.32404   0.74955   0.69441   0.00000  Uiso   1.00
H684   H     0.00928   0.75016   0.80560   0.00000  Uiso   1.00
C685   C     0.10144   0.55319   0.76424   0.00000  Uiso   1.00
C686   C     0.11159   0.94652   0.70282   0.00000  Uiso   1.00
C687   C     0.11604   0.59879   0.76856   0.00000  Uiso   1.00
C688   C     0.12496   0.90110   0.70689   0.00000  Uiso   1.00
H689   H     0.09474   0.62181   0.78852   0.00000  Uiso   1.00
H690   H     0.11257   0.87818   0.67675   0.00000  Uiso   1.00
C691   C     0.15698   0.61533   0.74648   0.00000  Uiso   1.00
C692   C     0.15363   0.88485   0.74925   0.00000  Uiso   1.00
C693   C     0.18371   0.58647   0.71864   0.00000  Uiso   1.00
C694   C     0.16760   0.91428   0.78931   0.00000  Uiso   1.00
C695   C     0.16858   0.54111   0.71374   0.00000  Uiso   1.00
C696   C     0.15368   0.95952   0.78529   0.00000  Uiso   1.00
H697   H     0.19036   0.51798   0.69429   0.00000  Uiso   1.00
H698   H     0.16643   0.98315   0.81480   0.00000  Uiso   1.00
C699   C     0.12899   0.52433   0.73724   0.00000  Uiso   1.00
C700   C     0.12738   0.97575   0.74232   0.00000  Uiso   1.00
C701   C     0.13837   0.71815   0.54676   0.00000  Uiso   1.00
C702   C     0.20564   0.77136   0.95475   0.00000  Uiso   1.00
H703   H     0.11888   0.69081   0.52436   0.00000  Uiso   1.00
H704   H     0.23887   0.78571   0.97891   0.00000  Uiso   1.00
C705   C     0.13992   0.71692   0.59643   0.00000  Uiso   1.00
C706   C     0.20703   0.77011   0.90548   0.00000  Uiso   1.00
N707   N     0.16667   0.74999   0.62624   0.00000  Uiso   1.00
N708   N     0.16667   0.75001   0.87377   0.00000  Uiso   1.00
C709   C     0.19096   0.78468   0.60709   0.00000  Uiso   1.00
C710   C     0.12452   0.73188   0.89064   0.00000  Uiso   1.00
H711   H     0.21132   0.81103   0.63031   0.00000  Uiso   1.00
H712   H     0.09247   0.71647   0.86597   0.00000  Uiso   1.00
C713   C     0.18945   0.78707   0.55746   0.00000  Uiso   1.00
C714   C     0.12174   0.73325   0.93977   0.00000  Uiso   1.00
H715   H     0.20854   0.81559   0.54386   0.00000  Uiso   1.00
H716   H     0.08715   0.71913   0.95138   0.00000  Uiso   1.00
C717   C     0.16304   0.75325   0.52620   0.00000  Uiso   1.00
C718   C     0.16293   0.75309   0.97297   0.00000  Uiso   1.00
N719   N     0.05956   0.53669   0.78760   0.00000  Uiso   1.00
O720   O     0.03228   0.50064   0.77139   0.00000  Uiso   1.00
O721   O     0.04550   0.55979   0.82288   0.00000  Uiso   1.00
N722   N     0.08326   0.96251   0.65859   0.00000  Uiso   1.00
O723   O     0.05430   0.99841   0.65792   0.00000  Uiso   1.00
O724   O     0.08293   0.93924   0.61911   0.00000  Uiso   1.00
C725   C     0.23013   0.60153   0.69631   0.00000  Uiso   1.00
H726   H     0.24459   0.63612   0.70802   0.00000  Uiso   1.00
H727   H     0.26354   0.57837   0.70656   0.00000  Uiso   1.00
H728   H     0.21920   0.60030   0.65695   0.00000  Uiso   1.00
C729   C     0.20004   0.89955   0.83513   0.00000  Uiso   1.00
H730   H     0.17726   0.87517   0.85311   0.00000  Uiso   1.00
H731   H     0.23696   0.88412   0.82745   0.00000  Uiso   1.00
H732   H     0.21130   0.92856   0.86046   0.00000  Uiso   1.00
C733   C     0.11230   0.67796   0.61533   0.00000  Uiso   1.00
H734   H     0.08798   0.68981   0.64161   0.00000  Uiso   1.00
H735   H     0.08514   0.65975   0.58654   0.00000  Uiso   1.00
H736   H     0.14161   0.65306   0.63088   0.00000  Uiso   1.00
C737   C     0.25439   0.79068   0.88934   0.00000  Uiso   1.00
H738   H     0.24250   0.81135   0.85781   0.00000  Uiso   1.00
H739   H     0.27660   0.81366   0.91720   0.00000  Uiso   1.00
H740   H     0.28152   0.76350   0.88185   0.00000  Uiso   1.00
O741   O     0.50000   0.68453   0.78974   0.00000  Uiso   1.00
O742   O     0.50000   0.81546   0.71026   0.00000  Uiso   1.00
O743   O     0.50000   0.68453   0.71026   0.00000  Uiso   1.00
O744   O     0.50000   0.81547   0.78974   0.00000  Uiso   1.00
C745   C     0.49983   0.66357   0.74941   0.00000  Uiso   1.00
C746   C     0.49860   0.83665   0.75034   0.00000  Uiso   1.00
O747   O     0.42392   0.75000   0.78045   0.00000  Uiso   1.00
O748   O     0.57608   0.75000   0.71956   0.00000  Uiso   1.00
O749   O     0.42392   0.74999   0.70097   0.00000  Uiso   1.00
O750   O     0.57608   0.75000   0.79904   0.00000  Uiso   1.00
C751   C     0.40031   0.74987   0.73742   0.00000  Uiso   1.00
C752   C     0.59968   0.75001   0.76258   0.00000  Uiso   1.00
Zn753  Zn    0.50000   0.75000   0.80307   0.00000  Uiso   1.00
Zn754  Zn    0.50000   0.74999   0.69693   0.00000  Uiso   1.00
C755   C     0.34511   0.74975   0.73077   0.00000  Uiso   1.00
C756   C     0.65488   0.74996   0.76924   0.00000  Uiso   1.00
H757   H     0.65737   0.74955   0.69441   0.00000  Uiso   1.00
H758   H     0.34261   0.75016   0.80560   0.00000  Uiso   1.00
C759   C     0.43477   0.55319   0.76424   0.00000  Uiso   1.00
C760   C     0.44493   0.94652   0.70282   0.00000  Uiso   1.00
C761   C     0.44937   0.59879   0.76856   0.00000  Uiso   1.00
C762   C     0.45830   0.90110   0.70689   0.00000  Uiso   1.00
H763   H     0.42808   0.62181   0.78852   0.00000  Uiso   1.00
H764   H     0.44591   0.87818   0.67675   0.00000  Uiso   1.00
C765   C     0.49032   0.61533   0.74648   0.00000  Uiso   1.00
C766   C     0.48697   0.88485   0.74925   0.00000  Uiso   1.00
C767   C     0.51704   0.58647   0.71864   0.00000  Uiso   1.00
C768   C     0.50093   0.91428   0.78931   0.00000  Uiso   1.00
C769   C     0.50191   0.54111   0.71374   0.00000  Uiso   1.00
C770   C     0.48701   0.95952   0.78529   0.00000  Uiso   1.00
H771   H     0.52369   0.51798   0.69429   0.00000  Uiso   1.00
H772   H     0.49976   0.98315   0.81480   0.00000  Uiso   1.00
C773   C     0.46233   0.52433   0.73724   0.00000  Uiso   1.00
C774   C     0.46072   0.97575   0.74232   0.00000  Uiso   1.00
C775   C     0.47170   0.71815   0.54676   0.00000  Uiso   1.00
C776   C     0.53897   0.77136   0.95475   0.00000  Uiso   1.00
H777   H     0.45221   0.69081   0.52436   0.00000  Uiso   1.00
H778   H     0.57220   0.78571   0.97891   0.00000  Uiso   1.00
C779   C     0.47325   0.71692   0.59643   0.00000  Uiso   1.00
C780   C     0.54036   0.77011   0.90548   0.00000  Uiso   1.00
N781   N     0.50000   0.74999   0.62624   0.00000  Uiso   1.00
N782   N     0.50000   0.75001   0.87377   0.00000  Uiso   1.00
C783   C     0.52429   0.78468   0.60709   0.00000  Uiso   1.00
C784   C     0.45785   0.73188   0.89064   0.00000  Uiso   1.00
H785   H     0.54465   0.81103   0.63031   0.00000  Uiso   1.00
H786   H     0.42580   0.71647   0.86597   0.00000  Uiso   1.00
C787   C     0.52278   0.78707   0.55746   0.00000  Uiso   1.00
C788   C     0.45507   0.73325   0.93977   0.00000  Uiso   1.00
H789   H     0.54188   0.81559   0.54386   0.00000  Uiso   1.00
H790   H     0.42048   0.71913   0.95138   0.00000  Uiso   1.00
C791   C     0.49638   0.75325   0.52620   0.00000  Uiso   1.00
C792   C     0.49626   0.75309   0.97297   0.00000  Uiso   1.00
N793   N     0.39289   0.53669   0.78760   0.00000  Uiso   1.00
O794   O     0.36562   0.50064   0.77139   0.00000  Uiso   1.00
O795   O     0.37883   0.55979   0.82288   0.00000  Uiso   1.00
N796   N     0.41659   0.96251   0.65859   0.00000  Uiso   1.00
O797   O     0.38764   0.99841   0.65792   0.00000  Uiso   1.00
O798   O     0.41626   0.93924   0.61911   0.00000  Uiso   1.00
C799   C     0.56347   0.60153   0.69631   0.00000  Uiso   1.00
H800   H     0.57792   0.63612   0.70802   0.00000  Uiso   1.00
H801   H     0.59688   0.57837   0.70656   0.00000  Uiso   1.00
H802   H     0.55254   0.60030   0.65695   0.00000  Uiso   1.00
C803   C     0.53337   0.89955   0.83513   0.00000  Uiso   1.00
H804   H     0.51059   0.87517   0.85311   0.00000  Uiso   1.00
H805   H     0.57029   0.88412   0.82745   0.00000  Uiso   1.00
H806   H     0.54464   0.92856   0.86046   0.00000  Uiso   1.00
C807   C     0.44564   0.67796   0.61533   0.00000  Uiso   1.00
H808   H     0.42131   0.68981   0.64161   0.00000  Uiso   1.00
H809   H     0.41848   0.65975   0.58654   0.00000  Uiso   1.00
H810   H     0.47494   0.65306   0.63088   0.00000  Uiso   1.00
C811   C     0.58772   0.79068   0.88934   0.00000  Uiso   1.00
H812   H     0.57583   0.81135   0.85781   0.00000  Uiso   1.00
H813   H     0.60994   0.81366   0.91720   0.00000  Uiso   1.00
H814   H     0.61485   0.76350   0.88185   0.00000  Uiso   1.00
O815   O     0.83334   0.68453   0.78974   0.00000  Uiso   1.00
O816   O     0.83333   0.81546   0.71026   0.00000  Uiso   1.00
O817   O     0.83334   0.68453   0.71026   0.00000  Uiso   1.00
O818   O     0.83333   0.81547   0.78974   0.00000  Uiso   1.00
C819   C     0.83316   0.66357   0.74941   0.00000  Uiso   1.00
C820   C     0.83194   0.83665   0.75034   0.00000  Uiso   1.00
O821   O     0.75725   0.75000   0.78045   0.00000  Uiso   1.00
O822   O     0.90942   0.75000   0.71956   0.00000  Uiso   1.00
O823   O     0.75725   0.74999   0.70097   0.00000  Uiso   1.00
O824   O     0.90942   0.75000   0.79904   0.00000  Uiso   1.00
C825   C     0.73365   0.74987   0.73742   0.00000  Uiso   1.00
C826   C     0.93302   0.75001   0.76258   0.00000  Uiso   1.00
Zn827  Zn    0.83333   0.75000   0.80307   0.00000  Uiso   1.00
Zn828  Zn    0.83333   0.74999   0.69693   0.00000  Uiso   1.00
C829   C     0.67844   0.74975   0.73077   0.00000  Uiso   1.00
C830   C     0.98822   0.74996   0.76924   0.00000  Uiso   1.00
H831   H     0.99070   0.74955   0.69441   0.00000  Uiso   1.00
H832   H     0.67594   0.75016   0.80560   0.00000  Uiso   1.00
C833   C     0.76810   0.55319   0.76424   0.00000  Uiso   1.00
C834   C     0.77826   0.94652   0.70282   0.00000  Uiso   1.00
C835   C     0.78270   0.59879   0.76856   0.00000  Uiso   1.00
C836   C     0.79163   0.90110   0.70689   0.00000  Uiso   1.00
H837   H     0.76141   0.62181   0.78852   0.00000  Uiso   1.00
H838   H     0.77924   0.87818   0.67675   0.00000  Uiso   1.00
C839   C     0.82365   0.61533   0.74648   0.00000  Uiso   1.00
C840   C     0.82030   0.88485   0.74925   0.00000  Uiso   1.00
C841   C     0.85037   0.58647   0.71864   0.00000  Uiso   1.00
C842   C     0.83427   0.91428   0.78931   0.00000  Uiso   1.00
C843   C     0.83525   0.54111   0.71374   0.00000  Uiso   1.00
C844   C     0.82034   0.95952   0.78529   0.00000  Uiso   1.00
H845   H     0.85703   0.51798   0.69429   0.00000  Uiso   1.00
H846   H     0.83310   0.98315   0.81480   0.00000  Uiso   1.00
C847   C     0.79566   0.52433   0.73724   0.00000  Uiso   1.00
C848   C     0.79405   0.97575   0.74232   0.00000  Uiso   1.00
C849   C     0.80503   0.71815   0.54676   0.00000  Uiso   1.00
C850   C     0.87230   0.77136   0.95475   0.00000  Uiso   1.00
H851   H     0.78555   0.69081   0.52436   0.00000  Uiso   1.00
H852   H     0.90554   0.78571   0.97891   0.00000  Uiso   1.00
C853   C     0.80658   0.71692   0.59643   0.00000  Uiso   1.00
C854   C     0.87370   0.77011   0.90548   0.00000  Uiso   1.00
N855   N     0.83333   0.74999   0.62624   0.00000  Uiso   1.00
N856   N     0.83333   0.75001   0.87377   0.00000  Uiso   1.00
C857   C     0.85762   0.78468   0.60709   0.00000  Uiso   1.00
C858   C     0.79118   0.73188   0.89064   0.00000  Uiso   1.00
H859   H     0.87798   0.81103   0.63031   0.00000  Uiso   1.00
H860   H     0.75914   0.71647   0.86597   0.00000  Uiso   1.00
C861   C     0.85612   0.78707   0.55746   0.00000  Uiso   1.00
C862   C     0.78840   0.73325   0.93977   0.00000  Uiso   1.00
H863   H     0.87521   0.81559   0.54386   0.00000  Uiso   1.00
H864   H     0.75382   0.71913   0.95138   0.00000  Uiso   1.00
C865   C     0.82971   0.75325   0.52620   0.00000  Uiso   1.00
C866   C     0.82959   0.75309   0.97297   0.00000  Uiso   1.00
N867   N     0.72623   0.53669   0.78760   0.00000  Uiso   1.00
O868   O     0.69895   0.50064   0.77139   0.00000  Uiso   1.00
O869   O     0.71216   0.55979   0.82288   0.00000  Uiso   1.00
N870   N     0.74992   0.96251   0.65859   0.00000  Uiso   1.00
O871   O     0.72097   0.99841   0.65792   0.00000  Uiso   1.00
O872   O     0.74960   0.93924   0.61911   0.00000  Uiso   1.00
C873   C     0.89680   0.60153   0.69631   0.00000  Uiso   1.00
H874   H     0.91125   0.63612   0.70802   0.00000  Uiso   1.00
H875   H     0.93021   0.57837   0.70656   0.00000  Uiso   1.00
H876   H     0.88587   0.60030   0.65695   0.00000  Uiso   1.00
C877   C     0.86671   0.89955   0.83513   0.00000  Uiso   1.00
H878   H     0.84392   0.87517   0.85311   0.00000  Uiso   1.00
H879   H     0.90362   0.88412   0.82745   0.00000  Uiso   1.00
H880   H     0.87797   0.92856   0.86046   0.00000  Uiso   1.00
C881   C     0.77897   0.67796   0.61533   0.00000  Uiso   1.00
H882   H     0.75464   0.68981   0.64161   0.00000  Uiso   1.00
H883   H     0.75181   0.65975   0.58654   0.00000  Uiso   1.00
H884   H     0.80827   0.65306   0.63088   0.00000  Uiso   1.00
C885   C     0.92105   0.79068   0.88934   0.00000  Uiso   1.00
H886   H     0.90916   0.81135   0.85781   0.00000  Uiso   1.00
H887   H     0.94327   0.81366   0.91720   0.00000  Uiso   1.00
H888   H     0.94818   0.76350   0.88185   0.00000  Uiso   1.00
loop_
_geom_bond_atom_site_label_1
_geom_bond_atom_site_label_2
_geom_bond_distance
_geom_bond_site_symmetry_2
_ccdc_geom_bond_type
O1     C5      1.290   .     A
O1     Zn13    1.961   .     S
O2     C6      1.294   .     A
O2     Zn14    1.961   .     S
O3     Zn14    1.979   .     S
O3     C5      1.289   .     A
O4     C6      1.293   .     A
O4     Zn13    1.979   .     S
C5     C25     1.441   .     S
C6     C26     1.458   .     S
O7     C11     1.276   .     A
O7     Zn13    1.961   .     S
O8     C12     1.276   .     A
O8     Zn14    1.961   .     S
O9     Zn14    1.981   .     S
O9     C11     1.285   .     A
O10    C12     1.285   .     A
O10    Zn13    1.981   .     S
C11    C15     1.403   .     S
C12    C16     1.403   .     S
Zn13   N42     2.013   .     S
Zn14   N41     2.013   .     S
C15    C164    1.335   1_455 S
C15    H165    1.088   1_455 S
C16    C89     1.335   .     S
C16    H92     1.088   .     S
H17    C89     1.088   .     S
H18    C164    1.088   1_455 S
C19    N53     1.442   .     S
C19    C21     1.391   .     A
C19    C33     1.406   .     A
C20    N56     1.442   .     S
C20    C34     1.404   .     A
C20    C22     1.391   .     A
C21    H23     1.084   .     S
C21    C25     1.402   .     A
C22    H24     1.083   .     S
C22    C26     1.407   .     A
C25    C27     1.408   .     A
C26    C28     1.413   .     A
C27    C59     1.510   .     S
C27    C29     1.388   .     A
C28    C30     1.390   .     A
C28    C63     1.507   .     S
C29    H31     1.085   .     S
C29    C33     1.400   .     A
C30    C34     1.397   .     A
C30    H32     1.085   .     S
C33    C256    1.446   1_545 S
C34    C255    1.446   .     S
C35    C39     1.410   .     A
C35    C51     1.399   .     A
C35    H37     1.082   .     S
C36    C52     1.398   .     A
C36    H38     1.083   .     S
C36    C40     1.409   .     A
C39    N41     1.379   .     A
C39    C67     1.502   .     S
C40    C71     1.499   .     S
C40    N42     1.380   .     A
N41    C43     1.364   .     A
N42    C44     1.365   .     A
C43    H45     1.082   .     S
C43    C47     1.411   .     A
C44    C48     1.412   .     A
C44    H46     1.081   .     S
C47    H49     1.082   .     S
C47    C51     1.413   .     A
C48    H50     1.082   .     S
C48    C52     1.413   .     A
C51    C496    1.515   1_554 S
C52    C495    1.515   .     S
N53    O55     1.302   .     A
N53    O54     1.301   .     A
N56    O58     1.302   .     A
N56    O57     1.301   .     A
C59    H60     1.108   .     S
C59    H61     1.111   .     S
C59    H62     1.110   .     S
C63    H65     1.110   .     S
C63    H66     1.111   .     S
C63    H64     1.109   .     S
C67    H70     1.107   .     S
C67    H69     1.111   .     S
C67    H68     1.104   .     S
C71    H74     1.109   .     S
C71    H72     1.102   .     S
C71    H73     1.111   .     S
O75    C79     1.290   .     A
O75    Zn87    1.961   .     S
O76    C80     1.294   .     A
O76    Zn88    1.961   .     S
O77    Zn88    1.979   .     S
O77    C79     1.289   .     A
O78    C80     1.293   .     A
O78    Zn87    1.979   .     S
C79    C99     1.441   .     S
C80    C100    1.458   .     S
O81    C85     1.276   .     A
O81    Zn87    1.961   .     S
O82    C86     1.276   .     A
O82    Zn88    1.961   .     S
O83    Zn88    1.981   .     S
O83    C85     1.285   .     A
O84    C86     1.285   .     A
O84    Zn87    1.981   .     S
C85    C89     1.403   .     S
C86    C90     1.403   .     S
Zn87   N116    2.013   .     S
Zn88   N115    2.013   .     S
C90    C163    1.335   .     S
C90    H166    1.088   .     S
H91    C163    1.088   .     S
C93    N127    1.442   .     S
C93    C95     1.391   .     A
C93    C107    1.406   .     A
C94    N130    1.442   .     S
C94    C108    1.404   .     A
C94    C96     1.391   .     A
C95    H97     1.084   .     S
C95    C99     1.402   .     A
C96    H98     1.083   .     S
C96    C100    1.407   .     A
C99    C101    1.408   .     A
C100   C102    1.413   .     A
C101   C133    1.510   .     S
C101   C103    1.388   .     A
C102   C104    1.390   .     A
C102   C137    1.507   .     S
C103   H105    1.085   .     S
C103   C107    1.400   .     A
C104   C108    1.397   .     A
C104   H106    1.085   .     S
C107   C330    1.446   1_545 S
C108   C329    1.446   .     S
C109   C113    1.410   .     A
C109   C125    1.399   .     A
C109   H111    1.082   .     S
C110   C126    1.398   .     A
C110   H112    1.083   .     S
C110   C114    1.409   .     A
C113   N115    1.379   .     A
C113   C141    1.502   .     S
C114   C145    1.499   .     S
C114   N116    1.380   .     A
N115   C117    1.364   .     A
N116   C118    1.365   .     A
C117   H119    1.082   .     S
C117   C121    1.411   .     A
C118   C122    1.412   .     A
C118   H120    1.081   .     S
C121   H123    1.082   .     S
C121   C125    1.413   .     A
C122   H124    1.082   .     S
C122   C126    1.413   .     A
C125   C570    1.515   1_554 S
C126   C569    1.515   .     S
N127   O129    1.302   .     A
N127   O128    1.301   .     A
N130   O132    1.302   .     A
N130   O131    1.301   .     A
C133   H134    1.108   .     S
C133   H135    1.111   .     S
C133   H136    1.110   .     S
C137   H139    1.110   .     S
C137   H140    1.111   .     S
C137   H138    1.109   .     S
C141   H144    1.107   .     S
C141   H143    1.111   .     S
C141   H142    1.104   .     S
C145   H148    1.109   .     S
C145   H146    1.102   .     S
C145   H147    1.111   .     S
O149   C153    1.290   .     A
O149   Zn161   1.961   .     S
O150   C154    1.294   .     A
O150   Zn162   1.961   .     S
O151   Zn162   1.979   .     S
O151   C153    1.289   .     A
O152   C154    1.293   .     A
O152   Zn161   1.979   .     S
C153   C173    1.441   .     S
C154   C174    1.458   .     S
O155   C159    1.276   .     A
O155   Zn161   1.961   .     S
O156   C160    1.276   .     A
O156   Zn162   1.961   .     S
O157   Zn162   1.981   .     S
O157   C159    1.285   .     A
O158   C160    1.285   .     A
O158   Zn161   1.981   .     S
C159   C163    1.403   .     S
C160   C164    1.403   .     S
Zn161  N190    2.013   .     S
Zn162  N189    2.013   .     S
C164   C15     1.335   1_655 S
C164   H18     1.088   1_655 S
H165   C15     1.088   1_655 S
C167   N201    1.442   .     S
C167   C169    1.391   .     A
C167   C181    1.406   .     A
C168   N204    1.442   .     S
C168   C182    1.404   .     A
C168   C170    1.391   .     A
C169   H171    1.084   .     S
C169   C173    1.402   .     A
C170   H172    1.083   .     S
C170   C174    1.407   .     A
C173   C175    1.408   .     A
C174   C176    1.413   .     A
C175   C207    1.510   .     S
C175   C177    1.388   .     A
C176   C178    1.390   .     A
C176   C211    1.507   .     S
C177   H179    1.085   .     S
C177   C181    1.400   .     A
C178   C182    1.397   .     A
C178   H180    1.085   .     S
C181   C404    1.446   1_545 S
C182   C403    1.446   .     S
C183   C187    1.410   .     A
C183   C199    1.399   .     A
C183   H185    1.082   .     S
C184   C200    1.398   .     A
C184   H186    1.083   .     S
C184   C188    1.409   .     A
C187   N189    1.379   .     A
C187   C215    1.502   .     S
C188   C219    1.499   .     S
C188   N190    1.380   .     A
N189   C191    1.364   .     A
N190   C192    1.365   .     A
C191   H193    1.082   .     S
C191   C195    1.411   .     A
C192   C196    1.412   .     A
C192   H194    1.081   .     S
C195   H197    1.082   .     S
C195   C199    1.413   .     A
C196   H198    1.082   .     S
C196   C200    1.413   .     A
C199   C644    1.515   1_554 S
C200   C643    1.515   .     S
N201   O203    1.302   .     A
N201   O202    1.301   .     A
N204   O206    1.302   .     A
N204   O205    1.301   .     A
C207   H208    1.108   .     S
C207   H209    1.111   .     S
C207   H210    1.110   .     S
C211   H213    1.110   .     S
C211   H214    1.111   .     S
C211   H212    1.109   .     S
C215   H218    1.107   .     S
C215   H217    1.111   .     S
C215   H216    1.104   .     S
C219   H222    1.109   .     S
C219   H220    1.102   .     S
C219   H221    1.111   .     S
O223   C227    1.290   .     A
O223   Zn235   1.961   .     S
O224   C228    1.294   .     A
O224   Zn236   1.961   .     S
O225   Zn236   1.979   .     S
O225   C227    1.289   .     A
O226   C228    1.293   .     A
O226   Zn235   1.979   .     S
C227   C247    1.441   .     S
C228   C248    1.458   .     S
O229   C233    1.276   .     A
O229   Zn235   1.961   .     S
O230   C234    1.276   .     A
O230   Zn236   1.961   .     S
O231   Zn236   1.981   .     S
O231   C233    1.285   .     A
O232   C234    1.285   .     A
O232   Zn235   1.981   .     S
C233   C237    1.403   .     S
C234   C238    1.403   .     S
Zn235  N264    2.013   .     S
Zn236  N263    2.013   .     S
C237   C386    1.335   1_455 S
C237   H387    1.088   1_455 S
C238   C311    1.335   .     S
C238   H314    1.088   .     S
H239   C311    1.088   .     S
H240   C386    1.088   1_455 S
C241   N275    1.442   .     S
C241   C243    1.391   .     A
C241   C255    1.406   .     A
C242   N278    1.442   .     S
C242   C256    1.404   .     A
C242   C244    1.391   .     A
C243   H245    1.084   .     S
C243   C247    1.402   .     A
C244   H246    1.083   .     S
C244   C248    1.407   .     A
C247   C249    1.408   .     A
C248   C250    1.413   .     A
C249   C281    1.510   .     S
C249   C251    1.388   .     A
C250   C252    1.390   .     A
C250   C285    1.507   .     S
C251   H253    1.085   .     S
C251   C255    1.400   .     A
C252   C256    1.397   .     A
C252   H254    1.085   .     S
C256   C33     1.446   1_565 S
C257   C261    1.410   .     A
C257   C273    1.399   .     A
C257   H259    1.082   .     S
C258   C274    1.398   .     A
C258   H260    1.083   .     S
C258   C262    1.409   .     A
C261   N263    1.379   .     A
C261   C289    1.502   .     S
C262   C293    1.499   .     S
C262   N264    1.380   .     A
N263   C265    1.364   .     A
N264   C266    1.365   .     A
C265   H267    1.082   .     S
C265   C269    1.411   .     A
C266   C270    1.412   .     A
C266   H268    1.081   .     S
C269   H271    1.082   .     S
C269   C273    1.413   .     A
C270   H272    1.082   .     S
C270   C274    1.413   .     A
C273   C718    1.515   1_554 S
C274   C717    1.515   .     S
N275   O277    1.302   .     A
N275   O276    1.301   .     A
N278   O280    1.302   .     A
N278   O279    1.301   .     A
C281   H282    1.108   .     S
C281   H283    1.111   .     S
C281   H284    1.110   .     S
C285   H287    1.110   .     S
C285   H288    1.111   .     S
C285   H286    1.109   .     S
C289   H292    1.107   .     S
C289   H291    1.111   .     S
C289   H290    1.104   .     S
C293   H296    1.109   .     S
C293   H294    1.102   .     S
C293   H295    1.111   .     S
O297   C301    1.290   .     A
O297   Zn309   1.961   .     S
O298   C302    1.294   .     A
O298   Zn310   1.961   .     S
O299   Zn310   1.979   .     S
O299   C301    1.289   .     A
O300   C302    1.293   .     A
O300   Zn309   1.979   .     S
C301   C321    1.441   .     S
C302   C322    1.458   .     S
O303   C307    1.276   .     A
O303   Zn309   1.961   .     S
O304   C308    1.276   .     A
O304   Zn310   1.961   .     S
O305   Zn310   1.981   .     S
O305   C307    1.285   .     A
O306   C308    1.285   .     A
O306   Zn309   1.981   .     S
C307   C311    1.403   .     S
C308   C312    1.403   .     S
Zn309  N338    2.013   .     S
Zn310  N337    2.013   .     S
C312   C385    1.335   .     S
C312   H388    1.088   .     S
H313   C385    1.088   .     S
C315   N349    1.442   .     S
C315   C317    1.391   .     A
C315   C329    1.406   .     A
C316   N352    1.442   .     S
C316   C330    1.404   .     A
C316   C318    1.391   .     A
C317   H319    1.084   .     S
C317   C321    1.402   .     A
C318   H320    1.083   .     S
C318   C322    1.407   .     A
C321   C323    1.408   .     A
C322   C324    1.413   .     A
C323   C355    1.510   .     S
C323   C325    1.388   .     A
C324   C326    1.390   .     A
C324   C359    1.507   .     S
C325   H327    1.085   .     S
C325   C329    1.400   .     A
C326   C330    1.397   .     A
C326   H328    1.085   .     S
C330   C107    1.446   1_565 S
C331   C335    1.410   .     A
C331   C347    1.399   .     A
C331   H333    1.082   .     S
C332   C348    1.398   .     A
C332   H334    1.083   .     S
C332   C336    1.409   .     A
C335   N337    1.379   .     A
C335   C363    1.502   .     S
C336   C367    1.499   .     S
C336   N338    1.380   .     A
N337   C339    1.364   .     A
N338   C340    1.365   .     A
C339   H341    1.082   .     S
C339   C343    1.411   .     A
C340   C344    1.412   .     A
C340   H342    1.081   .     S
C343   H345    1.082   .     S
C343   C347    1.413   .     A
C344   H346    1.082   .     S
C344   C348    1.413   .     A
C347   C792    1.515   1_554 S
C348   C791    1.515   .     S
N349   O351    1.302   .     A
N349   O350    1.301   .     A
N352   O354    1.302   .     A
N352   O353    1.301   .     A
C355   H356    1.108   .     S
C355   H357    1.111   .     S
C355   H358    1.110   .     S
C359   H361    1.110   .     S
C359   H362    1.111   .     S
C359   H360    1.109   .     S
C363   H366    1.107   .     S
C363   H365    1.111   .     S
C363   H364    1.104   .     S
C367   H370    1.109   .     S
C367   H368    1.102   .     S
C367   H369    1.111   .     S
O371   C375    1.290   .     A
O371   Zn383   1.961   .     S
O372   C376    1.294   .     A
O372   Zn384   1.961   .     S
O373   Zn384   1.979   .     S
O373   C375    1.289   .     A
O374   C376    1.293   .     A
O374   Zn383   1.979   .     S
C375   C395    1.441   .     S
C376   C396    1.458   .     S
O377   C381    1.276   .     A
O377   Zn383   1.961   .     S
O378   C382    1.276   .     A
O378   Zn384   1.961   .     S
O379   Zn384   1.981   .     S
O379   C381    1.285   .     A
O380   C382    1.285   .     A
O380   Zn383   1.981   .     S
C381   C385    1.403   .     S
C382   C386    1.403   .     S
Zn383  N412    2.013   .     S
Zn384  N411    2.013   .     S
C386   C237    1.335   1_655 S
C386   H240    1.088   1_655 S
H387   C237    1.088   1_655 S
C389   N423    1.442   .     S
C389   C391    1.391   .     A
C389   C403    1.406   .     A
C390   N426    1.442   .     S
C390   C404    1.404   .     A
C390   C392    1.391   .     A
C391   H393    1.084   .     S
C391   C395    1.402   .     A
C392   H394    1.083   .     S
C392   C396    1.407   .     A
C395   C397    1.408   .     A
C396   C398    1.413   .     A
C397   C429    1.510   .     S
C397   C399    1.388   .     A
C398   C400    1.390   .     A
C398   C433    1.507   .     S
C399   H401    1.085   .     S
C399   C403    1.400   .     A
C400   C404    1.397   .     A
C400   H402    1.085   .     S
C404   C181    1.446   1_565 S
C405   C409    1.410   .     A
C405   C421    1.399   .     A
C405   H407    1.082   .     S
C406   C422    1.398   .     A
C406   H408    1.083   .     S
C406   C410    1.409   .     A
C409   N411    1.379   .     A
C409   C437    1.502   .     S
C410   C441    1.499   .     S
C410   N412    1.380   .     A
N411   C413    1.364   .     A
N412   C414    1.365   .     A
C413   H415    1.082   .     S
C413   C417    1.411   .     A
C414   C418    1.412   .     A
C414   H416    1.081   .     S
C417   H419    1.082   .     S
C417   C421    1.413   .     A
C418   H420    1.082   .     S
C418   C422    1.413   .     A
C421   C866    1.515   1_554 S
C422   C865    1.515   .     S
N423   O425    1.302   .     A
N423   O424    1.301   .     A
N426   O428    1.302   .     A
N426   O427    1.301   .     A
C429   H430    1.108   .     S
C429   H431    1.111   .     S
C429   H432    1.110   .     S
C433   H435    1.110   .     S
C433   H436    1.111   .     S
C433   H434    1.109   .     S
C437   H440    1.107   .     S
C437   H439    1.111   .     S
C437   H438    1.104   .     S
C441   H444    1.109   .     S
C441   H442    1.102   .     S
C441   H443    1.111   .     S
O445   C449    1.290   .     A
O445   Zn457   1.961   .     S
O446   C450    1.294   .     A
O446   Zn458   1.961   .     S
O447   Zn458   1.979   .     S
O447   C449    1.289   .     A
O448   C450    1.293   .     A
O448   Zn457   1.979   .     S
C449   C469    1.441   .     S
C450   C470    1.458   .     S
O451   C455    1.276   .     A
O451   Zn457   1.961   .     S
O452   C456    1.276   .     A
O452   Zn458   1.961   .     S
O453   Zn458   1.981   .     S
O453   C455    1.285   .     A
O454   C456    1.285   .     A
O454   Zn457   1.981   .     S
C455   C459    1.403   .     S
C456   C460    1.403   .     S
Zn457  N486    2.013   .     S
Zn458  N485    2.013   .     S
C459   C608    1.335   1_455 S
C459   H609    1.088   1_455 S
C460   C533    1.335   .     S
C460   H536    1.088   .     S
H461   C533    1.088   .     S
H462   C608    1.088   1_455 S
C463   N497    1.442   .     S
C463   C465    1.391   .     A
C463   C477    1.406   .     A
C464   N500    1.442   .     S
C464   C478    1.404   .     A
C464   C466    1.391   .     A
C465   H467    1.084   .     S
C465   C469    1.402   .     A
C466   H468    1.083   .     S
C466   C470    1.407   .     A
C469   C471    1.408   .     A
C470   C472    1.413   .     A
C471   C503    1.510   .     S
C471   C473    1.388   .     A
C472   C474    1.390   .     A
C472   C507    1.507   .     S
C473   H475    1.085   .     S
C473   C477    1.400   .     A
C474   C478    1.397   .     A
C474   H476    1.085   .     S
C477   C700    1.446   1_545 S
C478   C699    1.446   .     S
C479   C483    1.410   .     A
C479   C495    1.399   .     A
C479   H481    1.082   .     S
C480   C496    1.398   .     A
C480   H482    1.083   .     S
C480   C484    1.409   .     A
C483   N485    1.379   .     A
C483   C511    1.502   .     S
C484   C515    1.499   .     S
C484   N486    1.380   .     A
N485   C487    1.364   .     A
N486   C488    1.365   .     A
C487   H489    1.082   .     S
C487   C491    1.411   .     A
C488   C492    1.412   .     A
C488   H490    1.081   .     S
C491   H493    1.082   .     S
C491   C495    1.413   .     A
C492   H494    1.082   .     S
C492   C496    1.413   .     A
C496   C51     1.515   1_556 S
N497   O499    1.302   .     A
N497   O498    1.301   .     A
N500   O502    1.302   .     A
N500   O501    1.301   .     A
C503   H504    1.108   .     S
C503   H505    1.111   .     S
C503   H506    1.110   .     S
C507   H509    1.110   .     S
C507   H510    1.111   .     S
C507   H508    1.109   .     S
C511   H514    1.107   .     S
C511   H513    1.111   .     S
C511   H512    1.104   .     S
C515   H518    1.109   .     S
C515   H516    1.102   .     S
C515   H517    1.111   .     S
O519   C523    1.290   .     A
O519   Zn531   1.961   .     S
O520   C524    1.294   .     A
O520   Zn532   1.961   .     S
O521   Zn532   1.979   .     S
O521   C523    1.289   .     A
O522   C524    1.293   .     A
O522   Zn531   1.979   .     S
C523   C543    1.441   .     S
C524   C544    1.458   .     S
O525   C529    1.276   .     A
O525   Zn531   1.961   .     S
O526   C530    1.276   .     A
O526   Zn532   1.961   .     S
O527   Zn532   1.981   .     S
O527   C529    1.285   .     A
O528   C530    1.285   .     A
O528   Zn531   1.981   .     S
C529   C533    1.403   .     S
C530   C534    1.403   .     S
Zn531  N560    2.013   .     S
Zn532  N559    2.013   .     S
C534   C607    1.335   .     S
C534   H610    1.088   .     S
H535   C607    1.088   .     S
C537   N571    1.442   .     S
C537   C539    1.391   .     A
C537   C551    1.406   .     A
C538   N574    1.442   .     S
C538   C552    1.404   .     A
C538   C540    1.391   .     A
C539   H541    1.084   .     S
C539   C543    1.402   .     A
C540   H542    1.083   .     S
C540   C544    1.407   .     A
C543   C545    1.408   .     A
C544   C546    1.413   .     A
C545   C577    1.510   .     S
C545   C547    1.388   .     A
C546   C548    1.390   .     A
C546   C581    1.507   .     S
C547   H549    1.085   .     S
C547   C551    1.400   .     A
C548   C552    1.397   .     A
C548   H550    1.085   .     S
C551   C774    1.446   1_545 S
C552   C773    1.446   .     S
C553   C557    1.410   .     A
C553   C569    1.399   .     A
C553   H555    1.082   .     S
C554   C570    1.398   .     A
C554   H556    1.083   .     S
C554   C558    1.409   .     A
C557   N559    1.379   .     A
C557   C585    1.502   .     S
C558   C589    1.499   .     S
C558   N560    1.380   .     A
N559   C561    1.364   .     A
N560   C562    1.365   .     A
C561   H563    1.082   .     S
C561   C565    1.411   .     A
C562   C566    1.412   .     A
C562   H564    1.081   .     S
C565   H567    1.082   .     S
C565   C569    1.413   .     A
C566   H568    1.082   .     S
C566   C570    1.413   .     A
C570   C125    1.515   1_556 S
N571   O573    1.302   .     A
N571   O572    1.301   .     A
N574   O576    1.302   .     A
N574   O575    1.301   .     A
C577   H578    1.108   .     S
C577   H579    1.111   .     S
C577   H580    1.110   .     S
C581   H583    1.110   .     S
C581   H584    1.111   .     S
C581   H582    1.109   .     S
C585   H588    1.107   .     S
C585   H587    1.111   .     S
C585   H586    1.104   .     S
C589   H592    1.109   .     S
C589   H590    1.102   .     S
C589   H591    1.111   .     S
O593   C597    1.290   .     A
O593   Zn605   1.961   .     S
O594   C598    1.294   .     A
O594   Zn606   1.961   .     S
O595   Zn606   1.979   .     S
O595   C597    1.289   .     A
O596   C598    1.293   .     A
O596   Zn605   1.979   .     S
C597   C617    1.441   .     S
C598   C618    1.458   .     S
O599   C603    1.276   .     A
O599   Zn605   1.961   .     S
O600   C604    1.276   .     A
O600   Zn606   1.961   .     S
O601   Zn606   1.981   .     S
O601   C603    1.285   .     A
O602   C604    1.285   .     A
O602   Zn605   1.981   .     S
C603   C607    1.403   .     S
C604   C608    1.403   .     S
Zn605  N634    2.013   .     S
Zn606  N633    2.013   .     S
C608   C459    1.335   1_655 S
C608   H462    1.088   1_655 S
H609   C459    1.088   1_655 S
C611   N645    1.442   .     S
C611   C613    1.391   .     A
C611   C625    1.406   .     A
C612   N648    1.442   .     S
C612   C626    1.404   .     A
C612   C614    1.391   .     A
C613   H615    1.084   .     S
C613   C617    1.402   .     A
C614   H616    1.083   .     S
C614   C618    1.407   .     A
C617   C619    1.408   .     A
C618   C620    1.413   .     A
C619   C651    1.510   .     S
C619   C621    1.388   .     A
C620   C622    1.390   .     A
C620   C655    1.507   .     S
C621   H623    1.085   .     S
C621   C625    1.400   .     A
C622   C626    1.397   .     A
C622   H624    1.085   .     S
C625   C848    1.446   1_545 S
C626   C847    1.446   .     S
C627   C631    1.410   .     A
C627   C643    1.399   .     A
C627   H629    1.082   .     S
C628   C644    1.398   .     A
C628   H630    1.083   .     S
C628   C632    1.409   .     A
C631   N633    1.379   .     A
C631   C659    1.502   .     S
C632   C663    1.499   .     S
C632   N634    1.380   .     A
N633   C635    1.364   .     A
N634   C636    1.365   .     A
C635   H637    1.082   .     S
C635   C639    1.411   .     A
C636   C640    1.412   .     A
C636   H638    1.081   .     S
C639   H641    1.082   .     S
C639   C643    1.413   .     A
C640   H642    1.082   .     S
C640   C644    1.413   .     A
C644   C199    1.515   1_556 S
N645   O647    1.302   .     A
N645   O646    1.301   .     A
N648   O650    1.302   .     A
N648   O649    1.301   .     A
C651   H652    1.108   .     S
C651   H653    1.111   .     S
C651   H654    1.110   .     S
C655   H657    1.110   .     S
C655   H658    1.111   .     S
C655   H656    1.109   .     S
C659   H662    1.107   .     S
C659   H661    1.111   .     S
C659   H660    1.104   .     S
C663   H666    1.109   .     S
C663   H664    1.102   .     S
C663   H665    1.111   .     S
O667   C671    1.290   .     A
O667   Zn679   1.961   .     S
O668   C672    1.294   .     A
O668   Zn680   1.961   .     S
O669   Zn680   1.979   .     S
O669   C671    1.289   .     A
O670   C672    1.293   .     A
O670   Zn679   1.979   .     S
C671   C691    1.441   .     S
C672   C692    1.458   .     S
O673   C677    1.276   .     A
O673   Zn679   1.961   .     S
O674   C678    1.276   .     A
O674   Zn680   1.961   .     S
O675   Zn680   1.981   .     S
O675   C677    1.285   .     A
O676   C678    1.285   .     A
O676   Zn679   1.981   .     S
C677   C681    1.403   .     S
C678   C682    1.403   .     S
Zn679  N708    2.013   .     S
Zn680  N707    2.013   .     S
C681   C830    1.335   1_455 S
C681   H831    1.088   1_455 S
C682   C755    1.335   .     S
C682   H758    1.088   .     S
H683   C755    1.088   .     S
H684   C830    1.088   1_455 S
C685   N719    1.442   .     S
C685   C687    1.391   .     A
C685   C699    1.406   .     A
C686   N722    1.442   .     S
C686   C700    1.404   .     A
C686   C688    1.391   .     A
C687   H689    1.084   .     S
C687   C691    1.402   .     A
C688   H690    1.083   .     S
C688   C692    1.407   .     A
C691   C693    1.408   .     A
C692   C694    1.413   .     A
C693   C725    1.510   .     S
C693   C695    1.388   .     A
C694   C696    1.390   .     A
C694   C729    1.507   .     S
C695   H697    1.085   .     S
C695   C699    1.400   .     A
C696   C700    1.397   .     A
C696   H698    1.085   .     S
C700   C477    1.446   1_565 S
C701   C705    1.410   .     A
C701   C717    1.399   .     A
C701   H703    1.082   .     S
C702   C718    1.398   .     A
C702   H704    1.083   .     S
C702   C706    1.409   .     A
C705   N707    1.379   .     A
C705   C733    1.502   .     S
C706   C737    1.499   .     S
C706   N708    1.380   .     A
N707   C709    1.364   .     A
N708   C710    1.365   .     A
C709   H711    1.082   .     S
C709   C713    1.411   .     A
C710   C714    1.412   .     A
C710   H712    1.081   .     S
C713   H715    1.082   .     S
C713   C717    1.413   .     A
C714   H716    1.082   .     S
C714   C718    1.413   .     A
C718   C273    1.515   1_556 S
N719   O721    1.302   .     A
N719   O720    1.301   .     A
N722   O724    1.302   .     A
N722   O723    1.301   .     A
C725   H726    1.108   .     S
C725   H727    1.111   .     S
C725   H728    1.110   .     S
C729   H731    1.110   .     S
C729   H732    1.111   .     S
C729   H730    1.109   .     S
C733   H736    1.107   .     S
C733   H735    1.111   .     S
C733   H734    1.104   .     S
C737   H740    1.109   .     S
C737   H738    1.102   .     S
C737   H739    1.111   .     S
O741   C745    1.290   .     A
O741   Zn753   1.961   .     S
O742   C746    1.294   .     A
O742   Zn754   1.961   .     S
O743   Zn754   1.979   .     S
O743   C745    1.289   .     A
O744   C746    1.293   .     A
O744   Zn753   1.979   .     S
C745   C765    1.441   .     S
C746   C766    1.458   .     S
O747   C751    1.276   .     A
O747   Zn753   1.961   .     S
O748   C752    1.276   .     A
O748   Zn754   1.961   .     S
O749   Zn754   1.981   .     S
O749   C751    1.285   .     A
O750   C752    1.285   .     A
O750   Zn753   1.981   .     S
C751   C755    1.403   .     S
C752   C756    1.403   .     S
Zn753  N782    2.013   .     S
Zn754  N781    2.013   .     S
C756   C829    1.335   .     S
C756   H832    1.088   .     S
H757   C829    1.088   .     S
C759   N793    1.442   .     S
C759   C761    1.391   .     A
C759   C773    1.406   .     A
C760   N796    1.442   .     S
C760   C774    1.404   .     A
C760   C762    1.391   .     A
C761   H763    1.084   .     S
C761   C765    1.402   .     A
C762   H764    1.083   .     S
C762   C766    1.407   .     A
C765   C767    1.408   .     A
C766   C768    1.413   .     A
C767   C799    1.510   .     S
C767   C769    1.388   .     A
C768   C770    1.390   .     A
C768   C803    1.507   .     S
C769   H771    1.085   .     S
C769   C773    1.400   .     A
C770   C774    1.397   .     A
C770   H772    1.085   .     S
C774   C551    1.446   1_565 S
C775   C779    1.410   .     A
C775   C791    1.399   .     A
C775   H777    1.082   .     S
C776   C792    1.398   .     A
C776   H778    1.083   .     S
C776   C780    1.409   .     A
C779   N781    1.379   .     A
C779   C807    1.502   .     S
C780   C811    1.499   .     S
C780   N782    1.380   .     A
N781   C783    1.364   .     A
N782   C784    1.365   .     A
C783   H785    1.082   .     S
C783   C787    1.411   .     A
C784   C788    1.412   .     A
C784   H786    1.081   .     S
C787   H789    1.082   .     S
C787   C791    1.413   .     A
C788   H790    1.082   .     S
C788   C792    1.413   .     A
C792   C347    1.515   1_556 S
N793   O795    1.302   .     A
N793   O794    1.301   .     A
N796   O798    1.302   .     A
N796   O797    1.301   .     A
C799   H800    1.108   .     S
C799   H801    1.111   .     S
C799   H802    1.110   .     S
C803   H805    1.110   .     S
C803   H806    1.111   .     S
C803   H804    1.109   .     S
C807   H810    1.107   .     S
C807   H809    1.111   .     S
C807   H808    1.104   .     S
C811   H814    1.109   .     S
C811   H812    1.102   .     S
C811   H813    1.111   .     S
O815   C819    1.290   .     A
O815   Zn827   1.961   .     S
O816   C820    1.294   .     A
O816   Zn828   1.961   .     S
O817   Zn828   1.979   .     S
O817   C819    1.289   .     A
O818   C820    1.293   .     A
O818   Zn827   1.979   .     S
C819   C839    1.441   .     S
C820   C840    1.458   .     S
O821   C825    1.276   .     A
O821   Zn827   1.961   .     S
O822   C826    1.276   .     A
O822   Zn828   1.961   .     S
O823   Zn828   1.981   .     S
O823   C825    1.285   .     A
O824   C826    1.285   .     A
O824   Zn827   1.981   .     S
C825   C829    1.403   .     S
C826   C830    1.403   .     S
Zn827  N856    2.013   .     S
Zn828  N855    2.013   .     S
C830   C681    1.335   1_655 S
C830   H684    1.088   1_655 S
H831   C681    1.088   1_655 S
C833   N867    1.442   .     S
C833   C835    1.391   .     A
C833   C847    1.406   .     A
C834   N870    1.442   .     S
C834   C848    1.404   .     A
C834   C836    1.391   .     A
C835   H837    1.084   .     S
C835   C839    1.402   .     A
C836   H838    1.083   .     S
C836   C840    1.407   .     A
C839   C841    1.408   .     A
C840   C842    1.413   .     A
C841   C873    1.510   .     S
C841   C843    1.388   .     A
C842   C844    1.390   .     A
C842   C877    1.507   .     S
C843   H845    1.085   .     S
C843   C847    1.400   .     A
C844   C848    1.397   .     A
C844   H846    1.085   .     S
C848   C625    1.446   1_565 S
C849   C853    1.410   .     A
C849   C865    1.399   .     A
C849   H851    1.082   .     S
C850   C866    1.398   .     A
C850   H852    1.083   .     S
C850   C854    1.409   .     A
C853   N855    1.379   .     A
C853   C881    1.502   .     S
C854   C885    1.499   .     S
C854   N856    1.380   .     A
N855   C857    1.364   .     A
N856   C858    1.365   .     A
C857   H859    1.082   .     S
C857   C861    1.411   .     A
C858   C862    1.412   .     A
C858   H860    1.081   .     S
C861   H863    1.082   .     S
C861   C865    1.413   .     A
C862   H864    1.082   .     S
C862   C866    1.413   .     A
C866   C421    1.515   1_556 S
N867   O869    1.302   .     A
N867   O868    1.301   .     A
N870   O872    1.302   .     A
N870   O871    1.301   .     A
C873   H874    1.108   .     S
C873   H875    1.111   .     S
C873   H876    1.110   .     S
C877   H879    1.110   .     S
C877   H880    1.111   .     S
C877   H878    1.109   .     S
C881   H884    1.107   .     S
C881   H883    1.111   .     S
C881   H882    1.104   .     S
C885   H888    1.109   .     S
C885   H886    1.102   .     S
C885   H887    1.111   .     S
