data_str_m2_o1_o17_pcu_sym.194
_audit_creation_date              2020-01-03
_audit_creation_method            'Materials Studio'
_symmetry_space_group_name_H-M    'P1'
_symmetry_Int_Tables_number       1
_symmetry_cell_setting            triclinic
loop_
_symmetry_equiv_pos_as_xyz
  x,y,z
_cell_length_a                    32.4199
_cell_length_b                    28.5590
_cell_length_c                    30.0984
_cell_angle_alpha                 90.2444
_cell_angle_beta                  89.0191
_cell_angle_gamma                 90.1063
loop_
_atom_site_label
_atom_site_type_symbol
_atom_site_fract_x
_atom_site_fract_y
_atom_site_fract_z
_atom_site_U_iso_or_equiv
_atom_site_adp_type
_atom_site_occupancy
C1     C     0.08736   0.16664   0.25009   0.00000  Uiso   1.00
C2     C     0.24595   0.16673   0.25085   0.00000  Uiso   1.00
C3     C     0.09929   0.19903   0.02867   0.00000  Uiso   1.00
C4     C     0.23856   0.14618   0.47067   0.00000  Uiso   1.00
C5     C     0.02112   0.12537   0.26031   0.00000  Uiso   1.00
C6     C     0.31218   0.20844   0.24304   0.00000  Uiso   1.00
C7     C     0.31178   0.12552   0.26106   0.00000  Uiso   1.00
C8     C     0.02149   0.20826   0.24219   0.00000  Uiso   1.00
C9     C     0.29054   0.16695   0.25197   0.00000  Uiso   1.00
C10    C     0.04275   0.16668   0.25068   0.00000  Uiso   1.00
C11    C     0.14056   0.02463   0.22343   0.00000  Uiso   1.00
C12    C     0.19275   0.30870   0.27660   0.00000  Uiso   1.00
C13    C     0.19276   0.02497   0.27659   0.00000  Uiso   1.00
C14    C     0.14056   0.30836   0.22343   0.00000  Uiso   1.00
C15    C     0.16895   0.16656   0.16449   0.00000  Uiso   1.00
C16    C     0.16486   0.16680   0.33544   0.00000  Uiso   1.00
C17    C     0.19974   0.15648   0.40477   0.00000  Uiso   1.00
C18    C     0.13635   0.18268   0.09476   0.00000  Uiso   1.00
C19    C     0.16341   0.16734   0.38363   0.00000  Uiso   1.00
C20    C     0.17107   0.16657   0.11612   0.00000  Uiso   1.00
C21    C     0.12724   0.17961   0.40795   0.00000  Uiso   1.00
C22    C     0.20683   0.15238   0.09178   0.00000  Uiso   1.00
C23    C     0.12953   0.18407   0.45525   0.00000  Uiso   1.00
C24    C     0.20709   0.15659   0.04430   0.00000  Uiso   1.00
C25    C     0.16701   0.17100   0.47635   0.00000  Uiso   1.00
C26    C     0.16986   0.17060   0.02319   0.00000  Uiso   1.00
C27    C     0.20163   0.15751   0.45065   0.00000  Uiso   1.00
C28    C     0.13513   0.18385   0.04884   0.00000  Uiso   1.00
C29    C     0.09648   0.20147   0.48240   0.00000  Uiso   1.00
C30    C     0.24267   0.14796   0.01682   0.00000  Uiso   1.00
Cu31   Cu    0.16667   0.21355   0.25000   0.00000  Uiso   1.00
Cu32   Cu    0.16667   0.11978   0.25000   0.00000  Uiso   1.00
H33    H     0.22688   0.14711   0.38502   0.00000  Uiso   1.00
H34    H     0.10957   0.19356   0.11438   0.00000  Uiso   1.00
H35    H     0.07305   0.20937   0.04920   0.00000  Uiso   1.00
H36    H     0.26484   0.13607   0.45007   0.00000  Uiso   1.00
H37    H     0.03710   0.09304   0.26737   0.00000  Uiso   1.00
H38    H     0.29625   0.24078   0.23589   0.00000  Uiso   1.00
H39    H     0.29549   0.09324   0.26840   0.00000  Uiso   1.00
H40    H     0.03774   0.24054   0.23473   0.00000  Uiso   1.00
H41    H     0.11966   0.04318   0.20212   0.00000  Uiso   1.00
H42    H     0.21364   0.29015   0.29791   0.00000  Uiso   1.00
H43    H     0.21366   0.04380   0.29790   0.00000  Uiso   1.00
H44    H     0.11964   0.28953   0.20214   0.00000  Uiso   1.00
N45    N     0.16667   0.28402   0.25000   0.00000  Uiso   1.00
N46    N     0.16667   0.04931   0.25000   0.00000  Uiso   1.00
O47    O     0.10655   0.20625   0.25000   0.00000  Uiso   1.00
O48    O     0.22679   0.12709   0.25001   0.00000  Uiso   1.00
O49    O     0.22679   0.20625   0.25001   0.00000  Uiso   1.00
O50    O     0.10655   0.12709   0.25000   0.00000  Uiso   1.00
O51    O     0.16666   0.20627   0.18513   0.00000  Uiso   1.00
O52    O     0.16668   0.12707   0.31487   0.00000  Uiso   1.00
O53    O     0.16668   0.20627   0.31487   0.00000  Uiso   1.00
O54    O     0.16666   0.12707   0.18513   0.00000  Uiso   1.00
C55    C     0.08651   0.18162   0.38338   0.00000  Uiso   1.00
C56    C     0.07683   0.23112   0.36664   0.00000  Uiso   1.00
C57    C     0.03090   0.23663   0.35760   0.00000  Uiso   1.00
H58    H     0.02016   0.20841   0.33518   0.00000  Uiso   1.00
H59    H     0.01270   0.23482   0.38912   0.00000  Uiso   1.00
H60    H     0.02528   0.27103   0.34178   0.00000  Uiso   1.00
H61    H     0.08629   0.25812   0.39107   0.00000  Uiso   1.00
H62    H     0.09445   0.23787   0.33541   0.00000  Uiso   1.00
H63    H     0.08712   0.15738   0.35438   0.00000  Uiso   1.00
H64    H     0.06113   0.16710   0.40435   0.00000  Uiso   1.00
C65    C     0.24296   0.13175   0.11685   0.00000  Uiso   1.00
C66    C     0.27451   0.16960   0.12927   0.00000  Uiso   1.00
C67    C     0.31607   0.14788   0.14032   0.00000  Uiso   1.00
H68    H     0.32938   0.12949   0.11087   0.00000  Uiso   1.00
H69    H     0.00457   0.17573   0.15054   0.00000  Uiso   1.00
H70    H     0.31235   0.12226   0.16768   0.00000  Uiso   1.00
H71    H     0.27906   0.19501   0.10182   0.00000  Uiso   1.00
H72    H     0.26265   0.18967   0.15845   0.00000  Uiso   1.00
H73    H     0.23262   0.11410   0.14777   0.00000  Uiso   1.00
H74    H     0.25700   0.10235   0.09782   0.00000  Uiso   1.00
O75    O     0.06092   0.21939   0.46406   0.00000  Uiso   1.00
C76    C     0.05431   0.26603   0.47842   0.00000  Uiso   1.00
H77    H     0.08325   0.28716   0.47774   0.00000  Uiso   1.00
H78    H     0.03967   0.26692   0.01203   0.00000  Uiso   1.00
H79    H     0.03253   0.28295   0.45549   0.00000  Uiso   1.00
O80    O     0.28108   0.13939   0.03468   0.00000  Uiso   1.00
C81    C     0.31085   0.17119   0.01763   0.00000  Uiso   1.00
H82    H     0.29869   0.20757   0.01522   0.00000  Uiso   1.00
H83    H     0.32317   0.15909   0.48492   0.00000  Uiso   1.00
H84    H     0.00386   0.17231   0.04057   0.00000  Uiso   1.00
C85    C     0.42070   0.16664   0.25009   0.00000  Uiso   1.00
C86    C     0.57928   0.16673   0.25085   0.00000  Uiso   1.00
C87    C     0.43262   0.19903   0.02867   0.00000  Uiso   1.00
C88    C     0.57190   0.14618   0.47067   0.00000  Uiso   1.00
C89    C     0.35445   0.12537   0.26031   0.00000  Uiso   1.00
C90    C     0.64552   0.20844   0.24304   0.00000  Uiso   1.00
C91    C     0.64511   0.12552   0.26106   0.00000  Uiso   1.00
C92    C     0.35483   0.20826   0.24219   0.00000  Uiso   1.00
C93    C     0.62387   0.16695   0.25197   0.00000  Uiso   1.00
C94    C     0.37608   0.16668   0.25068   0.00000  Uiso   1.00
C95    C     0.47390   0.02463   0.22343   0.00000  Uiso   1.00
C96    C     0.52608   0.30870   0.27660   0.00000  Uiso   1.00
C97    C     0.52609   0.02497   0.27659   0.00000  Uiso   1.00
C98    C     0.47389   0.30836   0.22343   0.00000  Uiso   1.00
C99    C     0.50229   0.16656   0.16449   0.00000  Uiso   1.00
C100   C     0.49820   0.16680   0.33544   0.00000  Uiso   1.00
C101   C     0.53307   0.15648   0.40477   0.00000  Uiso   1.00
C102   C     0.46968   0.18268   0.09476   0.00000  Uiso   1.00
C103   C     0.49675   0.16734   0.38363   0.00000  Uiso   1.00
C104   C     0.50440   0.16657   0.11612   0.00000  Uiso   1.00
C105   C     0.46058   0.17961   0.40795   0.00000  Uiso   1.00
C106   C     0.54016   0.15238   0.09178   0.00000  Uiso   1.00
C107   C     0.46287   0.18407   0.45525   0.00000  Uiso   1.00
C108   C     0.54042   0.15659   0.04430   0.00000  Uiso   1.00
C109   C     0.50034   0.17100   0.47635   0.00000  Uiso   1.00
C110   C     0.50319   0.17060   0.02319   0.00000  Uiso   1.00
C111   C     0.53497   0.15751   0.45065   0.00000  Uiso   1.00
C112   C     0.46846   0.18385   0.04884   0.00000  Uiso   1.00
C113   C     0.42982   0.20147   0.48240   0.00000  Uiso   1.00
C114   C     0.57601   0.14796   0.01682   0.00000  Uiso   1.00
Cu115  Cu    0.50000   0.21355   0.25000   0.00000  Uiso   1.00
Cu116  Cu    0.50000   0.11978   0.25000   0.00000  Uiso   1.00
H117   H     0.56021   0.14711   0.38502   0.00000  Uiso   1.00
H118   H     0.44290   0.19356   0.11438   0.00000  Uiso   1.00
H119   H     0.40639   0.20937   0.04920   0.00000  Uiso   1.00
H120   H     0.59817   0.13607   0.45007   0.00000  Uiso   1.00
H121   H     0.37044   0.09304   0.26737   0.00000  Uiso   1.00
H122   H     0.62958   0.24078   0.23589   0.00000  Uiso   1.00
H123   H     0.62882   0.09324   0.26840   0.00000  Uiso   1.00
H124   H     0.37108   0.24054   0.23473   0.00000  Uiso   1.00
H125   H     0.45300   0.04318   0.20212   0.00000  Uiso   1.00
H126   H     0.54698   0.29015   0.29791   0.00000  Uiso   1.00
H127   H     0.54699   0.04380   0.29790   0.00000  Uiso   1.00
H128   H     0.45298   0.28953   0.20214   0.00000  Uiso   1.00
N129   N     0.50000   0.28402   0.25000   0.00000  Uiso   1.00
N130   N     0.50000   0.04931   0.25000   0.00000  Uiso   1.00
O131   O     0.43988   0.20625   0.25000   0.00000  Uiso   1.00
O132   O     0.56012   0.12709   0.25001   0.00000  Uiso   1.00
O133   O     0.56012   0.20625   0.25001   0.00000  Uiso   1.00
O134   O     0.43988   0.12709   0.25000   0.00000  Uiso   1.00
O135   O     0.49999   0.20627   0.18513   0.00000  Uiso   1.00
O136   O     0.50001   0.12707   0.31487   0.00000  Uiso   1.00
O137   O     0.50001   0.20627   0.31487   0.00000  Uiso   1.00
O138   O     0.49999   0.12707   0.18513   0.00000  Uiso   1.00
C139   C     0.41984   0.18162   0.38338   0.00000  Uiso   1.00
C140   C     0.41017   0.23112   0.36664   0.00000  Uiso   1.00
C141   C     0.36424   0.23663   0.35760   0.00000  Uiso   1.00
H142   H     0.35349   0.20841   0.33518   0.00000  Uiso   1.00
H143   H     0.34603   0.23482   0.38912   0.00000  Uiso   1.00
H144   H     0.35861   0.27103   0.34178   0.00000  Uiso   1.00
H145   H     0.41963   0.25812   0.39107   0.00000  Uiso   1.00
H146   H     0.42779   0.23787   0.33541   0.00000  Uiso   1.00
H147   H     0.42045   0.15738   0.35438   0.00000  Uiso   1.00
H148   H     0.39446   0.16710   0.40435   0.00000  Uiso   1.00
C149   C     0.57630   0.13175   0.11685   0.00000  Uiso   1.00
C150   C     0.60784   0.16960   0.12927   0.00000  Uiso   1.00
C151   C     0.64940   0.14788   0.14032   0.00000  Uiso   1.00
H152   H     0.66271   0.12949   0.11087   0.00000  Uiso   1.00
H153   H     0.33790   0.17573   0.15054   0.00000  Uiso   1.00
H154   H     0.64568   0.12226   0.16768   0.00000  Uiso   1.00
H155   H     0.61239   0.19501   0.10182   0.00000  Uiso   1.00
H156   H     0.59598   0.18967   0.15845   0.00000  Uiso   1.00
H157   H     0.56595   0.11410   0.14777   0.00000  Uiso   1.00
H158   H     0.59033   0.10235   0.09782   0.00000  Uiso   1.00
O159   O     0.39425   0.21939   0.46406   0.00000  Uiso   1.00
C160   C     0.38765   0.26603   0.47842   0.00000  Uiso   1.00
H161   H     0.41659   0.28716   0.47774   0.00000  Uiso   1.00
H162   H     0.37300   0.26692   0.01203   0.00000  Uiso   1.00
H163   H     0.36586   0.28295   0.45549   0.00000  Uiso   1.00
O164   O     0.61442   0.13939   0.03468   0.00000  Uiso   1.00
C165   C     0.64418   0.17119   0.01763   0.00000  Uiso   1.00
H166   H     0.63202   0.20757   0.01522   0.00000  Uiso   1.00
H167   H     0.65651   0.15909   0.48492   0.00000  Uiso   1.00
H168   H     0.33719   0.17231   0.04057   0.00000  Uiso   1.00
C169   C     0.75403   0.16664   0.25009   0.00000  Uiso   1.00
C170   C     0.91261   0.16673   0.25085   0.00000  Uiso   1.00
C171   C     0.76595   0.19903   0.02867   0.00000  Uiso   1.00
C172   C     0.90523   0.14618   0.47067   0.00000  Uiso   1.00
C173   C     0.68779   0.12537   0.26031   0.00000  Uiso   1.00
C174   C     0.97885   0.20844   0.24304   0.00000  Uiso   1.00
C175   C     0.97845   0.12552   0.26106   0.00000  Uiso   1.00
C176   C     0.68816   0.20826   0.24219   0.00000  Uiso   1.00
C177   C     0.95721   0.16695   0.25197   0.00000  Uiso   1.00
C178   C     0.70942   0.16668   0.25068   0.00000  Uiso   1.00
C179   C     0.80723   0.02463   0.22343   0.00000  Uiso   1.00
C180   C     0.85942   0.30870   0.27660   0.00000  Uiso   1.00
C181   C     0.85942   0.02497   0.27659   0.00000  Uiso   1.00
C182   C     0.80722   0.30836   0.22343   0.00000  Uiso   1.00
C183   C     0.83562   0.16656   0.16449   0.00000  Uiso   1.00
C184   C     0.83153   0.16680   0.33544   0.00000  Uiso   1.00
C185   C     0.86641   0.15648   0.40477   0.00000  Uiso   1.00
C186   C     0.80301   0.18268   0.09476   0.00000  Uiso   1.00
C187   C     0.83008   0.16734   0.38363   0.00000  Uiso   1.00
C188   C     0.83774   0.16657   0.11612   0.00000  Uiso   1.00
C189   C     0.79391   0.17961   0.40795   0.00000  Uiso   1.00
C190   C     0.87349   0.15238   0.09178   0.00000  Uiso   1.00
C191   C     0.79620   0.18407   0.45525   0.00000  Uiso   1.00
C192   C     0.87375   0.15659   0.04430   0.00000  Uiso   1.00
C193   C     0.83368   0.17100   0.47635   0.00000  Uiso   1.00
C194   C     0.83653   0.17060   0.02319   0.00000  Uiso   1.00
C195   C     0.86830   0.15751   0.45065   0.00000  Uiso   1.00
C196   C     0.80179   0.18385   0.04884   0.00000  Uiso   1.00
C197   C     0.76315   0.20147   0.48240   0.00000  Uiso   1.00
C198   C     0.90934   0.14796   0.01682   0.00000  Uiso   1.00
Cu199  Cu    0.83333   0.21355   0.25000   0.00000  Uiso   1.00
Cu200  Cu    0.83333   0.11978   0.25000   0.00000  Uiso   1.00
H201   H     0.89355   0.14711   0.38502   0.00000  Uiso   1.00
H202   H     0.77624   0.19356   0.11438   0.00000  Uiso   1.00
H203   H     0.73972   0.20937   0.04920   0.00000  Uiso   1.00
H204   H     0.93150   0.13607   0.45007   0.00000  Uiso   1.00
H205   H     0.70377   0.09304   0.26737   0.00000  Uiso   1.00
H206   H     0.96291   0.24078   0.23589   0.00000  Uiso   1.00
H207   H     0.96216   0.09324   0.26840   0.00000  Uiso   1.00
H208   H     0.70441   0.24054   0.23473   0.00000  Uiso   1.00
H209   H     0.78633   0.04318   0.20212   0.00000  Uiso   1.00
H210   H     0.88031   0.29015   0.29791   0.00000  Uiso   1.00
H211   H     0.88033   0.04380   0.29790   0.00000  Uiso   1.00
H212   H     0.78631   0.28953   0.20214   0.00000  Uiso   1.00
N213   N     0.83333   0.28402   0.25000   0.00000  Uiso   1.00
N214   N     0.83333   0.04931   0.25000   0.00000  Uiso   1.00
O215   O     0.77321   0.20625   0.25000   0.00000  Uiso   1.00
O216   O     0.89345   0.12709   0.25001   0.00000  Uiso   1.00
O217   O     0.89345   0.20625   0.25001   0.00000  Uiso   1.00
O218   O     0.77321   0.12709   0.25000   0.00000  Uiso   1.00
O219   O     0.83332   0.20627   0.18513   0.00000  Uiso   1.00
O220   O     0.83334   0.12707   0.31487   0.00000  Uiso   1.00
O221   O     0.83334   0.20627   0.31487   0.00000  Uiso   1.00
O222   O     0.83332   0.12707   0.18513   0.00000  Uiso   1.00
C223   C     0.75318   0.18162   0.38338   0.00000  Uiso   1.00
C224   C     0.74350   0.23112   0.36664   0.00000  Uiso   1.00
C225   C     0.69757   0.23663   0.35760   0.00000  Uiso   1.00
H226   H     0.68683   0.20841   0.33518   0.00000  Uiso   1.00
H227   H     0.67936   0.23482   0.38912   0.00000  Uiso   1.00
H228   H     0.69195   0.27103   0.34178   0.00000  Uiso   1.00
H229   H     0.75296   0.25812   0.39107   0.00000  Uiso   1.00
H230   H     0.76112   0.23787   0.33541   0.00000  Uiso   1.00
H231   H     0.75378   0.15738   0.35438   0.00000  Uiso   1.00
H232   H     0.72780   0.16710   0.40435   0.00000  Uiso   1.00
C233   C     0.90963   0.13175   0.11685   0.00000  Uiso   1.00
C234   C     0.94117   0.16960   0.12927   0.00000  Uiso   1.00
C235   C     0.98274   0.14788   0.14032   0.00000  Uiso   1.00
H236   H     0.99604   0.12949   0.11087   0.00000  Uiso   1.00
H237   H     0.67124   0.17573   0.15054   0.00000  Uiso   1.00
H238   H     0.97901   0.12226   0.16768   0.00000  Uiso   1.00
H239   H     0.94573   0.19501   0.10182   0.00000  Uiso   1.00
H240   H     0.92932   0.18967   0.15845   0.00000  Uiso   1.00
H241   H     0.89929   0.11410   0.14777   0.00000  Uiso   1.00
H242   H     0.92367   0.10235   0.09782   0.00000  Uiso   1.00
O243   O     0.72758   0.21939   0.46406   0.00000  Uiso   1.00
C244   C     0.72098   0.26603   0.47842   0.00000  Uiso   1.00
H245   H     0.74992   0.28716   0.47774   0.00000  Uiso   1.00
H246   H     0.70633   0.26692   0.01203   0.00000  Uiso   1.00
H247   H     0.69920   0.28295   0.45549   0.00000  Uiso   1.00
O248   O     0.94775   0.13939   0.03468   0.00000  Uiso   1.00
C249   C     0.97751   0.17119   0.01763   0.00000  Uiso   1.00
H250   H     0.96536   0.20757   0.01522   0.00000  Uiso   1.00
H251   H     0.98984   0.15909   0.48492   0.00000  Uiso   1.00
H252   H     0.67053   0.17231   0.04057   0.00000  Uiso   1.00
C253   C     0.08736   0.49998   0.25009   0.00000  Uiso   1.00
C254   C     0.24595   0.50006   0.25085   0.00000  Uiso   1.00
C255   C     0.09929   0.53236   0.02867   0.00000  Uiso   1.00
C256   C     0.23856   0.47951   0.47067   0.00000  Uiso   1.00
C257   C     0.02112   0.45870   0.26031   0.00000  Uiso   1.00
C258   C     0.31218   0.54178   0.24304   0.00000  Uiso   1.00
C259   C     0.31178   0.45886   0.26106   0.00000  Uiso   1.00
C260   C     0.02149   0.54160   0.24219   0.00000  Uiso   1.00
C261   C     0.29054   0.50029   0.25197   0.00000  Uiso   1.00
C262   C     0.04275   0.50002   0.25068   0.00000  Uiso   1.00
C263   C     0.14056   0.35796   0.22343   0.00000  Uiso   1.00
C264   C     0.19275   0.64203   0.27660   0.00000  Uiso   1.00
C265   C     0.19276   0.35831   0.27659   0.00000  Uiso   1.00
C266   C     0.14056   0.64169   0.22343   0.00000  Uiso   1.00
C267   C     0.16895   0.49990   0.16449   0.00000  Uiso   1.00
C268   C     0.16486   0.50013   0.33544   0.00000  Uiso   1.00
C269   C     0.19974   0.48981   0.40477   0.00000  Uiso   1.00
C270   C     0.13635   0.51601   0.09476   0.00000  Uiso   1.00
C271   C     0.16341   0.50068   0.38363   0.00000  Uiso   1.00
C272   C     0.17107   0.49990   0.11612   0.00000  Uiso   1.00
C273   C     0.12724   0.51294   0.40795   0.00000  Uiso   1.00
C274   C     0.20683   0.48572   0.09178   0.00000  Uiso   1.00
C275   C     0.12953   0.51740   0.45525   0.00000  Uiso   1.00
C276   C     0.20709   0.48992   0.04430   0.00000  Uiso   1.00
C277   C     0.16701   0.50434   0.47635   0.00000  Uiso   1.00
C278   C     0.16986   0.50393   0.02319   0.00000  Uiso   1.00
C279   C     0.20163   0.49084   0.45065   0.00000  Uiso   1.00
C280   C     0.13513   0.51718   0.04884   0.00000  Uiso   1.00
C281   C     0.09648   0.53481   0.48240   0.00000  Uiso   1.00
C282   C     0.24267   0.48129   0.01682   0.00000  Uiso   1.00
Cu283  Cu    0.16667   0.54689   0.25000   0.00000  Uiso   1.00
Cu284  Cu    0.16667   0.45311   0.25000   0.00000  Uiso   1.00
H285   H     0.22688   0.48045   0.38502   0.00000  Uiso   1.00
H286   H     0.10957   0.52689   0.11438   0.00000  Uiso   1.00
H287   H     0.07305   0.54270   0.04920   0.00000  Uiso   1.00
H288   H     0.26484   0.46941   0.45007   0.00000  Uiso   1.00
H289   H     0.03710   0.42637   0.26737   0.00000  Uiso   1.00
H290   H     0.29625   0.57411   0.23589   0.00000  Uiso   1.00
H291   H     0.29549   0.42658   0.26840   0.00000  Uiso   1.00
H292   H     0.03774   0.57387   0.23473   0.00000  Uiso   1.00
H293   H     0.11966   0.37651   0.20212   0.00000  Uiso   1.00
H294   H     0.21364   0.62348   0.29791   0.00000  Uiso   1.00
H295   H     0.21366   0.37713   0.29790   0.00000  Uiso   1.00
H296   H     0.11964   0.62286   0.20214   0.00000  Uiso   1.00
N297   N     0.16667   0.61736   0.25000   0.00000  Uiso   1.00
N298   N     0.16667   0.38264   0.25000   0.00000  Uiso   1.00
O299   O     0.10655   0.53958   0.25000   0.00000  Uiso   1.00
O300   O     0.22679   0.46042   0.25001   0.00000  Uiso   1.00
O301   O     0.22679   0.53958   0.25001   0.00000  Uiso   1.00
O302   O     0.10655   0.46042   0.25000   0.00000  Uiso   1.00
O303   O     0.16666   0.53960   0.18513   0.00000  Uiso   1.00
O304   O     0.16668   0.46040   0.31487   0.00000  Uiso   1.00
O305   O     0.16668   0.53960   0.31487   0.00000  Uiso   1.00
O306   O     0.16666   0.46040   0.18513   0.00000  Uiso   1.00
C307   C     0.08651   0.51495   0.38338   0.00000  Uiso   1.00
C308   C     0.07683   0.56445   0.36664   0.00000  Uiso   1.00
C309   C     0.03090   0.56997   0.35760   0.00000  Uiso   1.00
H310   H     0.02016   0.54174   0.33518   0.00000  Uiso   1.00
H311   H     0.01270   0.56816   0.38912   0.00000  Uiso   1.00
H312   H     0.02528   0.60436   0.34178   0.00000  Uiso   1.00
H313   H     0.08629   0.59146   0.39107   0.00000  Uiso   1.00
H314   H     0.09445   0.57121   0.33541   0.00000  Uiso   1.00
H315   H     0.08712   0.49071   0.35438   0.00000  Uiso   1.00
H316   H     0.06113   0.50043   0.40435   0.00000  Uiso   1.00
C317   C     0.24296   0.46508   0.11685   0.00000  Uiso   1.00
C318   C     0.27451   0.50293   0.12927   0.00000  Uiso   1.00
C319   C     0.31607   0.48121   0.14032   0.00000  Uiso   1.00
H320   H     0.32938   0.46283   0.11087   0.00000  Uiso   1.00
H321   H     0.00457   0.50906   0.15054   0.00000  Uiso   1.00
H322   H     0.31235   0.45559   0.16768   0.00000  Uiso   1.00
H323   H     0.27906   0.52834   0.10182   0.00000  Uiso   1.00
H324   H     0.26265   0.52300   0.15845   0.00000  Uiso   1.00
H325   H     0.23262   0.44743   0.14777   0.00000  Uiso   1.00
H326   H     0.25700   0.43568   0.09782   0.00000  Uiso   1.00
O327   O     0.06092   0.55273   0.46406   0.00000  Uiso   1.00
C328   C     0.05431   0.59936   0.47842   0.00000  Uiso   1.00
H329   H     0.08325   0.62050   0.47774   0.00000  Uiso   1.00
H330   H     0.03967   0.60025   0.01203   0.00000  Uiso   1.00
H331   H     0.03253   0.61629   0.45549   0.00000  Uiso   1.00
O332   O     0.28108   0.47273   0.03468   0.00000  Uiso   1.00
C333   C     0.31085   0.50453   0.01763   0.00000  Uiso   1.00
H334   H     0.29869   0.54090   0.01522   0.00000  Uiso   1.00
H335   H     0.32317   0.49242   0.48492   0.00000  Uiso   1.00
H336   H     0.00386   0.50565   0.04057   0.00000  Uiso   1.00
C337   C     0.42070   0.49998   0.25009   0.00000  Uiso   1.00
C338   C     0.57928   0.50006   0.25085   0.00000  Uiso   1.00
C339   C     0.43262   0.53236   0.02867   0.00000  Uiso   1.00
C340   C     0.57190   0.47951   0.47067   0.00000  Uiso   1.00
C341   C     0.35445   0.45870   0.26031   0.00000  Uiso   1.00
C342   C     0.64552   0.54178   0.24304   0.00000  Uiso   1.00
C343   C     0.64511   0.45886   0.26106   0.00000  Uiso   1.00
C344   C     0.35483   0.54160   0.24219   0.00000  Uiso   1.00
C345   C     0.62387   0.50029   0.25197   0.00000  Uiso   1.00
C346   C     0.37608   0.50002   0.25068   0.00000  Uiso   1.00
C347   C     0.47390   0.35796   0.22343   0.00000  Uiso   1.00
C348   C     0.52608   0.64203   0.27660   0.00000  Uiso   1.00
C349   C     0.52609   0.35831   0.27659   0.00000  Uiso   1.00
C350   C     0.47389   0.64169   0.22343   0.00000  Uiso   1.00
C351   C     0.50229   0.49990   0.16449   0.00000  Uiso   1.00
C352   C     0.49820   0.50013   0.33544   0.00000  Uiso   1.00
C353   C     0.53307   0.48981   0.40477   0.00000  Uiso   1.00
C354   C     0.46968   0.51601   0.09476   0.00000  Uiso   1.00
C355   C     0.49675   0.50068   0.38363   0.00000  Uiso   1.00
C356   C     0.50440   0.49990   0.11612   0.00000  Uiso   1.00
C357   C     0.46058   0.51294   0.40795   0.00000  Uiso   1.00
C358   C     0.54016   0.48572   0.09178   0.00000  Uiso   1.00
C359   C     0.46287   0.51740   0.45525   0.00000  Uiso   1.00
C360   C     0.54042   0.48992   0.04430   0.00000  Uiso   1.00
C361   C     0.50034   0.50434   0.47635   0.00000  Uiso   1.00
C362   C     0.50319   0.50393   0.02319   0.00000  Uiso   1.00
C363   C     0.53497   0.49084   0.45065   0.00000  Uiso   1.00
C364   C     0.46846   0.51718   0.04884   0.00000  Uiso   1.00
C365   C     0.42982   0.53481   0.48240   0.00000  Uiso   1.00
C366   C     0.57601   0.48129   0.01682   0.00000  Uiso   1.00
Cu367  Cu    0.50000   0.54689   0.25000   0.00000  Uiso   1.00
Cu368  Cu    0.50000   0.45311   0.25000   0.00000  Uiso   1.00
H369   H     0.56021   0.48045   0.38502   0.00000  Uiso   1.00
H370   H     0.44290   0.52689   0.11438   0.00000  Uiso   1.00
H371   H     0.40639   0.54270   0.04920   0.00000  Uiso   1.00
H372   H     0.59817   0.46941   0.45007   0.00000  Uiso   1.00
H373   H     0.37044   0.42637   0.26737   0.00000  Uiso   1.00
H374   H     0.62958   0.57411   0.23589   0.00000  Uiso   1.00
H375   H     0.62882   0.42658   0.26840   0.00000  Uiso   1.00
H376   H     0.37108   0.57387   0.23473   0.00000  Uiso   1.00
H377   H     0.45300   0.37651   0.20212   0.00000  Uiso   1.00
H378   H     0.54698   0.62348   0.29791   0.00000  Uiso   1.00
H379   H     0.54699   0.37713   0.29790   0.00000  Uiso   1.00
H380   H     0.45298   0.62286   0.20214   0.00000  Uiso   1.00
N381   N     0.50000   0.61736   0.25000   0.00000  Uiso   1.00
N382   N     0.50000   0.38264   0.25000   0.00000  Uiso   1.00
O383   O     0.43988   0.53958   0.25000   0.00000  Uiso   1.00
O384   O     0.56012   0.46042   0.25001   0.00000  Uiso   1.00
O385   O     0.56012   0.53958   0.25001   0.00000  Uiso   1.00
O386   O     0.43988   0.46042   0.25000   0.00000  Uiso   1.00
O387   O     0.49999   0.53960   0.18513   0.00000  Uiso   1.00
O388   O     0.50001   0.46040   0.31487   0.00000  Uiso   1.00
O389   O     0.50001   0.53960   0.31487   0.00000  Uiso   1.00
O390   O     0.49999   0.46040   0.18513   0.00000  Uiso   1.00
C391   C     0.41984   0.51495   0.38338   0.00000  Uiso   1.00
C392   C     0.41017   0.56445   0.36664   0.00000  Uiso   1.00
C393   C     0.36424   0.56997   0.35760   0.00000  Uiso   1.00
H394   H     0.35349   0.54174   0.33518   0.00000  Uiso   1.00
H395   H     0.34603   0.56816   0.38912   0.00000  Uiso   1.00
H396   H     0.35861   0.60436   0.34178   0.00000  Uiso   1.00
H397   H     0.41963   0.59146   0.39107   0.00000  Uiso   1.00
H398   H     0.42779   0.57121   0.33541   0.00000  Uiso   1.00
H399   H     0.42045   0.49071   0.35438   0.00000  Uiso   1.00
H400   H     0.39446   0.50043   0.40435   0.00000  Uiso   1.00
C401   C     0.57630   0.46508   0.11685   0.00000  Uiso   1.00
C402   C     0.60784   0.50293   0.12927   0.00000  Uiso   1.00
C403   C     0.64940   0.48121   0.14032   0.00000  Uiso   1.00
H404   H     0.66271   0.46283   0.11087   0.00000  Uiso   1.00
H405   H     0.33790   0.50906   0.15054   0.00000  Uiso   1.00
H406   H     0.64568   0.45559   0.16768   0.00000  Uiso   1.00
H407   H     0.61239   0.52834   0.10182   0.00000  Uiso   1.00
H408   H     0.59598   0.52300   0.15845   0.00000  Uiso   1.00
H409   H     0.56595   0.44743   0.14777   0.00000  Uiso   1.00
H410   H     0.59033   0.43568   0.09782   0.00000  Uiso   1.00
O411   O     0.39425   0.55273   0.46406   0.00000  Uiso   1.00
C412   C     0.38765   0.59936   0.47842   0.00000  Uiso   1.00
H413   H     0.41659   0.62050   0.47774   0.00000  Uiso   1.00
H414   H     0.37300   0.60025   0.01203   0.00000  Uiso   1.00
H415   H     0.36586   0.61629   0.45549   0.00000  Uiso   1.00
O416   O     0.61442   0.47273   0.03468   0.00000  Uiso   1.00
C417   C     0.64418   0.50453   0.01763   0.00000  Uiso   1.00
H418   H     0.63202   0.54090   0.01522   0.00000  Uiso   1.00
H419   H     0.65651   0.49242   0.48492   0.00000  Uiso   1.00
H420   H     0.33719   0.50565   0.04057   0.00000  Uiso   1.00
C421   C     0.75403   0.49998   0.25009   0.00000  Uiso   1.00
C422   C     0.91261   0.50006   0.25085   0.00000  Uiso   1.00
C423   C     0.76595   0.53236   0.02867   0.00000  Uiso   1.00
C424   C     0.90523   0.47951   0.47067   0.00000  Uiso   1.00
C425   C     0.68779   0.45870   0.26031   0.00000  Uiso   1.00
C426   C     0.97885   0.54178   0.24304   0.00000  Uiso   1.00
C427   C     0.97845   0.45886   0.26106   0.00000  Uiso   1.00
C428   C     0.68816   0.54160   0.24219   0.00000  Uiso   1.00
C429   C     0.95721   0.50029   0.25197   0.00000  Uiso   1.00
C430   C     0.70942   0.50002   0.25068   0.00000  Uiso   1.00
C431   C     0.80723   0.35796   0.22343   0.00000  Uiso   1.00
C432   C     0.85942   0.64203   0.27660   0.00000  Uiso   1.00
C433   C     0.85942   0.35831   0.27659   0.00000  Uiso   1.00
C434   C     0.80722   0.64169   0.22343   0.00000  Uiso   1.00
C435   C     0.83562   0.49990   0.16449   0.00000  Uiso   1.00
C436   C     0.83153   0.50013   0.33544   0.00000  Uiso   1.00
C437   C     0.86641   0.48981   0.40477   0.00000  Uiso   1.00
C438   C     0.80301   0.51601   0.09476   0.00000  Uiso   1.00
C439   C     0.83008   0.50068   0.38363   0.00000  Uiso   1.00
C440   C     0.83774   0.49990   0.11612   0.00000  Uiso   1.00
C441   C     0.79391   0.51294   0.40795   0.00000  Uiso   1.00
C442   C     0.87349   0.48572   0.09178   0.00000  Uiso   1.00
C443   C     0.79620   0.51740   0.45525   0.00000  Uiso   1.00
C444   C     0.87375   0.48992   0.04430   0.00000  Uiso   1.00
C445   C     0.83368   0.50434   0.47635   0.00000  Uiso   1.00
C446   C     0.83653   0.50393   0.02319   0.00000  Uiso   1.00
C447   C     0.86830   0.49084   0.45065   0.00000  Uiso   1.00
C448   C     0.80179   0.51718   0.04884   0.00000  Uiso   1.00
C449   C     0.76315   0.53481   0.48240   0.00000  Uiso   1.00
C450   C     0.90934   0.48129   0.01682   0.00000  Uiso   1.00
Cu451  Cu    0.83333   0.54689   0.25000   0.00000  Uiso   1.00
Cu452  Cu    0.83333   0.45311   0.25000   0.00000  Uiso   1.00
H453   H     0.89355   0.48045   0.38502   0.00000  Uiso   1.00
H454   H     0.77624   0.52689   0.11438   0.00000  Uiso   1.00
H455   H     0.73972   0.54270   0.04920   0.00000  Uiso   1.00
H456   H     0.93150   0.46941   0.45007   0.00000  Uiso   1.00
H457   H     0.70377   0.42637   0.26737   0.00000  Uiso   1.00
H458   H     0.96291   0.57411   0.23589   0.00000  Uiso   1.00
H459   H     0.96216   0.42658   0.26840   0.00000  Uiso   1.00
H460   H     0.70441   0.57387   0.23473   0.00000  Uiso   1.00
H461   H     0.78633   0.37651   0.20212   0.00000  Uiso   1.00
H462   H     0.88031   0.62348   0.29791   0.00000  Uiso   1.00
H463   H     0.88033   0.37713   0.29790   0.00000  Uiso   1.00
H464   H     0.78631   0.62286   0.20214   0.00000  Uiso   1.00
N465   N     0.83333   0.61736   0.25000   0.00000  Uiso   1.00
N466   N     0.83333   0.38264   0.25000   0.00000  Uiso   1.00
O467   O     0.77321   0.53958   0.25000   0.00000  Uiso   1.00
O468   O     0.89345   0.46042   0.25001   0.00000  Uiso   1.00
O469   O     0.89345   0.53958   0.25001   0.00000  Uiso   1.00
O470   O     0.77321   0.46042   0.25000   0.00000  Uiso   1.00
O471   O     0.83332   0.53960   0.18513   0.00000  Uiso   1.00
O472   O     0.83334   0.46040   0.31487   0.00000  Uiso   1.00
O473   O     0.83334   0.53960   0.31487   0.00000  Uiso   1.00
O474   O     0.83332   0.46040   0.18513   0.00000  Uiso   1.00
C475   C     0.75318   0.51495   0.38338   0.00000  Uiso   1.00
C476   C     0.74350   0.56445   0.36664   0.00000  Uiso   1.00
C477   C     0.69757   0.56997   0.35760   0.00000  Uiso   1.00
H478   H     0.68683   0.54174   0.33518   0.00000  Uiso   1.00
H479   H     0.67936   0.56816   0.38912   0.00000  Uiso   1.00
H480   H     0.69195   0.60436   0.34178   0.00000  Uiso   1.00
H481   H     0.75296   0.59146   0.39107   0.00000  Uiso   1.00
H482   H     0.76112   0.57121   0.33541   0.00000  Uiso   1.00
H483   H     0.75378   0.49071   0.35438   0.00000  Uiso   1.00
H484   H     0.72780   0.50043   0.40435   0.00000  Uiso   1.00
C485   C     0.90963   0.46508   0.11685   0.00000  Uiso   1.00
C486   C     0.94117   0.50293   0.12927   0.00000  Uiso   1.00
C487   C     0.98274   0.48121   0.14032   0.00000  Uiso   1.00
H488   H     0.99604   0.46283   0.11087   0.00000  Uiso   1.00
H489   H     0.67124   0.50906   0.15054   0.00000  Uiso   1.00
H490   H     0.97901   0.45559   0.16768   0.00000  Uiso   1.00
H491   H     0.94573   0.52834   0.10182   0.00000  Uiso   1.00
H492   H     0.92932   0.52300   0.15845   0.00000  Uiso   1.00
H493   H     0.89929   0.44743   0.14777   0.00000  Uiso   1.00
H494   H     0.92367   0.43568   0.09782   0.00000  Uiso   1.00
O495   O     0.72758   0.55273   0.46406   0.00000  Uiso   1.00
C496   C     0.72098   0.59936   0.47842   0.00000  Uiso   1.00
H497   H     0.74992   0.62050   0.47774   0.00000  Uiso   1.00
H498   H     0.70633   0.60025   0.01203   0.00000  Uiso   1.00
H499   H     0.69920   0.61629   0.45549   0.00000  Uiso   1.00
O500   O     0.94775   0.47273   0.03468   0.00000  Uiso   1.00
C501   C     0.97751   0.50453   0.01763   0.00000  Uiso   1.00
H502   H     0.96536   0.54090   0.01522   0.00000  Uiso   1.00
H503   H     0.98984   0.49242   0.48492   0.00000  Uiso   1.00
H504   H     0.67053   0.50565   0.04057   0.00000  Uiso   1.00
C505   C     0.08736   0.83331   0.25009   0.00000  Uiso   1.00
C506   C     0.24595   0.83339   0.25085   0.00000  Uiso   1.00
C507   C     0.09929   0.86570   0.02867   0.00000  Uiso   1.00
C508   C     0.23856   0.81284   0.47067   0.00000  Uiso   1.00
C509   C     0.02112   0.79203   0.26031   0.00000  Uiso   1.00
C510   C     0.31218   0.87511   0.24304   0.00000  Uiso   1.00
C511   C     0.31178   0.79219   0.26106   0.00000  Uiso   1.00
C512   C     0.02149   0.87493   0.24219   0.00000  Uiso   1.00
C513   C     0.29054   0.83362   0.25197   0.00000  Uiso   1.00
C514   C     0.04275   0.83335   0.25068   0.00000  Uiso   1.00
C515   C     0.14056   0.69130   0.22343   0.00000  Uiso   1.00
C516   C     0.19275   0.97537   0.27660   0.00000  Uiso   1.00
C517   C     0.19276   0.69164   0.27659   0.00000  Uiso   1.00
C518   C     0.14056   0.97502   0.22343   0.00000  Uiso   1.00
C519   C     0.16895   0.83323   0.16449   0.00000  Uiso   1.00
C520   C     0.16486   0.83346   0.33544   0.00000  Uiso   1.00
C521   C     0.19974   0.82314   0.40477   0.00000  Uiso   1.00
C522   C     0.13635   0.84935   0.09476   0.00000  Uiso   1.00
C523   C     0.16341   0.83401   0.38363   0.00000  Uiso   1.00
C524   C     0.17107   0.83324   0.11612   0.00000  Uiso   1.00
C525   C     0.12724   0.84628   0.40795   0.00000  Uiso   1.00
C526   C     0.20683   0.81905   0.09178   0.00000  Uiso   1.00
C527   C     0.12953   0.85074   0.45525   0.00000  Uiso   1.00
C528   C     0.20709   0.82325   0.04430   0.00000  Uiso   1.00
C529   C     0.16701   0.83767   0.47635   0.00000  Uiso   1.00
C530   C     0.16986   0.83727   0.02319   0.00000  Uiso   1.00
C531   C     0.20163   0.82418   0.45065   0.00000  Uiso   1.00
C532   C     0.13513   0.85052   0.04884   0.00000  Uiso   1.00
C533   C     0.09648   0.86814   0.48240   0.00000  Uiso   1.00
C534   C     0.24267   0.81462   0.01682   0.00000  Uiso   1.00
Cu535  Cu    0.16667   0.88022   0.25000   0.00000  Uiso   1.00
Cu536  Cu    0.16667   0.78645   0.25000   0.00000  Uiso   1.00
H537   H     0.22688   0.81378   0.38502   0.00000  Uiso   1.00
H538   H     0.10957   0.86023   0.11438   0.00000  Uiso   1.00
H539   H     0.07305   0.87603   0.04920   0.00000  Uiso   1.00
H540   H     0.26484   0.80274   0.45007   0.00000  Uiso   1.00
H541   H     0.03710   0.75970   0.26737   0.00000  Uiso   1.00
H542   H     0.29625   0.90744   0.23589   0.00000  Uiso   1.00
H543   H     0.29549   0.75991   0.26840   0.00000  Uiso   1.00
H544   H     0.03774   0.90720   0.23473   0.00000  Uiso   1.00
H545   H     0.11966   0.70985   0.20212   0.00000  Uiso   1.00
H546   H     0.21364   0.95681   0.29791   0.00000  Uiso   1.00
H547   H     0.21366   0.71047   0.29790   0.00000  Uiso   1.00
H548   H     0.11964   0.95619   0.20214   0.00000  Uiso   1.00
N549   N     0.16667   0.95069   0.25000   0.00000  Uiso   1.00
N550   N     0.16667   0.71598   0.25000   0.00000  Uiso   1.00
O551   O     0.10655   0.87291   0.25000   0.00000  Uiso   1.00
O552   O     0.22679   0.79375   0.25001   0.00000  Uiso   1.00
O553   O     0.22679   0.87291   0.25001   0.00000  Uiso   1.00
O554   O     0.10655   0.79375   0.25000   0.00000  Uiso   1.00
O555   O     0.16666   0.87293   0.18513   0.00000  Uiso   1.00
O556   O     0.16668   0.79373   0.31487   0.00000  Uiso   1.00
O557   O     0.16668   0.87293   0.31487   0.00000  Uiso   1.00
O558   O     0.16666   0.79373   0.18513   0.00000  Uiso   1.00
C559   C     0.08651   0.84828   0.38338   0.00000  Uiso   1.00
C560   C     0.07683   0.89778   0.36664   0.00000  Uiso   1.00
C561   C     0.03090   0.90330   0.35760   0.00000  Uiso   1.00
H562   H     0.02016   0.87507   0.33518   0.00000  Uiso   1.00
H563   H     0.01270   0.90149   0.38912   0.00000  Uiso   1.00
H564   H     0.02528   0.93770   0.34178   0.00000  Uiso   1.00
H565   H     0.08629   0.92479   0.39107   0.00000  Uiso   1.00
H566   H     0.09445   0.90454   0.33541   0.00000  Uiso   1.00
H567   H     0.08712   0.82404   0.35438   0.00000  Uiso   1.00
H568   H     0.06113   0.83376   0.40435   0.00000  Uiso   1.00
C569   C     0.24296   0.79842   0.11685   0.00000  Uiso   1.00
C570   C     0.27451   0.83626   0.12927   0.00000  Uiso   1.00
C571   C     0.31607   0.81455   0.14032   0.00000  Uiso   1.00
H572   H     0.32938   0.79616   0.11087   0.00000  Uiso   1.00
H573   H     0.00457   0.84240   0.15054   0.00000  Uiso   1.00
H574   H     0.31235   0.78892   0.16768   0.00000  Uiso   1.00
H575   H     0.27906   0.86167   0.10182   0.00000  Uiso   1.00
H576   H     0.26265   0.85634   0.15845   0.00000  Uiso   1.00
H577   H     0.23262   0.78077   0.14777   0.00000  Uiso   1.00
H578   H     0.25700   0.76902   0.09782   0.00000  Uiso   1.00
O579   O     0.06092   0.88606   0.46406   0.00000  Uiso   1.00
C580   C     0.05431   0.93270   0.47842   0.00000  Uiso   1.00
H581   H     0.08325   0.95383   0.47774   0.00000  Uiso   1.00
H582   H     0.03967   0.93358   0.01203   0.00000  Uiso   1.00
H583   H     0.03253   0.94962   0.45549   0.00000  Uiso   1.00
O584   O     0.28108   0.80606   0.03468   0.00000  Uiso   1.00
C585   C     0.31085   0.83786   0.01763   0.00000  Uiso   1.00
H586   H     0.29869   0.87423   0.01522   0.00000  Uiso   1.00
H587   H     0.32317   0.82575   0.48492   0.00000  Uiso   1.00
H588   H     0.00386   0.83898   0.04057   0.00000  Uiso   1.00
C589   C     0.42070   0.83331   0.25009   0.00000  Uiso   1.00
C590   C     0.57928   0.83339   0.25085   0.00000  Uiso   1.00
C591   C     0.43262   0.86570   0.02867   0.00000  Uiso   1.00
C592   C     0.57190   0.81284   0.47067   0.00000  Uiso   1.00
C593   C     0.35445   0.79203   0.26031   0.00000  Uiso   1.00
C594   C     0.64552   0.87511   0.24304   0.00000  Uiso   1.00
C595   C     0.64511   0.79219   0.26106   0.00000  Uiso   1.00
C596   C     0.35483   0.87493   0.24219   0.00000  Uiso   1.00
C597   C     0.62387   0.83362   0.25197   0.00000  Uiso   1.00
C598   C     0.37608   0.83335   0.25068   0.00000  Uiso   1.00
C599   C     0.47390   0.69130   0.22343   0.00000  Uiso   1.00
C600   C     0.52608   0.97537   0.27660   0.00000  Uiso   1.00
C601   C     0.52609   0.69164   0.27659   0.00000  Uiso   1.00
C602   C     0.47389   0.97502   0.22343   0.00000  Uiso   1.00
C603   C     0.50229   0.83323   0.16449   0.00000  Uiso   1.00
C604   C     0.49820   0.83346   0.33544   0.00000  Uiso   1.00
C605   C     0.53307   0.82314   0.40477   0.00000  Uiso   1.00
C606   C     0.46968   0.84935   0.09476   0.00000  Uiso   1.00
C607   C     0.49675   0.83401   0.38363   0.00000  Uiso   1.00
C608   C     0.50440   0.83324   0.11612   0.00000  Uiso   1.00
C609   C     0.46058   0.84628   0.40795   0.00000  Uiso   1.00
C610   C     0.54016   0.81905   0.09178   0.00000  Uiso   1.00
C611   C     0.46287   0.85074   0.45525   0.00000  Uiso   1.00
C612   C     0.54042   0.82325   0.04430   0.00000  Uiso   1.00
C613   C     0.50034   0.83767   0.47635   0.00000  Uiso   1.00
C614   C     0.50319   0.83727   0.02319   0.00000  Uiso   1.00
C615   C     0.53497   0.82418   0.45065   0.00000  Uiso   1.00
C616   C     0.46846   0.85052   0.04884   0.00000  Uiso   1.00
C617   C     0.42982   0.86814   0.48240   0.00000  Uiso   1.00
C618   C     0.57601   0.81462   0.01682   0.00000  Uiso   1.00
Cu619  Cu    0.50000   0.88022   0.25000   0.00000  Uiso   1.00
Cu620  Cu    0.50000   0.78645   0.25000   0.00000  Uiso   1.00
H621   H     0.56021   0.81378   0.38502   0.00000  Uiso   1.00
H622   H     0.44290   0.86023   0.11438   0.00000  Uiso   1.00
H623   H     0.40639   0.87603   0.04920   0.00000  Uiso   1.00
H624   H     0.59817   0.80274   0.45007   0.00000  Uiso   1.00
H625   H     0.37044   0.75970   0.26737   0.00000  Uiso   1.00
H626   H     0.62958   0.90744   0.23589   0.00000  Uiso   1.00
H627   H     0.62882   0.75991   0.26840   0.00000  Uiso   1.00
H628   H     0.37108   0.90720   0.23473   0.00000  Uiso   1.00
H629   H     0.45300   0.70985   0.20212   0.00000  Uiso   1.00
H630   H     0.54698   0.95681   0.29791   0.00000  Uiso   1.00
H631   H     0.54699   0.71047   0.29790   0.00000  Uiso   1.00
H632   H     0.45298   0.95619   0.20214   0.00000  Uiso   1.00
N633   N     0.50000   0.95069   0.25000   0.00000  Uiso   1.00
N634   N     0.50000   0.71598   0.25000   0.00000  Uiso   1.00
O635   O     0.43988   0.87291   0.25000   0.00000  Uiso   1.00
O636   O     0.56012   0.79375   0.25001   0.00000  Uiso   1.00
O637   O     0.56012   0.87291   0.25001   0.00000  Uiso   1.00
O638   O     0.43988   0.79375   0.25000   0.00000  Uiso   1.00
O639   O     0.49999   0.87293   0.18513   0.00000  Uiso   1.00
O640   O     0.50001   0.79373   0.31487   0.00000  Uiso   1.00
O641   O     0.50001   0.87293   0.31487   0.00000  Uiso   1.00
O642   O     0.49999   0.79373   0.18513   0.00000  Uiso   1.00
C643   C     0.41984   0.84828   0.38338   0.00000  Uiso   1.00
C644   C     0.41017   0.89778   0.36664   0.00000  Uiso   1.00
C645   C     0.36424   0.90330   0.35760   0.00000  Uiso   1.00
H646   H     0.35349   0.87507   0.33518   0.00000  Uiso   1.00
H647   H     0.34603   0.90149   0.38912   0.00000  Uiso   1.00
H648   H     0.35861   0.93770   0.34178   0.00000  Uiso   1.00
H649   H     0.41963   0.92479   0.39107   0.00000  Uiso   1.00
H650   H     0.42779   0.90454   0.33541   0.00000  Uiso   1.00
H651   H     0.42045   0.82404   0.35438   0.00000  Uiso   1.00
H652   H     0.39446   0.83376   0.40435   0.00000  Uiso   1.00
C653   C     0.57630   0.79842   0.11685   0.00000  Uiso   1.00
C654   C     0.60784   0.83626   0.12927   0.00000  Uiso   1.00
C655   C     0.64940   0.81455   0.14032   0.00000  Uiso   1.00
H656   H     0.66271   0.79616   0.11087   0.00000  Uiso   1.00
H657   H     0.33790   0.84240   0.15054   0.00000  Uiso   1.00
H658   H     0.64568   0.78892   0.16768   0.00000  Uiso   1.00
H659   H     0.61239   0.86167   0.10182   0.00000  Uiso   1.00
H660   H     0.59598   0.85634   0.15845   0.00000  Uiso   1.00
H661   H     0.56595   0.78077   0.14777   0.00000  Uiso   1.00
H662   H     0.59033   0.76902   0.09782   0.00000  Uiso   1.00
O663   O     0.39425   0.88606   0.46406   0.00000  Uiso   1.00
C664   C     0.38765   0.93270   0.47842   0.00000  Uiso   1.00
H665   H     0.41659   0.95383   0.47774   0.00000  Uiso   1.00
H666   H     0.37300   0.93358   0.01203   0.00000  Uiso   1.00
H667   H     0.36586   0.94962   0.45549   0.00000  Uiso   1.00
O668   O     0.61442   0.80606   0.03468   0.00000  Uiso   1.00
C669   C     0.64418   0.83786   0.01763   0.00000  Uiso   1.00
H670   H     0.63202   0.87423   0.01522   0.00000  Uiso   1.00
H671   H     0.65651   0.82575   0.48492   0.00000  Uiso   1.00
H672   H     0.33719   0.83898   0.04057   0.00000  Uiso   1.00
C673   C     0.75403   0.83331   0.25009   0.00000  Uiso   1.00
C674   C     0.91261   0.83339   0.25085   0.00000  Uiso   1.00
C675   C     0.76595   0.86570   0.02867   0.00000  Uiso   1.00
C676   C     0.90523   0.81284   0.47067   0.00000  Uiso   1.00
C677   C     0.68779   0.79203   0.26031   0.00000  Uiso   1.00
C678   C     0.97885   0.87511   0.24304   0.00000  Uiso   1.00
C679   C     0.97845   0.79219   0.26106   0.00000  Uiso   1.00
C680   C     0.68816   0.87493   0.24219   0.00000  Uiso   1.00
C681   C     0.95721   0.83362   0.25197   0.00000  Uiso   1.00
C682   C     0.70942   0.83335   0.25068   0.00000  Uiso   1.00
C683   C     0.80723   0.69130   0.22343   0.00000  Uiso   1.00
C684   C     0.85942   0.97537   0.27660   0.00000  Uiso   1.00
C685   C     0.85942   0.69164   0.27659   0.00000  Uiso   1.00
C686   C     0.80722   0.97502   0.22343   0.00000  Uiso   1.00
C687   C     0.83562   0.83323   0.16449   0.00000  Uiso   1.00
C688   C     0.83153   0.83346   0.33544   0.00000  Uiso   1.00
C689   C     0.86641   0.82314   0.40477   0.00000  Uiso   1.00
C690   C     0.80301   0.84935   0.09476   0.00000  Uiso   1.00
C691   C     0.83008   0.83401   0.38363   0.00000  Uiso   1.00
C692   C     0.83774   0.83324   0.11612   0.00000  Uiso   1.00
C693   C     0.79391   0.84628   0.40795   0.00000  Uiso   1.00
C694   C     0.87349   0.81905   0.09178   0.00000  Uiso   1.00
C695   C     0.79620   0.85074   0.45525   0.00000  Uiso   1.00
C696   C     0.87375   0.82325   0.04430   0.00000  Uiso   1.00
C697   C     0.83368   0.83767   0.47635   0.00000  Uiso   1.00
C698   C     0.83653   0.83727   0.02319   0.00000  Uiso   1.00
C699   C     0.86830   0.82418   0.45065   0.00000  Uiso   1.00
C700   C     0.80179   0.85052   0.04884   0.00000  Uiso   1.00
C701   C     0.76315   0.86814   0.48240   0.00000  Uiso   1.00
C702   C     0.90934   0.81462   0.01682   0.00000  Uiso   1.00
Cu703  Cu    0.83333   0.88022   0.25000   0.00000  Uiso   1.00
Cu704  Cu    0.83333   0.78645   0.25000   0.00000  Uiso   1.00
H705   H     0.89355   0.81378   0.38502   0.00000  Uiso   1.00
H706   H     0.77624   0.86023   0.11438   0.00000  Uiso   1.00
H707   H     0.73972   0.87603   0.04920   0.00000  Uiso   1.00
H708   H     0.93150   0.80274   0.45007   0.00000  Uiso   1.00
H709   H     0.70377   0.75970   0.26737   0.00000  Uiso   1.00
H710   H     0.96291   0.90744   0.23589   0.00000  Uiso   1.00
H711   H     0.96216   0.75991   0.26840   0.00000  Uiso   1.00
H712   H     0.70441   0.90720   0.23473   0.00000  Uiso   1.00
H713   H     0.78633   0.70985   0.20212   0.00000  Uiso   1.00
H714   H     0.88031   0.95681   0.29791   0.00000  Uiso   1.00
H715   H     0.88033   0.71047   0.29790   0.00000  Uiso   1.00
H716   H     0.78631   0.95619   0.20214   0.00000  Uiso   1.00
N717   N     0.83333   0.95069   0.25000   0.00000  Uiso   1.00
N718   N     0.83333   0.71598   0.25000   0.00000  Uiso   1.00
O719   O     0.77321   0.87291   0.25000   0.00000  Uiso   1.00
O720   O     0.89345   0.79375   0.25001   0.00000  Uiso   1.00
O721   O     0.89345   0.87291   0.25001   0.00000  Uiso   1.00
O722   O     0.77321   0.79375   0.25000   0.00000  Uiso   1.00
O723   O     0.83332   0.87293   0.18513   0.00000  Uiso   1.00
O724   O     0.83334   0.79373   0.31487   0.00000  Uiso   1.00
O725   O     0.83334   0.87293   0.31487   0.00000  Uiso   1.00
O726   O     0.83332   0.79373   0.18513   0.00000  Uiso   1.00
C727   C     0.75318   0.84828   0.38338   0.00000  Uiso   1.00
C728   C     0.74350   0.89778   0.36664   0.00000  Uiso   1.00
C729   C     0.69757   0.90330   0.35760   0.00000  Uiso   1.00
H730   H     0.68683   0.87507   0.33518   0.00000  Uiso   1.00
H731   H     0.67936   0.90149   0.38912   0.00000  Uiso   1.00
H732   H     0.69195   0.93770   0.34178   0.00000  Uiso   1.00
H733   H     0.75296   0.92479   0.39107   0.00000  Uiso   1.00
H734   H     0.76112   0.90454   0.33541   0.00000  Uiso   1.00
H735   H     0.75378   0.82404   0.35438   0.00000  Uiso   1.00
H736   H     0.72780   0.83376   0.40435   0.00000  Uiso   1.00
C737   C     0.90963   0.79842   0.11685   0.00000  Uiso   1.00
C738   C     0.94117   0.83626   0.12927   0.00000  Uiso   1.00
C739   C     0.98274   0.81455   0.14032   0.00000  Uiso   1.00
H740   H     0.99604   0.79616   0.11087   0.00000  Uiso   1.00
H741   H     0.67124   0.84240   0.15054   0.00000  Uiso   1.00
H742   H     0.97901   0.78892   0.16768   0.00000  Uiso   1.00
H743   H     0.94573   0.86167   0.10182   0.00000  Uiso   1.00
H744   H     0.92932   0.85634   0.15845   0.00000  Uiso   1.00
H745   H     0.89929   0.78077   0.14777   0.00000  Uiso   1.00
H746   H     0.92367   0.76902   0.09782   0.00000  Uiso   1.00
O747   O     0.72758   0.88606   0.46406   0.00000  Uiso   1.00
C748   C     0.72098   0.93270   0.47842   0.00000  Uiso   1.00
H749   H     0.74992   0.95383   0.47774   0.00000  Uiso   1.00
H750   H     0.70633   0.93358   0.01203   0.00000  Uiso   1.00
H751   H     0.69920   0.94962   0.45549   0.00000  Uiso   1.00
O752   O     0.94775   0.80606   0.03468   0.00000  Uiso   1.00
C753   C     0.97751   0.83786   0.01763   0.00000  Uiso   1.00
H754   H     0.96536   0.87423   0.01522   0.00000  Uiso   1.00
H755   H     0.98984   0.82575   0.48492   0.00000  Uiso   1.00
H756   H     0.67053   0.83898   0.04057   0.00000  Uiso   1.00
C757   C     0.08736   0.16664   0.75009   0.00000  Uiso   1.00
C758   C     0.24595   0.16673   0.75085   0.00000  Uiso   1.00
C759   C     0.09929   0.19903   0.52867   0.00000  Uiso   1.00
C760   C     0.23856   0.14618   0.97067   0.00000  Uiso   1.00
C761   C     0.02112   0.12537   0.76031   0.00000  Uiso   1.00
C762   C     0.31218   0.20844   0.74304   0.00000  Uiso   1.00
C763   C     0.31178   0.12552   0.76106   0.00000  Uiso   1.00
C764   C     0.02149   0.20826   0.74219   0.00000  Uiso   1.00
C765   C     0.29054   0.16695   0.75197   0.00000  Uiso   1.00
C766   C     0.04275   0.16668   0.75068   0.00000  Uiso   1.00
C767   C     0.14056   0.02463   0.72343   0.00000  Uiso   1.00
C768   C     0.19275   0.30870   0.77660   0.00000  Uiso   1.00
C769   C     0.19276   0.02497   0.77659   0.00000  Uiso   1.00
C770   C     0.14056   0.30836   0.72343   0.00000  Uiso   1.00
C771   C     0.16895   0.16656   0.66449   0.00000  Uiso   1.00
C772   C     0.16486   0.16680   0.83544   0.00000  Uiso   1.00
C773   C     0.19974   0.15648   0.90477   0.00000  Uiso   1.00
C774   C     0.13635   0.18268   0.59476   0.00000  Uiso   1.00
C775   C     0.16341   0.16734   0.88363   0.00000  Uiso   1.00
C776   C     0.17107   0.16657   0.61612   0.00000  Uiso   1.00
C777   C     0.12724   0.17961   0.90795   0.00000  Uiso   1.00
C778   C     0.20683   0.15238   0.59178   0.00000  Uiso   1.00
C779   C     0.12953   0.18407   0.95525   0.00000  Uiso   1.00
C780   C     0.20709   0.15659   0.54430   0.00000  Uiso   1.00
C781   C     0.16701   0.17100   0.97635   0.00000  Uiso   1.00
C782   C     0.16986   0.17060   0.52319   0.00000  Uiso   1.00
C783   C     0.20163   0.15751   0.95065   0.00000  Uiso   1.00
C784   C     0.13513   0.18385   0.54884   0.00000  Uiso   1.00
C785   C     0.09648   0.20147   0.98240   0.00000  Uiso   1.00
C786   C     0.24267   0.14796   0.51682   0.00000  Uiso   1.00
Cu787  Cu    0.16667   0.21355   0.75000   0.00000  Uiso   1.00
Cu788  Cu    0.16667   0.11978   0.75000   0.00000  Uiso   1.00
H789   H     0.22688   0.14711   0.88502   0.00000  Uiso   1.00
H790   H     0.10957   0.19356   0.61438   0.00000  Uiso   1.00
H791   H     0.07305   0.20937   0.54920   0.00000  Uiso   1.00
H792   H     0.26484   0.13607   0.95007   0.00000  Uiso   1.00
H793   H     0.03710   0.09304   0.76737   0.00000  Uiso   1.00
H794   H     0.29625   0.24078   0.73589   0.00000  Uiso   1.00
H795   H     0.29549   0.09324   0.76840   0.00000  Uiso   1.00
H796   H     0.03774   0.24054   0.73473   0.00000  Uiso   1.00
H797   H     0.11966   0.04318   0.70212   0.00000  Uiso   1.00
H798   H     0.21364   0.29015   0.79791   0.00000  Uiso   1.00
H799   H     0.21366   0.04380   0.79790   0.00000  Uiso   1.00
H800   H     0.11964   0.28953   0.70214   0.00000  Uiso   1.00
N801   N     0.16667   0.28402   0.75000   0.00000  Uiso   1.00
N802   N     0.16667   0.04931   0.75000   0.00000  Uiso   1.00
O803   O     0.10655   0.20625   0.75000   0.00000  Uiso   1.00
O804   O     0.22679   0.12709   0.75001   0.00000  Uiso   1.00
O805   O     0.22679   0.20625   0.75001   0.00000  Uiso   1.00
O806   O     0.10655   0.12709   0.75000   0.00000  Uiso   1.00
O807   O     0.16666   0.20627   0.68513   0.00000  Uiso   1.00
O808   O     0.16668   0.12707   0.81487   0.00000  Uiso   1.00
O809   O     0.16668   0.20627   0.81487   0.00000  Uiso   1.00
O810   O     0.16666   0.12707   0.68513   0.00000  Uiso   1.00
C811   C     0.08651   0.18162   0.88338   0.00000  Uiso   1.00
C812   C     0.07683   0.23112   0.86664   0.00000  Uiso   1.00
C813   C     0.03090   0.23663   0.85760   0.00000  Uiso   1.00
H814   H     0.02016   0.20841   0.83518   0.00000  Uiso   1.00
H815   H     0.01270   0.23482   0.88912   0.00000  Uiso   1.00
H816   H     0.02528   0.27103   0.84178   0.00000  Uiso   1.00
H817   H     0.08629   0.25812   0.89107   0.00000  Uiso   1.00
H818   H     0.09445   0.23787   0.83541   0.00000  Uiso   1.00
H819   H     0.08712   0.15738   0.85438   0.00000  Uiso   1.00
H820   H     0.06113   0.16710   0.90435   0.00000  Uiso   1.00
C821   C     0.24296   0.13175   0.61685   0.00000  Uiso   1.00
C822   C     0.27451   0.16960   0.62927   0.00000  Uiso   1.00
C823   C     0.31607   0.14788   0.64032   0.00000  Uiso   1.00
H824   H     0.32938   0.12949   0.61087   0.00000  Uiso   1.00
H825   H     0.00457   0.17573   0.65054   0.00000  Uiso   1.00
H826   H     0.31235   0.12226   0.66768   0.00000  Uiso   1.00
H827   H     0.27906   0.19501   0.60182   0.00000  Uiso   1.00
H828   H     0.26265   0.18967   0.65845   0.00000  Uiso   1.00
H829   H     0.23262   0.11410   0.64777   0.00000  Uiso   1.00
H830   H     0.25700   0.10235   0.59782   0.00000  Uiso   1.00
O831   O     0.06092   0.21939   0.96406   0.00000  Uiso   1.00
C832   C     0.05431   0.26603   0.97842   0.00000  Uiso   1.00
H833   H     0.08325   0.28716   0.97774   0.00000  Uiso   1.00
H834   H     0.03967   0.26692   0.51203   0.00000  Uiso   1.00
H835   H     0.03253   0.28295   0.95549   0.00000  Uiso   1.00
O836   O     0.28108   0.13939   0.53468   0.00000  Uiso   1.00
C837   C     0.31085   0.17119   0.51763   0.00000  Uiso   1.00
H838   H     0.29869   0.20757   0.51522   0.00000  Uiso   1.00
H839   H     0.32317   0.15909   0.98492   0.00000  Uiso   1.00
H840   H     0.00386   0.17231   0.54057   0.00000  Uiso   1.00
C841   C     0.42070   0.16664   0.75009   0.00000  Uiso   1.00
C842   C     0.57928   0.16673   0.75085   0.00000  Uiso   1.00
C843   C     0.43262   0.19903   0.52867   0.00000  Uiso   1.00
C844   C     0.57190   0.14618   0.97067   0.00000  Uiso   1.00
C845   C     0.35445   0.12537   0.76031   0.00000  Uiso   1.00
C846   C     0.64552   0.20844   0.74304   0.00000  Uiso   1.00
C847   C     0.64511   0.12552   0.76106   0.00000  Uiso   1.00
C848   C     0.35483   0.20826   0.74219   0.00000  Uiso   1.00
C849   C     0.62387   0.16695   0.75197   0.00000  Uiso   1.00
C850   C     0.37608   0.16668   0.75068   0.00000  Uiso   1.00
C851   C     0.47390   0.02463   0.72343   0.00000  Uiso   1.00
C852   C     0.52608   0.30870   0.77660   0.00000  Uiso   1.00
C853   C     0.52609   0.02497   0.77659   0.00000  Uiso   1.00
C854   C     0.47389   0.30836   0.72343   0.00000  Uiso   1.00
C855   C     0.50229   0.16656   0.66449   0.00000  Uiso   1.00
C856   C     0.49820   0.16680   0.83544   0.00000  Uiso   1.00
C857   C     0.53307   0.15648   0.90477   0.00000  Uiso   1.00
C858   C     0.46968   0.18268   0.59476   0.00000  Uiso   1.00
C859   C     0.49675   0.16734   0.88363   0.00000  Uiso   1.00
C860   C     0.50440   0.16657   0.61612   0.00000  Uiso   1.00
C861   C     0.46058   0.17961   0.90795   0.00000  Uiso   1.00
C862   C     0.54016   0.15238   0.59178   0.00000  Uiso   1.00
C863   C     0.46287   0.18407   0.95525   0.00000  Uiso   1.00
C864   C     0.54042   0.15659   0.54430   0.00000  Uiso   1.00
C865   C     0.50034   0.17100   0.97635   0.00000  Uiso   1.00
C866   C     0.50319   0.17060   0.52319   0.00000  Uiso   1.00
C867   C     0.53497   0.15751   0.95065   0.00000  Uiso   1.00
C868   C     0.46846   0.18385   0.54884   0.00000  Uiso   1.00
C869   C     0.42982   0.20147   0.98240   0.00000  Uiso   1.00
C870   C     0.57601   0.14796   0.51682   0.00000  Uiso   1.00
Cu871  Cu    0.50000   0.21355   0.75000   0.00000  Uiso   1.00
Cu872  Cu    0.50000   0.11978   0.75000   0.00000  Uiso   1.00
H873   H     0.56021   0.14711   0.88502   0.00000  Uiso   1.00
H874   H     0.44290   0.19356   0.61438   0.00000  Uiso   1.00
H875   H     0.40639   0.20937   0.54920   0.00000  Uiso   1.00
H876   H     0.59817   0.13607   0.95007   0.00000  Uiso   1.00
H877   H     0.37044   0.09304   0.76737   0.00000  Uiso   1.00
H878   H     0.62958   0.24078   0.73589   0.00000  Uiso   1.00
H879   H     0.62882   0.09324   0.76840   0.00000  Uiso   1.00
H880   H     0.37108   0.24054   0.73473   0.00000  Uiso   1.00
H881   H     0.45300   0.04318   0.70212   0.00000  Uiso   1.00
H882   H     0.54698   0.29015   0.79791   0.00000  Uiso   1.00
H883   H     0.54699   0.04380   0.79790   0.00000  Uiso   1.00
H884   H     0.45298   0.28953   0.70214   0.00000  Uiso   1.00
N885   N     0.50000   0.28402   0.75000   0.00000  Uiso   1.00
N886   N     0.50000   0.04931   0.75000   0.00000  Uiso   1.00
O887   O     0.43988   0.20625   0.75000   0.00000  Uiso   1.00
O888   O     0.56012   0.12709   0.75001   0.00000  Uiso   1.00
O889   O     0.56012   0.20625   0.75001   0.00000  Uiso   1.00
O890   O     0.43988   0.12709   0.75000   0.00000  Uiso   1.00
O891   O     0.49999   0.20627   0.68513   0.00000  Uiso   1.00
O892   O     0.50001   0.12707   0.81487   0.00000  Uiso   1.00
O893   O     0.50001   0.20627   0.81487   0.00000  Uiso   1.00
O894   O     0.49999   0.12707   0.68513   0.00000  Uiso   1.00
C895   C     0.41984   0.18162   0.88338   0.00000  Uiso   1.00
C896   C     0.41017   0.23112   0.86664   0.00000  Uiso   1.00
C897   C     0.36424   0.23663   0.85760   0.00000  Uiso   1.00
H898   H     0.35349   0.20841   0.83518   0.00000  Uiso   1.00
H899   H     0.34603   0.23482   0.88912   0.00000  Uiso   1.00
H900   H     0.35861   0.27103   0.84178   0.00000  Uiso   1.00
H901   H     0.41963   0.25812   0.89107   0.00000  Uiso   1.00
H902   H     0.42779   0.23787   0.83541   0.00000  Uiso   1.00
H903   H     0.42045   0.15738   0.85438   0.00000  Uiso   1.00
H904   H     0.39446   0.16710   0.90435   0.00000  Uiso   1.00
C905   C     0.57630   0.13175   0.61685   0.00000  Uiso   1.00
C906   C     0.60784   0.16960   0.62927   0.00000  Uiso   1.00
C907   C     0.64940   0.14788   0.64032   0.00000  Uiso   1.00
H908   H     0.66271   0.12949   0.61087   0.00000  Uiso   1.00
H909   H     0.33790   0.17573   0.65054   0.00000  Uiso   1.00
H910   H     0.64568   0.12226   0.66768   0.00000  Uiso   1.00
H911   H     0.61239   0.19501   0.60182   0.00000  Uiso   1.00
H912   H     0.59598   0.18967   0.65845   0.00000  Uiso   1.00
H913   H     0.56595   0.11410   0.64777   0.00000  Uiso   1.00
H914   H     0.59033   0.10235   0.59782   0.00000  Uiso   1.00
O915   O     0.39425   0.21939   0.96406   0.00000  Uiso   1.00
C916   C     0.38765   0.26603   0.97842   0.00000  Uiso   1.00
H917   H     0.41659   0.28716   0.97774   0.00000  Uiso   1.00
H918   H     0.37300   0.26692   0.51203   0.00000  Uiso   1.00
H919   H     0.36586   0.28295   0.95549   0.00000  Uiso   1.00
O920   O     0.61442   0.13939   0.53468   0.00000  Uiso   1.00
C921   C     0.64418   0.17119   0.51763   0.00000  Uiso   1.00
H922   H     0.63202   0.20757   0.51522   0.00000  Uiso   1.00
H923   H     0.65651   0.15909   0.98492   0.00000  Uiso   1.00
H924   H     0.33719   0.17231   0.54057   0.00000  Uiso   1.00
C925   C     0.75403   0.16664   0.75009   0.00000  Uiso   1.00
C926   C     0.91261   0.16673   0.75085   0.00000  Uiso   1.00
C927   C     0.76595   0.19903   0.52867   0.00000  Uiso   1.00
C928   C     0.90523   0.14618   0.97067   0.00000  Uiso   1.00
C929   C     0.68779   0.12537   0.76031   0.00000  Uiso   1.00
C930   C     0.97885   0.20844   0.74304   0.00000  Uiso   1.00
C931   C     0.97845   0.12552   0.76106   0.00000  Uiso   1.00
C932   C     0.68816   0.20826   0.74219   0.00000  Uiso   1.00
C933   C     0.95721   0.16695   0.75197   0.00000  Uiso   1.00
C934   C     0.70942   0.16668   0.75068   0.00000  Uiso   1.00
C935   C     0.80723   0.02463   0.72343   0.00000  Uiso   1.00
C936   C     0.85942   0.30870   0.77660   0.00000  Uiso   1.00
C937   C     0.85942   0.02497   0.77659   0.00000  Uiso   1.00
C938   C     0.80722   0.30836   0.72343   0.00000  Uiso   1.00
C939   C     0.83562   0.16656   0.66449   0.00000  Uiso   1.00
C940   C     0.83153   0.16680   0.83544   0.00000  Uiso   1.00
C941   C     0.86641   0.15648   0.90477   0.00000  Uiso   1.00
C942   C     0.80301   0.18268   0.59476   0.00000  Uiso   1.00
C943   C     0.83008   0.16734   0.88363   0.00000  Uiso   1.00
C944   C     0.83774   0.16657   0.61612   0.00000  Uiso   1.00
C945   C     0.79391   0.17961   0.90795   0.00000  Uiso   1.00
C946   C     0.87349   0.15238   0.59178   0.00000  Uiso   1.00
C947   C     0.79620   0.18407   0.95525   0.00000  Uiso   1.00
C948   C     0.87375   0.15659   0.54430   0.00000  Uiso   1.00
C949   C     0.83368   0.17100   0.97635   0.00000  Uiso   1.00
C950   C     0.83653   0.17060   0.52319   0.00000  Uiso   1.00
C951   C     0.86830   0.15751   0.95065   0.00000  Uiso   1.00
C952   C     0.80179   0.18385   0.54884   0.00000  Uiso   1.00
C953   C     0.76315   0.20147   0.98240   0.00000  Uiso   1.00
C954   C     0.90934   0.14796   0.51682   0.00000  Uiso   1.00
Cu955  Cu    0.83333   0.21355   0.75000   0.00000  Uiso   1.00
Cu956  Cu    0.83333   0.11978   0.75000   0.00000  Uiso   1.00
H957   H     0.89355   0.14711   0.88502   0.00000  Uiso   1.00
H958   H     0.77624   0.19356   0.61438   0.00000  Uiso   1.00
H959   H     0.73972   0.20937   0.54920   0.00000  Uiso   1.00
H960   H     0.93150   0.13607   0.95007   0.00000  Uiso   1.00
H961   H     0.70377   0.09304   0.76737   0.00000  Uiso   1.00
H962   H     0.96291   0.24078   0.73589   0.00000  Uiso   1.00
H963   H     0.96216   0.09324   0.76840   0.00000  Uiso   1.00
H964   H     0.70441   0.24054   0.73473   0.00000  Uiso   1.00
H965   H     0.78633   0.04318   0.70212   0.00000  Uiso   1.00
H966   H     0.88031   0.29015   0.79791   0.00000  Uiso   1.00
H967   H     0.88033   0.04380   0.79790   0.00000  Uiso   1.00
H968   H     0.78631   0.28953   0.70214   0.00000  Uiso   1.00
N969   N     0.83333   0.28402   0.75000   0.00000  Uiso   1.00
N970   N     0.83333   0.04931   0.75000   0.00000  Uiso   1.00
O971   O     0.77321   0.20625   0.75000   0.00000  Uiso   1.00
O972   O     0.89345   0.12709   0.75001   0.00000  Uiso   1.00
O973   O     0.89345   0.20625   0.75001   0.00000  Uiso   1.00
O974   O     0.77321   0.12709   0.75000   0.00000  Uiso   1.00
O975   O     0.83332   0.20627   0.68513   0.00000  Uiso   1.00
O976   O     0.83334   0.12707   0.81487   0.00000  Uiso   1.00
O977   O     0.83334   0.20627   0.81487   0.00000  Uiso   1.00
O978   O     0.83332   0.12707   0.68513   0.00000  Uiso   1.00
C979   C     0.75318   0.18162   0.88338   0.00000  Uiso   1.00
C980   C     0.74350   0.23112   0.86664   0.00000  Uiso   1.00
C981   C     0.69757   0.23663   0.85760   0.00000  Uiso   1.00
H982   H     0.68683   0.20841   0.83518   0.00000  Uiso   1.00
H983   H     0.67936   0.23482   0.88912   0.00000  Uiso   1.00
H984   H     0.69195   0.27103   0.84178   0.00000  Uiso   1.00
H985   H     0.75296   0.25812   0.89107   0.00000  Uiso   1.00
H986   H     0.76112   0.23787   0.83541   0.00000  Uiso   1.00
H987   H     0.75378   0.15738   0.85438   0.00000  Uiso   1.00
H988   H     0.72780   0.16710   0.90435   0.00000  Uiso   1.00
C989   C     0.90963   0.13175   0.61685   0.00000  Uiso   1.00
C990   C     0.94117   0.16960   0.62927   0.00000  Uiso   1.00
C991   C     0.98274   0.14788   0.64032   0.00000  Uiso   1.00
H992   H     0.99604   0.12949   0.61087   0.00000  Uiso   1.00
H993   H     0.67124   0.17573   0.65054   0.00000  Uiso   1.00
H994   H     0.97901   0.12226   0.66768   0.00000  Uiso   1.00
H995   H     0.94573   0.19501   0.60182   0.00000  Uiso   1.00
H996   H     0.92932   0.18967   0.65845   0.00000  Uiso   1.00
H997   H     0.89929   0.11410   0.64777   0.00000  Uiso   1.00
H998   H     0.92367   0.10235   0.59782   0.00000  Uiso   1.00
O999   O     0.72758   0.21939   0.96406   0.00000  Uiso   1.00
C1000  C     0.72098   0.26603   0.97842   0.00000  Uiso   1.00
H1001  H     0.74992   0.28716   0.97774   0.00000  Uiso   1.00
H1002  H     0.70633   0.26692   0.51203   0.00000  Uiso   1.00
H1003  H     0.69920   0.28295   0.95549   0.00000  Uiso   1.00
O1004  O     0.94775   0.13939   0.53468   0.00000  Uiso   1.00
C1005  C     0.97751   0.17119   0.51763   0.00000  Uiso   1.00
H1006  H     0.96536   0.20757   0.51522   0.00000  Uiso   1.00
H1007  H     0.98984   0.15909   0.98492   0.00000  Uiso   1.00
H1008  H     0.67053   0.17231   0.54057   0.00000  Uiso   1.00
C1009  C     0.08736   0.49998   0.75009   0.00000  Uiso   1.00
C1010  C     0.24595   0.50006   0.75085   0.00000  Uiso   1.00
C1011  C     0.09929   0.53236   0.52867   0.00000  Uiso   1.00
C1012  C     0.23856   0.47951   0.97067   0.00000  Uiso   1.00
C1013  C     0.02112   0.45870   0.76031   0.00000  Uiso   1.00
C1014  C     0.31218   0.54178   0.74304   0.00000  Uiso   1.00
C1015  C     0.31178   0.45886   0.76106   0.00000  Uiso   1.00
C1016  C     0.02149   0.54160   0.74219   0.00000  Uiso   1.00
C1017  C     0.29054   0.50029   0.75197   0.00000  Uiso   1.00
C1018  C     0.04275   0.50002   0.75068   0.00000  Uiso   1.00
C1019  C     0.14056   0.35796   0.72343   0.00000  Uiso   1.00
C1020  C     0.19275   0.64203   0.77660   0.00000  Uiso   1.00
C1021  C     0.19276   0.35831   0.77659   0.00000  Uiso   1.00
C1022  C     0.14056   0.64169   0.72343   0.00000  Uiso   1.00
C1023  C     0.16895   0.49990   0.66449   0.00000  Uiso   1.00
C1024  C     0.16486   0.50013   0.83544   0.00000  Uiso   1.00
C1025  C     0.19974   0.48981   0.90477   0.00000  Uiso   1.00
C1026  C     0.13635   0.51601   0.59476   0.00000  Uiso   1.00
C1027  C     0.16341   0.50068   0.88363   0.00000  Uiso   1.00
C1028  C     0.17107   0.49990   0.61612   0.00000  Uiso   1.00
C1029  C     0.12724   0.51294   0.90795   0.00000  Uiso   1.00
C1030  C     0.20683   0.48572   0.59178   0.00000  Uiso   1.00
C1031  C     0.12953   0.51740   0.95525   0.00000  Uiso   1.00
C1032  C     0.20709   0.48992   0.54430   0.00000  Uiso   1.00
C1033  C     0.16701   0.50434   0.97635   0.00000  Uiso   1.00
C1034  C     0.16986   0.50393   0.52319   0.00000  Uiso   1.00
C1035  C     0.20163   0.49084   0.95065   0.00000  Uiso   1.00
C1036  C     0.13513   0.51718   0.54884   0.00000  Uiso   1.00
C1037  C     0.09648   0.53481   0.98240   0.00000  Uiso   1.00
C1038  C     0.24267   0.48129   0.51682   0.00000  Uiso   1.00
Cu1039 Cu    0.16667   0.54689   0.75000   0.00000  Uiso   1.00
Cu1040 Cu    0.16667   0.45311   0.75000   0.00000  Uiso   1.00
H1041  H     0.22688   0.48045   0.88502   0.00000  Uiso   1.00
H1042  H     0.10957   0.52689   0.61438   0.00000  Uiso   1.00
H1043  H     0.07305   0.54270   0.54920   0.00000  Uiso   1.00
H1044  H     0.26484   0.46941   0.95007   0.00000  Uiso   1.00
H1045  H     0.03710   0.42637   0.76737   0.00000  Uiso   1.00
H1046  H     0.29625   0.57411   0.73589   0.00000  Uiso   1.00
H1047  H     0.29549   0.42658   0.76840   0.00000  Uiso   1.00
H1048  H     0.03774   0.57387   0.73473   0.00000  Uiso   1.00
H1049  H     0.11966   0.37651   0.70212   0.00000  Uiso   1.00
H1050  H     0.21364   0.62348   0.79791   0.00000  Uiso   1.00
H1051  H     0.21366   0.37713   0.79790   0.00000  Uiso   1.00
H1052  H     0.11964   0.62286   0.70214   0.00000  Uiso   1.00
N1053  N     0.16667   0.61736   0.75000   0.00000  Uiso   1.00
N1054  N     0.16667   0.38264   0.75000   0.00000  Uiso   1.00
O1055  O     0.10655   0.53958   0.75000   0.00000  Uiso   1.00
O1056  O     0.22679   0.46042   0.75001   0.00000  Uiso   1.00
O1057  O     0.22679   0.53958   0.75001   0.00000  Uiso   1.00
O1058  O     0.10655   0.46042   0.75000   0.00000  Uiso   1.00
O1059  O     0.16666   0.53960   0.68513   0.00000  Uiso   1.00
O1060  O     0.16668   0.46040   0.81487   0.00000  Uiso   1.00
O1061  O     0.16668   0.53960   0.81487   0.00000  Uiso   1.00
O1062  O     0.16666   0.46040   0.68513   0.00000  Uiso   1.00
C1063  C     0.08651   0.51495   0.88338   0.00000  Uiso   1.00
C1064  C     0.07683   0.56445   0.86664   0.00000  Uiso   1.00
C1065  C     0.03090   0.56997   0.85760   0.00000  Uiso   1.00
H1066  H     0.02016   0.54174   0.83518   0.00000  Uiso   1.00
H1067  H     0.01270   0.56816   0.88912   0.00000  Uiso   1.00
H1068  H     0.02528   0.60436   0.84178   0.00000  Uiso   1.00
H1069  H     0.08629   0.59146   0.89107   0.00000  Uiso   1.00
H1070  H     0.09445   0.57121   0.83541   0.00000  Uiso   1.00
H1071  H     0.08712   0.49071   0.85438   0.00000  Uiso   1.00
H1072  H     0.06113   0.50043   0.90435   0.00000  Uiso   1.00
C1073  C     0.24296   0.46508   0.61685   0.00000  Uiso   1.00
C1074  C     0.27451   0.50293   0.62927   0.00000  Uiso   1.00
C1075  C     0.31607   0.48121   0.64032   0.00000  Uiso   1.00
H1076  H     0.32938   0.46283   0.61087   0.00000  Uiso   1.00
H1077  H     0.00457   0.50906   0.65054   0.00000  Uiso   1.00
H1078  H     0.31235   0.45559   0.66768   0.00000  Uiso   1.00
H1079  H     0.27906   0.52834   0.60182   0.00000  Uiso   1.00
H1080  H     0.26265   0.52300   0.65845   0.00000  Uiso   1.00
H1081  H     0.23262   0.44743   0.64777   0.00000  Uiso   1.00
H1082  H     0.25700   0.43568   0.59782   0.00000  Uiso   1.00
O1083  O     0.06092   0.55273   0.96406   0.00000  Uiso   1.00
C1084  C     0.05431   0.59936   0.97842   0.00000  Uiso   1.00
H1085  H     0.08325   0.62050   0.97774   0.00000  Uiso   1.00
H1086  H     0.03967   0.60025   0.51203   0.00000  Uiso   1.00
H1087  H     0.03253   0.61629   0.95549   0.00000  Uiso   1.00
O1088  O     0.28108   0.47273   0.53468   0.00000  Uiso   1.00
C1089  C     0.31085   0.50453   0.51763   0.00000  Uiso   1.00
H1090  H     0.29869   0.54090   0.51522   0.00000  Uiso   1.00
H1091  H     0.32317   0.49242   0.98492   0.00000  Uiso   1.00
H1092  H     0.00386   0.50565   0.54057   0.00000  Uiso   1.00
C1093  C     0.42070   0.49998   0.75009   0.00000  Uiso   1.00
C1094  C     0.57928   0.50006   0.75085   0.00000  Uiso   1.00
C1095  C     0.43262   0.53236   0.52867   0.00000  Uiso   1.00
C1096  C     0.57190   0.47951   0.97067   0.00000  Uiso   1.00
C1097  C     0.35445   0.45870   0.76031   0.00000  Uiso   1.00
C1098  C     0.64552   0.54178   0.74304   0.00000  Uiso   1.00
C1099  C     0.64511   0.45886   0.76106   0.00000  Uiso   1.00
C1100  C     0.35483   0.54160   0.74219   0.00000  Uiso   1.00
C1101  C     0.62387   0.50029   0.75197   0.00000  Uiso   1.00
C1102  C     0.37608   0.50002   0.75068   0.00000  Uiso   1.00
C1103  C     0.47390   0.35796   0.72343   0.00000  Uiso   1.00
C1104  C     0.52608   0.64203   0.77660   0.00000  Uiso   1.00
C1105  C     0.52609   0.35831   0.77659   0.00000  Uiso   1.00
C1106  C     0.47389   0.64169   0.72343   0.00000  Uiso   1.00
C1107  C     0.50229   0.49990   0.66449   0.00000  Uiso   1.00
C1108  C     0.49820   0.50013   0.83544   0.00000  Uiso   1.00
C1109  C     0.53307   0.48981   0.90477   0.00000  Uiso   1.00
C1110  C     0.46968   0.51601   0.59476   0.00000  Uiso   1.00
C1111  C     0.49675   0.50068   0.88363   0.00000  Uiso   1.00
C1112  C     0.50440   0.49990   0.61612   0.00000  Uiso   1.00
C1113  C     0.46058   0.51294   0.90795   0.00000  Uiso   1.00
C1114  C     0.54016   0.48572   0.59178   0.00000  Uiso   1.00
C1115  C     0.46287   0.51740   0.95525   0.00000  Uiso   1.00
C1116  C     0.54042   0.48992   0.54430   0.00000  Uiso   1.00
C1117  C     0.50034   0.50434   0.97635   0.00000  Uiso   1.00
C1118  C     0.50319   0.50393   0.52319   0.00000  Uiso   1.00
C1119  C     0.53497   0.49084   0.95065   0.00000  Uiso   1.00
C1120  C     0.46846   0.51718   0.54884   0.00000  Uiso   1.00
C1121  C     0.42982   0.53481   0.98240   0.00000  Uiso   1.00
C1122  C     0.57601   0.48129   0.51682   0.00000  Uiso   1.00
Cu1123 Cu    0.50000   0.54689   0.75000   0.00000  Uiso   1.00
Cu1124 Cu    0.50000   0.45311   0.75000   0.00000  Uiso   1.00
H1125  H     0.56021   0.48045   0.88502   0.00000  Uiso   1.00
H1126  H     0.44290   0.52689   0.61438   0.00000  Uiso   1.00
H1127  H     0.40639   0.54270   0.54920   0.00000  Uiso   1.00
H1128  H     0.59817   0.46941   0.95007   0.00000  Uiso   1.00
H1129  H     0.37044   0.42637   0.76737   0.00000  Uiso   1.00
H1130  H     0.62958   0.57411   0.73589   0.00000  Uiso   1.00
H1131  H     0.62882   0.42658   0.76840   0.00000  Uiso   1.00
H1132  H     0.37108   0.57387   0.73473   0.00000  Uiso   1.00
H1133  H     0.45300   0.37651   0.70212   0.00000  Uiso   1.00
H1134  H     0.54698   0.62348   0.79791   0.00000  Uiso   1.00
H1135  H     0.54699   0.37713   0.79790   0.00000  Uiso   1.00
H1136  H     0.45298   0.62286   0.70214   0.00000  Uiso   1.00
N1137  N     0.50000   0.61736   0.75000   0.00000  Uiso   1.00
N1138  N     0.50000   0.38264   0.75000   0.00000  Uiso   1.00
O1139  O     0.43988   0.53958   0.75000   0.00000  Uiso   1.00
O1140  O     0.56012   0.46042   0.75001   0.00000  Uiso   1.00
O1141  O     0.56012   0.53958   0.75001   0.00000  Uiso   1.00
O1142  O     0.43988   0.46042   0.75000   0.00000  Uiso   1.00
O1143  O     0.49999   0.53960   0.68513   0.00000  Uiso   1.00
O1144  O     0.50001   0.46040   0.81487   0.00000  Uiso   1.00
O1145  O     0.50001   0.53960   0.81487   0.00000  Uiso   1.00
O1146  O     0.49999   0.46040   0.68513   0.00000  Uiso   1.00
C1147  C     0.41984   0.51495   0.88338   0.00000  Uiso   1.00
C1148  C     0.41017   0.56445   0.86664   0.00000  Uiso   1.00
C1149  C     0.36424   0.56997   0.85760   0.00000  Uiso   1.00
H1150  H     0.35349   0.54174   0.83518   0.00000  Uiso   1.00
H1151  H     0.34603   0.56816   0.88912   0.00000  Uiso   1.00
H1152  H     0.35861   0.60436   0.84178   0.00000  Uiso   1.00
H1153  H     0.41963   0.59146   0.89107   0.00000  Uiso   1.00
H1154  H     0.42779   0.57121   0.83541   0.00000  Uiso   1.00
H1155  H     0.42045   0.49071   0.85438   0.00000  Uiso   1.00
H1156  H     0.39446   0.50043   0.90435   0.00000  Uiso   1.00
C1157  C     0.57630   0.46508   0.61685   0.00000  Uiso   1.00
C1158  C     0.60784   0.50293   0.62927   0.00000  Uiso   1.00
C1159  C     0.64940   0.48121   0.64032   0.00000  Uiso   1.00
H1160  H     0.66271   0.46283   0.61087   0.00000  Uiso   1.00
H1161  H     0.33790   0.50906   0.65054   0.00000  Uiso   1.00
H1162  H     0.64568   0.45559   0.66768   0.00000  Uiso   1.00
H1163  H     0.61239   0.52834   0.60182   0.00000  Uiso   1.00
H1164  H     0.59598   0.52300   0.65845   0.00000  Uiso   1.00
H1165  H     0.56595   0.44743   0.64777   0.00000  Uiso   1.00
H1166  H     0.59033   0.43568   0.59782   0.00000  Uiso   1.00
O1167  O     0.39425   0.55273   0.96406   0.00000  Uiso   1.00
C1168  C     0.38765   0.59936   0.97842   0.00000  Uiso   1.00
H1169  H     0.41659   0.62050   0.97774   0.00000  Uiso   1.00
H1170  H     0.37300   0.60025   0.51203   0.00000  Uiso   1.00
H1171  H     0.36586   0.61629   0.95549   0.00000  Uiso   1.00
O1172  O     0.61442   0.47273   0.53468   0.00000  Uiso   1.00
C1173  C     0.64418   0.50453   0.51763   0.00000  Uiso   1.00
H1174  H     0.63202   0.54090   0.51522   0.00000  Uiso   1.00
H1175  H     0.65651   0.49242   0.98492   0.00000  Uiso   1.00
H1176  H     0.33719   0.50565   0.54057   0.00000  Uiso   1.00
C1177  C     0.75403   0.49998   0.75009   0.00000  Uiso   1.00
C1178  C     0.91261   0.50006   0.75085   0.00000  Uiso   1.00
C1179  C     0.76595   0.53236   0.52867   0.00000  Uiso   1.00
C1180  C     0.90523   0.47951   0.97067   0.00000  Uiso   1.00
C1181  C     0.68779   0.45870   0.76031   0.00000  Uiso   1.00
C1182  C     0.97885   0.54178   0.74304   0.00000  Uiso   1.00
C1183  C     0.97845   0.45886   0.76106   0.00000  Uiso   1.00
C1184  C     0.68816   0.54160   0.74219   0.00000  Uiso   1.00
C1185  C     0.95721   0.50029   0.75197   0.00000  Uiso   1.00
C1186  C     0.70942   0.50002   0.75068   0.00000  Uiso   1.00
C1187  C     0.80723   0.35796   0.72343   0.00000  Uiso   1.00
C1188  C     0.85942   0.64203   0.77660   0.00000  Uiso   1.00
C1189  C     0.85942   0.35831   0.77659   0.00000  Uiso   1.00
C1190  C     0.80722   0.64169   0.72343   0.00000  Uiso   1.00
C1191  C     0.83562   0.49990   0.66449   0.00000  Uiso   1.00
C1192  C     0.83153   0.50013   0.83544   0.00000  Uiso   1.00
C1193  C     0.86641   0.48981   0.90477   0.00000  Uiso   1.00
C1194  C     0.80301   0.51601   0.59476   0.00000  Uiso   1.00
C1195  C     0.83008   0.50068   0.88363   0.00000  Uiso   1.00
C1196  C     0.83774   0.49990   0.61612   0.00000  Uiso   1.00
C1197  C     0.79391   0.51294   0.90795   0.00000  Uiso   1.00
C1198  C     0.87349   0.48572   0.59178   0.00000  Uiso   1.00
C1199  C     0.79620   0.51740   0.95525   0.00000  Uiso   1.00
C1200  C     0.87375   0.48992   0.54430   0.00000  Uiso   1.00
C1201  C     0.83368   0.50434   0.97635   0.00000  Uiso   1.00
C1202  C     0.83653   0.50393   0.52319   0.00000  Uiso   1.00
C1203  C     0.86830   0.49084   0.95065   0.00000  Uiso   1.00
C1204  C     0.80179   0.51718   0.54884   0.00000  Uiso   1.00
C1205  C     0.76315   0.53481   0.98240   0.00000  Uiso   1.00
C1206  C     0.90934   0.48129   0.51682   0.00000  Uiso   1.00
Cu1207 Cu    0.83333   0.54689   0.75000   0.00000  Uiso   1.00
Cu1208 Cu    0.83333   0.45311   0.75000   0.00000  Uiso   1.00
H1209  H     0.89355   0.48045   0.88502   0.00000  Uiso   1.00
H1210  H     0.77624   0.52689   0.61438   0.00000  Uiso   1.00
H1211  H     0.73972   0.54270   0.54920   0.00000  Uiso   1.00
H1212  H     0.93150   0.46941   0.95007   0.00000  Uiso   1.00
H1213  H     0.70377   0.42637   0.76737   0.00000  Uiso   1.00
H1214  H     0.96291   0.57411   0.73589   0.00000  Uiso   1.00
H1215  H     0.96216   0.42658   0.76840   0.00000  Uiso   1.00
H1216  H     0.70441   0.57387   0.73473   0.00000  Uiso   1.00
H1217  H     0.78633   0.37651   0.70212   0.00000  Uiso   1.00
H1218  H     0.88031   0.62348   0.79791   0.00000  Uiso   1.00
H1219  H     0.88033   0.37713   0.79790   0.00000  Uiso   1.00
H1220  H     0.78631   0.62286   0.70214   0.00000  Uiso   1.00
N1221  N     0.83333   0.61736   0.75000   0.00000  Uiso   1.00
N1222  N     0.83333   0.38264   0.75000   0.00000  Uiso   1.00
O1223  O     0.77321   0.53958   0.75000   0.00000  Uiso   1.00
O1224  O     0.89345   0.46042   0.75001   0.00000  Uiso   1.00
O1225  O     0.89345   0.53958   0.75001   0.00000  Uiso   1.00
O1226  O     0.77321   0.46042   0.75000   0.00000  Uiso   1.00
O1227  O     0.83332   0.53960   0.68513   0.00000  Uiso   1.00
O1228  O     0.83334   0.46040   0.81487   0.00000  Uiso   1.00
O1229  O     0.83334   0.53960   0.81487   0.00000  Uiso   1.00
O1230  O     0.83332   0.46040   0.68513   0.00000  Uiso   1.00
C1231  C     0.75318   0.51495   0.88338   0.00000  Uiso   1.00
C1232  C     0.74350   0.56445   0.86664   0.00000  Uiso   1.00
C1233  C     0.69757   0.56997   0.85760   0.00000  Uiso   1.00
H1234  H     0.68683   0.54174   0.83518   0.00000  Uiso   1.00
H1235  H     0.67936   0.56816   0.88912   0.00000  Uiso   1.00
H1236  H     0.69195   0.60436   0.84178   0.00000  Uiso   1.00
H1237  H     0.75296   0.59146   0.89107   0.00000  Uiso   1.00
H1238  H     0.76112   0.57121   0.83541   0.00000  Uiso   1.00
H1239  H     0.75378   0.49071   0.85438   0.00000  Uiso   1.00
H1240  H     0.72780   0.50043   0.90435   0.00000  Uiso   1.00
C1241  C     0.90963   0.46508   0.61685   0.00000  Uiso   1.00
C1242  C     0.94117   0.50293   0.62927   0.00000  Uiso   1.00
C1243  C     0.98274   0.48121   0.64032   0.00000  Uiso   1.00
H1244  H     0.99604   0.46283   0.61087   0.00000  Uiso   1.00
H1245  H     0.67124   0.50906   0.65054   0.00000  Uiso   1.00
H1246  H     0.97901   0.45559   0.66768   0.00000  Uiso   1.00
H1247  H     0.94573   0.52834   0.60182   0.00000  Uiso   1.00
H1248  H     0.92932   0.52300   0.65845   0.00000  Uiso   1.00
H1249  H     0.89929   0.44743   0.64777   0.00000  Uiso   1.00
H1250  H     0.92367   0.43568   0.59782   0.00000  Uiso   1.00
O1251  O     0.72758   0.55273   0.96406   0.00000  Uiso   1.00
C1252  C     0.72098   0.59936   0.97842   0.00000  Uiso   1.00
H1253  H     0.74992   0.62050   0.97774   0.00000  Uiso   1.00
H1254  H     0.70633   0.60025   0.51203   0.00000  Uiso   1.00
H1255  H     0.69920   0.61629   0.95549   0.00000  Uiso   1.00
O1256  O     0.94775   0.47273   0.53468   0.00000  Uiso   1.00
C1257  C     0.97751   0.50453   0.51763   0.00000  Uiso   1.00
H1258  H     0.96536   0.54090   0.51522   0.00000  Uiso   1.00
H1259  H     0.98984   0.49242   0.98492   0.00000  Uiso   1.00
H1260  H     0.67053   0.50565   0.54057   0.00000  Uiso   1.00
C1261  C     0.08736   0.83331   0.75009   0.00000  Uiso   1.00
C1262  C     0.24595   0.83339   0.75085   0.00000  Uiso   1.00
C1263  C     0.09929   0.86570   0.52867   0.00000  Uiso   1.00
C1264  C     0.23856   0.81284   0.97067   0.00000  Uiso   1.00
C1265  C     0.02112   0.79203   0.76031   0.00000  Uiso   1.00
C1266  C     0.31218   0.87511   0.74304   0.00000  Uiso   1.00
C1267  C     0.31178   0.79219   0.76106   0.00000  Uiso   1.00
C1268  C     0.02149   0.87493   0.74219   0.00000  Uiso   1.00
C1269  C     0.29054   0.83362   0.75197   0.00000  Uiso   1.00
C1270  C     0.04275   0.83335   0.75068   0.00000  Uiso   1.00
C1271  C     0.14056   0.69130   0.72343   0.00000  Uiso   1.00
C1272  C     0.19275   0.97537   0.77660   0.00000  Uiso   1.00
C1273  C     0.19276   0.69164   0.77659   0.00000  Uiso   1.00
C1274  C     0.14056   0.97502   0.72343   0.00000  Uiso   1.00
C1275  C     0.16895   0.83323   0.66449   0.00000  Uiso   1.00
C1276  C     0.16486   0.83346   0.83544   0.00000  Uiso   1.00
C1277  C     0.19974   0.82314   0.90477   0.00000  Uiso   1.00
C1278  C     0.13635   0.84935   0.59476   0.00000  Uiso   1.00
C1279  C     0.16341   0.83401   0.88363   0.00000  Uiso   1.00
C1280  C     0.17107   0.83324   0.61612   0.00000  Uiso   1.00
C1281  C     0.12724   0.84628   0.90795   0.00000  Uiso   1.00
C1282  C     0.20683   0.81905   0.59178   0.00000  Uiso   1.00
C1283  C     0.12953   0.85074   0.95525   0.00000  Uiso   1.00
C1284  C     0.20709   0.82325   0.54430   0.00000  Uiso   1.00
C1285  C     0.16701   0.83767   0.97635   0.00000  Uiso   1.00
C1286  C     0.16986   0.83727   0.52319   0.00000  Uiso   1.00
C1287  C     0.20163   0.82418   0.95065   0.00000  Uiso   1.00
C1288  C     0.13513   0.85052   0.54884   0.00000  Uiso   1.00
C1289  C     0.09648   0.86814   0.98240   0.00000  Uiso   1.00
C1290  C     0.24267   0.81462   0.51682   0.00000  Uiso   1.00
Cu1291 Cu    0.16667   0.88022   0.75000   0.00000  Uiso   1.00
Cu1292 Cu    0.16667   0.78645   0.75000   0.00000  Uiso   1.00
H1293  H     0.22688   0.81378   0.88502   0.00000  Uiso   1.00
H1294  H     0.10957   0.86023   0.61438   0.00000  Uiso   1.00
H1295  H     0.07305   0.87603   0.54920   0.00000  Uiso   1.00
H1296  H     0.26484   0.80274   0.95007   0.00000  Uiso   1.00
H1297  H     0.03710   0.75970   0.76737   0.00000  Uiso   1.00
H1298  H     0.29625   0.90744   0.73589   0.00000  Uiso   1.00
H1299  H     0.29549   0.75991   0.76840   0.00000  Uiso   1.00
H1300  H     0.03774   0.90720   0.73473   0.00000  Uiso   1.00
H1301  H     0.11966   0.70985   0.70212   0.00000  Uiso   1.00
H1302  H     0.21364   0.95681   0.79791   0.00000  Uiso   1.00
H1303  H     0.21366   0.71047   0.79790   0.00000  Uiso   1.00
H1304  H     0.11964   0.95619   0.70214   0.00000  Uiso   1.00
N1305  N     0.16667   0.95069   0.75000   0.00000  Uiso   1.00
N1306  N     0.16667   0.71598   0.75000   0.00000  Uiso   1.00
O1307  O     0.10655   0.87291   0.75000   0.00000  Uiso   1.00
O1308  O     0.22679   0.79375   0.75001   0.00000  Uiso   1.00
O1309  O     0.22679   0.87291   0.75001   0.00000  Uiso   1.00
O1310  O     0.10655   0.79375   0.75000   0.00000  Uiso   1.00
O1311  O     0.16666   0.87293   0.68513   0.00000  Uiso   1.00
O1312  O     0.16668   0.79373   0.81487   0.00000  Uiso   1.00
O1313  O     0.16668   0.87293   0.81487   0.00000  Uiso   1.00
O1314  O     0.16666   0.79373   0.68513   0.00000  Uiso   1.00
C1315  C     0.08651   0.84828   0.88338   0.00000  Uiso   1.00
C1316  C     0.07683   0.89778   0.86664   0.00000  Uiso   1.00
C1317  C     0.03090   0.90330   0.85760   0.00000  Uiso   1.00
H1318  H     0.02016   0.87507   0.83518   0.00000  Uiso   1.00
H1319  H     0.01270   0.90149   0.88912   0.00000  Uiso   1.00
H1320  H     0.02528   0.93770   0.84178   0.00000  Uiso   1.00
H1321  H     0.08629   0.92479   0.89107   0.00000  Uiso   1.00
H1322  H     0.09445   0.90454   0.83541   0.00000  Uiso   1.00
H1323  H     0.08712   0.82404   0.85438   0.00000  Uiso   1.00
H1324  H     0.06113   0.83376   0.90435   0.00000  Uiso   1.00
C1325  C     0.24296   0.79842   0.61685   0.00000  Uiso   1.00
C1326  C     0.27451   0.83626   0.62927   0.00000  Uiso   1.00
C1327  C     0.31607   0.81455   0.64032   0.00000  Uiso   1.00
H1328  H     0.32938   0.79616   0.61087   0.00000  Uiso   1.00
H1329  H     0.00457   0.84240   0.65054   0.00000  Uiso   1.00
H1330  H     0.31235   0.78892   0.66768   0.00000  Uiso   1.00
H1331  H     0.27906   0.86167   0.60182   0.00000  Uiso   1.00
H1332  H     0.26265   0.85634   0.65845   0.00000  Uiso   1.00
H1333  H     0.23262   0.78077   0.64777   0.00000  Uiso   1.00
H1334  H     0.25700   0.76902   0.59782   0.00000  Uiso   1.00
O1335  O     0.06092   0.88606   0.96406   0.00000  Uiso   1.00
C1336  C     0.05431   0.93270   0.97842   0.00000  Uiso   1.00
H1337  H     0.08325   0.95383   0.97774   0.00000  Uiso   1.00
H1338  H     0.03967   0.93358   0.51203   0.00000  Uiso   1.00
H1339  H     0.03253   0.94962   0.95549   0.00000  Uiso   1.00
O1340  O     0.28108   0.80606   0.53468   0.00000  Uiso   1.00
C1341  C     0.31085   0.83786   0.51763   0.00000  Uiso   1.00
H1342  H     0.29869   0.87423   0.51522   0.00000  Uiso   1.00
H1343  H     0.32317   0.82575   0.98492   0.00000  Uiso   1.00
H1344  H     0.00386   0.83898   0.54057   0.00000  Uiso   1.00
C1345  C     0.42070   0.83331   0.75009   0.00000  Uiso   1.00
C1346  C     0.57928   0.83339   0.75085   0.00000  Uiso   1.00
C1347  C     0.43262   0.86570   0.52867   0.00000  Uiso   1.00
C1348  C     0.57190   0.81284   0.97067   0.00000  Uiso   1.00
C1349  C     0.35445   0.79203   0.76031   0.00000  Uiso   1.00
C1350  C     0.64552   0.87511   0.74304   0.00000  Uiso   1.00
C1351  C     0.64511   0.79219   0.76106   0.00000  Uiso   1.00
C1352  C     0.35483   0.87493   0.74219   0.00000  Uiso   1.00
C1353  C     0.62387   0.83362   0.75197   0.00000  Uiso   1.00
C1354  C     0.37608   0.83335   0.75068   0.00000  Uiso   1.00
C1355  C     0.47390   0.69130   0.72343   0.00000  Uiso   1.00
C1356  C     0.52608   0.97537   0.77660   0.00000  Uiso   1.00
C1357  C     0.52609   0.69164   0.77659   0.00000  Uiso   1.00
C1358  C     0.47389   0.97502   0.72343   0.00000  Uiso   1.00
C1359  C     0.50229   0.83323   0.66449   0.00000  Uiso   1.00
C1360  C     0.49820   0.83346   0.83544   0.00000  Uiso   1.00
C1361  C     0.53307   0.82314   0.90477   0.00000  Uiso   1.00
C1362  C     0.46968   0.84935   0.59476   0.00000  Uiso   1.00
C1363  C     0.49675   0.83401   0.88363   0.00000  Uiso   1.00
C1364  C     0.50440   0.83324   0.61612   0.00000  Uiso   1.00
C1365  C     0.46058   0.84628   0.90795   0.00000  Uiso   1.00
C1366  C     0.54016   0.81905   0.59178   0.00000  Uiso   1.00
C1367  C     0.46287   0.85074   0.95525   0.00000  Uiso   1.00
C1368  C     0.54042   0.82325   0.54430   0.00000  Uiso   1.00
C1369  C     0.50034   0.83767   0.97635   0.00000  Uiso   1.00
C1370  C     0.50319   0.83727   0.52319   0.00000  Uiso   1.00
C1371  C     0.53497   0.82418   0.95065   0.00000  Uiso   1.00
C1372  C     0.46846   0.85052   0.54884   0.00000  Uiso   1.00
C1373  C     0.42982   0.86814   0.98240   0.00000  Uiso   1.00
C1374  C     0.57601   0.81462   0.51682   0.00000  Uiso   1.00
Cu1375 Cu    0.50000   0.88022   0.75000   0.00000  Uiso   1.00
Cu1376 Cu    0.50000   0.78645   0.75000   0.00000  Uiso   1.00
H1377  H     0.56021   0.81378   0.88502   0.00000  Uiso   1.00
H1378  H     0.44290   0.86023   0.61438   0.00000  Uiso   1.00
H1379  H     0.40639   0.87603   0.54920   0.00000  Uiso   1.00
H1380  H     0.59817   0.80274   0.95007   0.00000  Uiso   1.00
H1381  H     0.37044   0.75970   0.76737   0.00000  Uiso   1.00
H1382  H     0.62958   0.90744   0.73589   0.00000  Uiso   1.00
H1383  H     0.62882   0.75991   0.76840   0.00000  Uiso   1.00
H1384  H     0.37108   0.90720   0.73473   0.00000  Uiso   1.00
H1385  H     0.45300   0.70985   0.70212   0.00000  Uiso   1.00
H1386  H     0.54698   0.95681   0.79791   0.00000  Uiso   1.00
H1387  H     0.54699   0.71047   0.79790   0.00000  Uiso   1.00
H1388  H     0.45298   0.95619   0.70214   0.00000  Uiso   1.00
N1389  N     0.50000   0.95069   0.75000   0.00000  Uiso   1.00
N1390  N     0.50000   0.71598   0.75000   0.00000  Uiso   1.00
O1391  O     0.43988   0.87291   0.75000   0.00000  Uiso   1.00
O1392  O     0.56012   0.79375   0.75001   0.00000  Uiso   1.00
O1393  O     0.56012   0.87291   0.75001   0.00000  Uiso   1.00
O1394  O     0.43988   0.79375   0.75000   0.00000  Uiso   1.00
O1395  O     0.49999   0.87293   0.68513   0.00000  Uiso   1.00
O1396  O     0.50001   0.79373   0.81487   0.00000  Uiso   1.00
O1397  O     0.50001   0.87293   0.81487   0.00000  Uiso   1.00
O1398  O     0.49999   0.79373   0.68513   0.00000  Uiso   1.00
C1399  C     0.41984   0.84828   0.88338   0.00000  Uiso   1.00
C1400  C     0.41017   0.89778   0.86664   0.00000  Uiso   1.00
C1401  C     0.36424   0.90330   0.85760   0.00000  Uiso   1.00
H1402  H     0.35349   0.87507   0.83518   0.00000  Uiso   1.00
H1403  H     0.34603   0.90149   0.88912   0.00000  Uiso   1.00
H1404  H     0.35861   0.93770   0.84178   0.00000  Uiso   1.00
H1405  H     0.41963   0.92479   0.89107   0.00000  Uiso   1.00
H1406  H     0.42779   0.90454   0.83541   0.00000  Uiso   1.00
H1407  H     0.42045   0.82404   0.85438   0.00000  Uiso   1.00
H1408  H     0.39446   0.83376   0.90435   0.00000  Uiso   1.00
C1409  C     0.57630   0.79842   0.61685   0.00000  Uiso   1.00
C1410  C     0.60784   0.83626   0.62927   0.00000  Uiso   1.00
C1411  C     0.64940   0.81455   0.64032   0.00000  Uiso   1.00
H1412  H     0.66271   0.79616   0.61087   0.00000  Uiso   1.00
H1413  H     0.33790   0.84240   0.65054   0.00000  Uiso   1.00
H1414  H     0.64568   0.78892   0.66768   0.00000  Uiso   1.00
H1415  H     0.61239   0.86167   0.60182   0.00000  Uiso   1.00
H1416  H     0.59598   0.85634   0.65845   0.00000  Uiso   1.00
H1417  H     0.56595   0.78077   0.64777   0.00000  Uiso   1.00
H1418  H     0.59033   0.76902   0.59782   0.00000  Uiso   1.00
O1419  O     0.39425   0.88606   0.96406   0.00000  Uiso   1.00
C1420  C     0.38765   0.93270   0.97842   0.00000  Uiso   1.00
H1421  H     0.41659   0.95383   0.97774   0.00000  Uiso   1.00
H1422  H     0.37300   0.93358   0.51203   0.00000  Uiso   1.00
H1423  H     0.36586   0.94962   0.95549   0.00000  Uiso   1.00
O1424  O     0.61442   0.80606   0.53468   0.00000  Uiso   1.00
C1425  C     0.64418   0.83786   0.51763   0.00000  Uiso   1.00
H1426  H     0.63202   0.87423   0.51522   0.00000  Uiso   1.00
H1427  H     0.65651   0.82575   0.98492   0.00000  Uiso   1.00
H1428  H     0.33719   0.83898   0.54057   0.00000  Uiso   1.00
C1429  C     0.75403   0.83331   0.75009   0.00000  Uiso   1.00
C1430  C     0.91261   0.83339   0.75085   0.00000  Uiso   1.00
C1431  C     0.76595   0.86570   0.52867   0.00000  Uiso   1.00
C1432  C     0.90523   0.81284   0.97067   0.00000  Uiso   1.00
C1433  C     0.68779   0.79203   0.76031   0.00000  Uiso   1.00
C1434  C     0.97885   0.87511   0.74304   0.00000  Uiso   1.00
C1435  C     0.97845   0.79219   0.76106   0.00000  Uiso   1.00
C1436  C     0.68816   0.87493   0.74219   0.00000  Uiso   1.00
C1437  C     0.95721   0.83362   0.75197   0.00000  Uiso   1.00
C1438  C     0.70942   0.83335   0.75068   0.00000  Uiso   1.00
C1439  C     0.80723   0.69130   0.72343   0.00000  Uiso   1.00
C1440  C     0.85942   0.97537   0.77660   0.00000  Uiso   1.00
C1441  C     0.85942   0.69164   0.77659   0.00000  Uiso   1.00
C1442  C     0.80722   0.97502   0.72343   0.00000  Uiso   1.00
C1443  C     0.83562   0.83323   0.66449   0.00000  Uiso   1.00
C1444  C     0.83153   0.83346   0.83544   0.00000  Uiso   1.00
C1445  C     0.86641   0.82314   0.90477   0.00000  Uiso   1.00
C1446  C     0.80301   0.84935   0.59476   0.00000  Uiso   1.00
C1447  C     0.83008   0.83401   0.88363   0.00000  Uiso   1.00
C1448  C     0.83774   0.83324   0.61612   0.00000  Uiso   1.00
C1449  C     0.79391   0.84628   0.90795   0.00000  Uiso   1.00
C1450  C     0.87349   0.81905   0.59178   0.00000  Uiso   1.00
C1451  C     0.79620   0.85074   0.95525   0.00000  Uiso   1.00
C1452  C     0.87375   0.82325   0.54430   0.00000  Uiso   1.00
C1453  C     0.83368   0.83767   0.97635   0.00000  Uiso   1.00
C1454  C     0.83653   0.83727   0.52319   0.00000  Uiso   1.00
C1455  C     0.86830   0.82418   0.95065   0.00000  Uiso   1.00
C1456  C     0.80179   0.85052   0.54884   0.00000  Uiso   1.00
C1457  C     0.76315   0.86814   0.98240   0.00000  Uiso   1.00
C1458  C     0.90934   0.81462   0.51682   0.00000  Uiso   1.00
Cu1459 Cu    0.83333   0.88022   0.75000   0.00000  Uiso   1.00
Cu1460 Cu    0.83333   0.78645   0.75000   0.00000  Uiso   1.00
H1461  H     0.89355   0.81378   0.88502   0.00000  Uiso   1.00
H1462  H     0.77624   0.86023   0.61438   0.00000  Uiso   1.00
H1463  H     0.73972   0.87603   0.54920   0.00000  Uiso   1.00
H1464  H     0.93150   0.80274   0.95007   0.00000  Uiso   1.00
H1465  H     0.70377   0.75970   0.76737   0.00000  Uiso   1.00
H1466  H     0.96291   0.90744   0.73589   0.00000  Uiso   1.00
H1467  H     0.96216   0.75991   0.76840   0.00000  Uiso   1.00
H1468  H     0.70441   0.90720   0.73473   0.00000  Uiso   1.00
H1469  H     0.78633   0.70985   0.70212   0.00000  Uiso   1.00
H1470  H     0.88031   0.95681   0.79791   0.00000  Uiso   1.00
H1471  H     0.88033   0.71047   0.79790   0.00000  Uiso   1.00
H1472  H     0.78631   0.95619   0.70214   0.00000  Uiso   1.00
N1473  N     0.83333   0.95069   0.75000   0.00000  Uiso   1.00
N1474  N     0.83333   0.71598   0.75000   0.00000  Uiso   1.00
O1475  O     0.77321   0.87291   0.75000   0.00000  Uiso   1.00
O1476  O     0.89345   0.79375   0.75001   0.00000  Uiso   1.00
O1477  O     0.89345   0.87291   0.75001   0.00000  Uiso   1.00
O1478  O     0.77321   0.79375   0.75000   0.00000  Uiso   1.00
O1479  O     0.83332   0.87293   0.68513   0.00000  Uiso   1.00
O1480  O     0.83334   0.79373   0.81487   0.00000  Uiso   1.00
O1481  O     0.83334   0.87293   0.81487   0.00000  Uiso   1.00
O1482  O     0.83332   0.79373   0.68513   0.00000  Uiso   1.00
C1483  C     0.75318   0.84828   0.88338   0.00000  Uiso   1.00
C1484  C     0.74350   0.89778   0.86664   0.00000  Uiso   1.00
C1485  C     0.69757   0.90330   0.85760   0.00000  Uiso   1.00
H1486  H     0.68683   0.87507   0.83518   0.00000  Uiso   1.00
H1487  H     0.67936   0.90149   0.88912   0.00000  Uiso   1.00
H1488  H     0.69195   0.93770   0.84178   0.00000  Uiso   1.00
H1489  H     0.75296   0.92479   0.89107   0.00000  Uiso   1.00
H1490  H     0.76112   0.90454   0.83541   0.00000  Uiso   1.00
H1491  H     0.75378   0.82404   0.85438   0.00000  Uiso   1.00
H1492  H     0.72780   0.83376   0.90435   0.00000  Uiso   1.00
C1493  C     0.90963   0.79842   0.61685   0.00000  Uiso   1.00
C1494  C     0.94117   0.83626   0.62927   0.00000  Uiso   1.00
C1495  C     0.98274   0.81455   0.64032   0.00000  Uiso   1.00
H1496  H     0.99604   0.79616   0.61087   0.00000  Uiso   1.00
H1497  H     0.67124   0.84240   0.65054   0.00000  Uiso   1.00
H1498  H     0.97901   0.78892   0.66768   0.00000  Uiso   1.00
H1499  H     0.94573   0.86167   0.60182   0.00000  Uiso   1.00
H1500  H     0.92932   0.85634   0.65845   0.00000  Uiso   1.00
H1501  H     0.89929   0.78077   0.64777   0.00000  Uiso   1.00
H1502  H     0.92367   0.76902   0.59782   0.00000  Uiso   1.00
O1503  O     0.72758   0.88606   0.96406   0.00000  Uiso   1.00
C1504  C     0.72098   0.93270   0.97842   0.00000  Uiso   1.00
H1505  H     0.74992   0.95383   0.97774   0.00000  Uiso   1.00
H1506  H     0.70633   0.93358   0.51203   0.00000  Uiso   1.00
H1507  H     0.69920   0.94962   0.95549   0.00000  Uiso   1.00
O1508  O     0.94775   0.80606   0.53468   0.00000  Uiso   1.00
C1509  C     0.97751   0.83786   0.51763   0.00000  Uiso   1.00
H1510  H     0.96536   0.87423   0.51522   0.00000  Uiso   1.00
H1511  H     0.98984   0.82575   0.98492   0.00000  Uiso   1.00
H1512  H     0.67053   0.83898   0.54057   0.00000  Uiso   1.00
loop_
_geom_bond_atom_site_label_1
_geom_bond_atom_site_label_2
_geom_bond_distance
_geom_bond_site_symmetry_2
_ccdc_geom_bond_type
C1     O50     1.291   .     A
C1     O47     1.290   .     A
C1     C10     1.446   .     S
C2     O48     1.291   .     A
C2     O49     1.290   .     A
C2     C9      1.447   .     S
C3     C28     1.391   .     A
C3     H35     1.083   .     S
C3     C785    1.399   1_554 S
C4     H36     1.084   .     S
C4     C27     1.389   .     A
C4     C786    1.398   .     S
C5     H37     1.083   .     S
C5     C10     1.400   .     A
C5     C175    1.383   1_455 S
C6     C9      1.401   .     A
C6     H38     1.083   .     S
C6     C92     1.382   .     S
C7     C9      1.400   .     A
C7     H39     1.083   .     S
C7     C89     1.383   .     S
C8     C10     1.401   .     A
C8     H40     1.083   .     S
C8     C174    1.382   1_455 S
C11    H41     1.082   .     S
C11    N46     1.367   .     A
C11    C518    1.417   1_545 S
C12    H42     1.082   .     S
C12    N45     1.367   .     A
C12    C265    1.417   .     S
C13    N46     1.367   .     A
C13    H43     1.082   .     S
C13    C516    1.417   1_545 S
C14    N45     1.367   .     A
C14    H44     1.082   .     S
C14    C263    1.417   .     S
C15    O51     1.292   .     A
C15    C20     1.456   .     S
C15    O54     1.291   .     A
C16    O53     1.289   .     A
C16    O52     1.291   .     A
C16    C19     1.450   .     S
C17    H33     1.087   .     S
C17    C27     1.383   .     A
C17    C19     1.384   .     A
C18    C20     1.386   .     A
C18    C28     1.384   .     A
C18    H34     1.087   .     S
C19    C21     1.415   .     A
C20    C22     1.419   .     A
C21    C55     1.526   .     S
C21    C23     1.432   .     A
C22    C65     1.525   .     S
C22    C24     1.435   .     A
C23    C29     1.425   .     A
C23    C25     1.431   .     A
C24    C26     1.432   .     A
C24    C30     1.429   .     A
C25    C27     1.406   .     A
C25    C782    1.415   .     S
C26    C28     1.406   .     A
C26    C781    1.415   1_554 S
C29    O75     1.387   .     S
C29    C759    1.399   .     S
C30    O80     1.387   .     S
C30    C760    1.398   1_554 S
Cu31   O47     1.960   .     S
Cu31   O49     1.961   .     S
Cu31   Cu32    2.678   .     S
Cu31   O53     1.964   .     S
Cu31   O51     1.963   .     S
Cu31   N45     2.013   .     S
Cu32   O52     1.963   .     S
Cu32   O48     1.960   .     S
Cu32   O54     1.964   .     S
Cu32   O50     1.961   .     S
Cu32   N46     2.013   .     S
C55    C56     1.537   .     S
C55    H63     1.111   .     S
C55    H64     1.109   .     S
C56    C57     1.527   .     S
C56    H62     1.109   .     S
C56    H61     1.110   .     S
C57    H59     1.110   .     S
C57    H60     1.110   .     S
C57    H58     1.109   .     S
C65    H73     1.107   .     S
C65    H74     1.108   .     S
C65    C66     1.536   .     S
C66    H72     1.110   .     S
C66    H71     1.110   .     S
C66    C67     1.527   .     S
C67    H68     1.110   .     S
C67    H70     1.109   .     S
C67    H153    1.110   .     S
H69    C235    1.110   1_455 S
O75    C76     1.414   .     S
C76    H79     1.109   .     S
C76    H77     1.115   .     S
C76    H834    1.110   .     S
H78    C832    1.110   1_554 S
O80    C81     1.415   .     S
C81    H82     1.115   .     S
C81    H839    1.110   1_554 S
C81    H168    1.108   .     S
H83    C837    1.110   .     S
H84    C249    1.108   1_455 S
C85    O134    1.291   .     A
C85    O131    1.290   .     A
C85    C94     1.446   .     S
C86    O132    1.291   .     A
C86    O133    1.290   .     A
C86    C93     1.447   .     S
C87    C112    1.391   .     A
C87    H119    1.083   .     S
C87    C869    1.399   1_554 S
C88    H120    1.084   .     S
C88    C111    1.389   .     A
C88    C870    1.398   .     S
C89    H121    1.083   .     S
C89    C94     1.400   .     A
C90    C93     1.401   .     A
C90    H122    1.083   .     S
C90    C176    1.382   .     S
C91    C93     1.400   .     A
C91    H123    1.083   .     S
C91    C173    1.383   .     S
C92    C94     1.401   .     A
C92    H124    1.083   .     S
C95    H125    1.082   .     S
C95    N130    1.367   .     A
C95    C602    1.417   1_545 S
C96    H126    1.082   .     S
C96    N129    1.367   .     A
C96    C349    1.417   .     S
C97    N130    1.367   .     A
C97    H127    1.082   .     S
C97    C600    1.417   1_545 S
C98    N129    1.367   .     A
C98    H128    1.082   .     S
C98    C347    1.417   .     S
C99    O135    1.292   .     A
C99    C104    1.456   .     S
C99    O138    1.291   .     A
C100   O137    1.289   .     A
C100   O136    1.291   .     A
C100   C103    1.450   .     S
C101   H117    1.087   .     S
C101   C111    1.383   .     A
C101   C103    1.384   .     A
C102   C104    1.386   .     A
C102   C112    1.384   .     A
C102   H118    1.087   .     S
C103   C105    1.415   .     A
C104   C106    1.419   .     A
C105   C139    1.526   .     S
C105   C107    1.432   .     A
C106   C149    1.525   .     S
C106   C108    1.435   .     A
C107   C113    1.425   .     A
C107   C109    1.431   .     A
C108   C110    1.432   .     A
C108   C114    1.429   .     A
C109   C111    1.406   .     A
C109   C866    1.415   .     S
C110   C112    1.406   .     A
C110   C865    1.415   1_554 S
C113   O159    1.387   .     S
C113   C843    1.399   .     S
C114   O164    1.387   .     S
C114   C844    1.398   1_554 S
Cu115  O131    1.960   .     S
Cu115  O133    1.961   .     S
Cu115  Cu116   2.678   .     S
Cu115  O137    1.964   .     S
Cu115  O135    1.963   .     S
Cu115  N129    2.013   .     S
Cu116  O136    1.963   .     S
Cu116  O132    1.960   .     S
Cu116  O138    1.964   .     S
Cu116  O134    1.961   .     S
Cu116  N130    2.013   .     S
C139   C140    1.537   .     S
C139   H147    1.111   .     S
C139   H148    1.109   .     S
C140   C141    1.527   .     S
C140   H146    1.109   .     S
C140   H145    1.110   .     S
C141   H143    1.110   .     S
C141   H144    1.110   .     S
C141   H142    1.109   .     S
C149   H157    1.107   .     S
C149   H158    1.108   .     S
C149   C150    1.536   .     S
C150   H156    1.110   .     S
C150   H155    1.110   .     S
C150   C151    1.527   .     S
C151   H152    1.110   .     S
C151   H154    1.109   .     S
C151   H237    1.110   .     S
O159   C160    1.414   .     S
C160   H163    1.109   .     S
C160   H161    1.115   .     S
C160   H918    1.110   .     S
H162   C916    1.110   1_554 S
O164   C165    1.415   .     S
C165   H166    1.115   .     S
C165   H923    1.110   1_554 S
C165   H252    1.108   .     S
H167   C921    1.110   .     S
C169   O218    1.291   .     A
C169   O215    1.290   .     A
C169   C178    1.446   .     S
C170   O216    1.291   .     A
C170   O217    1.290   .     A
C170   C177    1.447   .     S
C171   C196    1.391   .     A
C171   H203    1.083   .     S
C171   C953    1.399   1_554 S
C172   H204    1.084   .     S
C172   C195    1.389   .     A
C172   C954    1.398   .     S
C173   H205    1.083   .     S
C173   C178    1.400   .     A
C174   C177    1.401   .     A
C174   H206    1.083   .     S
C174   C8      1.382   1_655 S
C175   C177    1.400   .     A
C175   H207    1.083   .     S
C175   C5      1.383   1_655 S
C176   C178    1.401   .     A
C176   H208    1.083   .     S
C179   H209    1.082   .     S
C179   N214    1.367   .     A
C179   C686    1.417   1_545 S
C180   H210    1.082   .     S
C180   N213    1.367   .     A
C180   C433    1.417   .     S
C181   N214    1.367   .     A
C181   H211    1.082   .     S
C181   C684    1.417   1_545 S
C182   N213    1.367   .     A
C182   H212    1.082   .     S
C182   C431    1.417   .     S
C183   O219    1.292   .     A
C183   C188    1.456   .     S
C183   O222    1.291   .     A
C184   O221    1.289   .     A
C184   O220    1.291   .     A
C184   C187    1.450   .     S
C185   H201    1.087   .     S
C185   C195    1.383   .     A
C185   C187    1.384   .     A
C186   C188    1.386   .     A
C186   C196    1.384   .     A
C186   H202    1.087   .     S
C187   C189    1.415   .     A
C188   C190    1.419   .     A
C189   C223    1.526   .     S
C189   C191    1.432   .     A
C190   C233    1.525   .     S
C190   C192    1.435   .     A
C191   C197    1.425   .     A
C191   C193    1.431   .     A
C192   C194    1.432   .     A
C192   C198    1.429   .     A
C193   C195    1.406   .     A
C193   C950    1.415   .     S
C194   C196    1.406   .     A
C194   C949    1.415   1_554 S
C197   O243    1.387   .     S
C197   C927    1.399   .     S
C198   O248    1.387   .     S
C198   C928    1.398   1_554 S
Cu199  O215    1.960   .     S
Cu199  O217    1.961   .     S
Cu199  Cu200   2.678   .     S
Cu199  O221    1.964   .     S
Cu199  O219    1.963   .     S
Cu199  N213    2.013   .     S
Cu200  O220    1.963   .     S
Cu200  O216    1.960   .     S
Cu200  O222    1.964   .     S
Cu200  O218    1.961   .     S
Cu200  N214    2.013   .     S
C223   C224    1.537   .     S
C223   H231    1.111   .     S
C223   H232    1.109   .     S
C224   C225    1.527   .     S
C224   H230    1.109   .     S
C224   H229    1.110   .     S
C225   H227    1.110   .     S
C225   H228    1.110   .     S
C225   H226    1.109   .     S
C233   H241    1.107   .     S
C233   H242    1.108   .     S
C233   C234    1.536   .     S
C234   H240    1.110   .     S
C234   H239    1.110   .     S
C234   C235    1.527   .     S
C235   H236    1.110   .     S
C235   H238    1.109   .     S
C235   H69     1.110   1_655 S
O243   C244    1.414   .     S
C244   H247    1.109   .     S
C244   H245    1.115   .     S
C244   H1002   1.110   .     S
H246   C1000   1.110   1_554 S
O248   C249    1.415   .     S
C249   H250    1.115   .     S
C249   H1007   1.110   1_554 S
C249   H84     1.108   1_655 S
H251   C1005   1.110   .     S
C253   O302    1.291   .     A
C253   O299    1.290   .     A
C253   C262    1.446   .     S
C254   O300    1.291   .     A
C254   O301    1.290   .     A
C254   C261    1.447   .     S
C255   C280    1.391   .     A
C255   H287    1.083   .     S
C255   C1037   1.399   1_554 S
C256   H288    1.084   .     S
C256   C279    1.389   .     A
C256   C1038   1.398   .     S
C257   H289    1.083   .     S
C257   C262    1.400   .     A
C257   C427    1.383   1_455 S
C258   C261    1.401   .     A
C258   H290    1.083   .     S
C258   C344    1.382   .     S
C259   C261    1.400   .     A
C259   H291    1.083   .     S
C259   C341    1.383   .     S
C260   C262    1.401   .     A
C260   H292    1.083   .     S
C260   C426    1.382   1_455 S
C263   H293    1.082   .     S
C263   N298    1.367   .     A
C264   H294    1.082   .     S
C264   N297    1.367   .     A
C264   C517    1.417   .     S
C265   N298    1.367   .     A
C265   H295    1.082   .     S
C266   N297    1.367   .     A
C266   H296    1.082   .     S
C266   C515    1.417   .     S
C267   O303    1.292   .     A
C267   C272    1.456   .     S
C267   O306    1.291   .     A
C268   O305    1.289   .     A
C268   O304    1.291   .     A
C268   C271    1.450   .     S
C269   H285    1.087   .     S
C269   C279    1.383   .     A
C269   C271    1.384   .     A
C270   C272    1.386   .     A
C270   C280    1.384   .     A
C270   H286    1.087   .     S
C271   C273    1.415   .     A
C272   C274    1.419   .     A
C273   C307    1.526   .     S
C273   C275    1.432   .     A
C274   C317    1.525   .     S
C274   C276    1.435   .     A
C275   C281    1.425   .     A
C275   C277    1.431   .     A
C276   C278    1.432   .     A
C276   C282    1.429   .     A
C277   C279    1.406   .     A
C277   C1034   1.415   .     S
C278   C280    1.406   .     A
C278   C1033   1.415   1_554 S
C281   O327    1.387   .     S
C281   C1011   1.399   .     S
C282   O332    1.387   .     S
C282   C1012   1.398   1_554 S
Cu283  O299    1.960   .     S
Cu283  O301    1.961   .     S
Cu283  Cu284   2.678   .     S
Cu283  O305    1.964   .     S
Cu283  O303    1.963   .     S
Cu283  N297    2.013   .     S
Cu284  O304    1.963   .     S
Cu284  O300    1.960   .     S
Cu284  O306    1.964   .     S
Cu284  O302    1.961   .     S
Cu284  N298    2.013   .     S
C307   C308    1.537   .     S
C307   H315    1.111   .     S
C307   H316    1.109   .     S
C308   C309    1.527   .     S
C308   H314    1.109   .     S
C308   H313    1.110   .     S
C309   H311    1.110   .     S
C309   H312    1.110   .     S
C309   H310    1.109   .     S
C317   H325    1.107   .     S
C317   H326    1.108   .     S
C317   C318    1.536   .     S
C318   H324    1.110   .     S
C318   H323    1.110   .     S
C318   C319    1.527   .     S
C319   H320    1.110   .     S
C319   H322    1.109   .     S
C319   H405    1.110   .     S
H321   C487    1.110   1_455 S
O327   C328    1.414   .     S
C328   H331    1.109   .     S
C328   H329    1.115   .     S
C328   H1086   1.110   .     S
H330   C1084   1.110   1_554 S
O332   C333    1.415   .     S
C333   H334    1.115   .     S
C333   H1091   1.110   1_554 S
C333   H420    1.108   .     S
H335   C1089   1.110   .     S
H336   C501    1.108   1_455 S
C337   O386    1.291   .     A
C337   O383    1.290   .     A
C337   C346    1.446   .     S
C338   O384    1.291   .     A
C338   O385    1.290   .     A
C338   C345    1.447   .     S
C339   C364    1.391   .     A
C339   H371    1.083   .     S
C339   C1121   1.399   1_554 S
C340   H372    1.084   .     S
C340   C363    1.389   .     A
C340   C1122   1.398   .     S
C341   H373    1.083   .     S
C341   C346    1.400   .     A
C342   C345    1.401   .     A
C342   H374    1.083   .     S
C342   C428    1.382   .     S
C343   C345    1.400   .     A
C343   H375    1.083   .     S
C343   C425    1.383   .     S
C344   C346    1.401   .     A
C344   H376    1.083   .     S
C347   H377    1.082   .     S
C347   N382    1.367   .     A
C348   H378    1.082   .     S
C348   N381    1.367   .     A
C348   C601    1.417   .     S
C349   N382    1.367   .     A
C349   H379    1.082   .     S
C350   N381    1.367   .     A
C350   H380    1.082   .     S
C350   C599    1.417   .     S
C351   O387    1.292   .     A
C351   C356    1.456   .     S
C351   O390    1.291   .     A
C352   O389    1.289   .     A
C352   O388    1.291   .     A
C352   C355    1.450   .     S
C353   H369    1.087   .     S
C353   C363    1.383   .     A
C353   C355    1.384   .     A
C354   C356    1.386   .     A
C354   C364    1.384   .     A
C354   H370    1.087   .     S
C355   C357    1.415   .     A
C356   C358    1.419   .     A
C357   C391    1.526   .     S
C357   C359    1.432   .     A
C358   C401    1.525   .     S
C358   C360    1.435   .     A
C359   C365    1.425   .     A
C359   C361    1.431   .     A
C360   C362    1.432   .     A
C360   C366    1.429   .     A
C361   C363    1.406   .     A
C361   C1118   1.415   .     S
C362   C364    1.406   .     A
C362   C1117   1.415   1_554 S
C365   O411    1.387   .     S
C365   C1095   1.399   .     S
C366   O416    1.387   .     S
C366   C1096   1.398   1_554 S
Cu367  O383    1.960   .     S
Cu367  O385    1.961   .     S
Cu367  Cu368   2.678   .     S
Cu367  O389    1.964   .     S
Cu367  O387    1.963   .     S
Cu367  N381    2.013   .     S
Cu368  O388    1.963   .     S
Cu368  O384    1.960   .     S
Cu368  O390    1.964   .     S
Cu368  O386    1.961   .     S
Cu368  N382    2.013   .     S
C391   C392    1.537   .     S
C391   H399    1.111   .     S
C391   H400    1.109   .     S
C392   C393    1.527   .     S
C392   H398    1.109   .     S
C392   H397    1.110   .     S
C393   H395    1.110   .     S
C393   H396    1.110   .     S
C393   H394    1.109   .     S
C401   H409    1.107   .     S
C401   H410    1.108   .     S
C401   C402    1.536   .     S
C402   H408    1.110   .     S
C402   H407    1.110   .     S
C402   C403    1.527   .     S
C403   H404    1.110   .     S
C403   H406    1.109   .     S
C403   H489    1.110   .     S
O411   C412    1.414   .     S
C412   H415    1.109   .     S
C412   H413    1.115   .     S
C412   H1170   1.110   .     S
H414   C1168   1.110   1_554 S
O416   C417    1.415   .     S
C417   H418    1.115   .     S
C417   H1175   1.110   1_554 S
C417   H504    1.108   .     S
H419   C1173   1.110   .     S
C421   O470    1.291   .     A
C421   O467    1.290   .     A
C421   C430    1.446   .     S
C422   O468    1.291   .     A
C422   O469    1.290   .     A
C422   C429    1.447   .     S
C423   C448    1.391   .     A
C423   H455    1.083   .     S
C423   C1205   1.399   1_554 S
C424   H456    1.084   .     S
C424   C447    1.389   .     A
C424   C1206   1.398   .     S
C425   H457    1.083   .     S
C425   C430    1.400   .     A
C426   C429    1.401   .     A
C426   H458    1.083   .     S
C426   C260    1.382   1_655 S
C427   C429    1.400   .     A
C427   H459    1.083   .     S
C427   C257    1.383   1_655 S
C428   C430    1.401   .     A
C428   H460    1.083   .     S
C431   H461    1.082   .     S
C431   N466    1.367   .     A
C432   H462    1.082   .     S
C432   N465    1.367   .     A
C432   C685    1.417   .     S
C433   N466    1.367   .     A
C433   H463    1.082   .     S
C434   N465    1.367   .     A
C434   H464    1.082   .     S
C434   C683    1.417   .     S
C435   O471    1.292   .     A
C435   C440    1.456   .     S
C435   O474    1.291   .     A
C436   O473    1.289   .     A
C436   O472    1.291   .     A
C436   C439    1.450   .     S
C437   H453    1.087   .     S
C437   C447    1.383   .     A
C437   C439    1.384   .     A
C438   C440    1.386   .     A
C438   C448    1.384   .     A
C438   H454    1.087   .     S
C439   C441    1.415   .     A
C440   C442    1.419   .     A
C441   C475    1.526   .     S
C441   C443    1.432   .     A
C442   C485    1.525   .     S
C442   C444    1.435   .     A
C443   C449    1.425   .     A
C443   C445    1.431   .     A
C444   C446    1.432   .     A
C444   C450    1.429   .     A
C445   C447    1.406   .     A
C445   C1202   1.415   .     S
C446   C448    1.406   .     A
C446   C1201   1.415   1_554 S
C449   O495    1.387   .     S
C449   C1179   1.399   .     S
C450   O500    1.387   .     S
C450   C1180   1.398   1_554 S
Cu451  O467    1.960   .     S
Cu451  O469    1.961   .     S
Cu451  Cu452   2.678   .     S
Cu451  O473    1.964   .     S
Cu451  O471    1.963   .     S
Cu451  N465    2.013   .     S
Cu452  O472    1.963   .     S
Cu452  O468    1.960   .     S
Cu452  O474    1.964   .     S
Cu452  O470    1.961   .     S
Cu452  N466    2.013   .     S
C475   C476    1.537   .     S
C475   H483    1.111   .     S
C475   H484    1.109   .     S
C476   C477    1.527   .     S
C476   H482    1.109   .     S
C476   H481    1.110   .     S
C477   H479    1.110   .     S
C477   H480    1.110   .     S
C477   H478    1.109   .     S
C485   H493    1.107   .     S
C485   H494    1.108   .     S
C485   C486    1.536   .     S
C486   H492    1.110   .     S
C486   H491    1.110   .     S
C486   C487    1.527   .     S
C487   H488    1.110   .     S
C487   H490    1.109   .     S
C487   H321    1.110   1_655 S
O495   C496    1.414   .     S
C496   H499    1.109   .     S
C496   H497    1.115   .     S
C496   H1254   1.110   .     S
H498   C1252   1.110   1_554 S
O500   C501    1.415   .     S
C501   H502    1.115   .     S
C501   H1259   1.110   1_554 S
C501   H336    1.108   1_655 S
H503   C1257   1.110   .     S
C505   O554    1.291   .     A
C505   O551    1.290   .     A
C505   C514    1.446   .     S
C506   O552    1.291   .     A
C506   O553    1.290   .     A
C506   C513    1.447   .     S
C507   C532    1.391   .     A
C507   H539    1.083   .     S
C507   C1289   1.399   1_554 S
C508   H540    1.084   .     S
C508   C531    1.389   .     A
C508   C1290   1.398   .     S
C509   H541    1.083   .     S
C509   C514    1.400   .     A
C509   C679    1.383   1_455 S
C510   C513    1.401   .     A
C510   H542    1.083   .     S
C510   C596    1.382   .     S
C511   C513    1.400   .     A
C511   H543    1.083   .     S
C511   C593    1.383   .     S
C512   C514    1.401   .     A
C512   H544    1.083   .     S
C512   C678    1.382   1_455 S
C515   H545    1.082   .     S
C515   N550    1.367   .     A
C516   H546    1.082   .     S
C516   N549    1.367   .     A
C516   C13     1.417   1_565 S
C517   N550    1.367   .     A
C517   H547    1.082   .     S
C518   N549    1.367   .     A
C518   H548    1.082   .     S
C518   C11     1.417   1_565 S
C519   O555    1.292   .     A
C519   C524    1.456   .     S
C519   O558    1.291   .     A
C520   O557    1.289   .     A
C520   O556    1.291   .     A
C520   C523    1.450   .     S
C521   H537    1.087   .     S
C521   C531    1.383   .     A
C521   C523    1.384   .     A
C522   C524    1.386   .     A
C522   C532    1.384   .     A
C522   H538    1.087   .     S
C523   C525    1.415   .     A
C524   C526    1.419   .     A
C525   C559    1.526   .     S
C525   C527    1.432   .     A
C526   C569    1.525   .     S
C526   C528    1.435   .     A
C527   C533    1.425   .     A
C527   C529    1.431   .     A
C528   C530    1.432   .     A
C528   C534    1.429   .     A
C529   C531    1.406   .     A
C529   C1286   1.415   .     S
C530   C532    1.406   .     A
C530   C1285   1.415   1_554 S
C533   O579    1.387   .     S
C533   C1263   1.399   .     S
C534   O584    1.387   .     S
C534   C1264   1.398   1_554 S
Cu535  O551    1.960   .     S
Cu535  O553    1.961   .     S
Cu535  Cu536   2.678   .     S
Cu535  O557    1.964   .     S
Cu535  O555    1.963   .     S
Cu535  N549    2.013   .     S
Cu536  O556    1.963   .     S
Cu536  O552    1.960   .     S
Cu536  O558    1.964   .     S
Cu536  O554    1.961   .     S
Cu536  N550    2.013   .     S
C559   C560    1.537   .     S
C559   H567    1.111   .     S
C559   H568    1.109   .     S
C560   C561    1.527   .     S
C560   H566    1.109   .     S
C560   H565    1.110   .     S
C561   H563    1.110   .     S
C561   H564    1.110   .     S
C561   H562    1.109   .     S
C569   H577    1.107   .     S
C569   H578    1.108   .     S
C569   C570    1.536   .     S
C570   H576    1.110   .     S
C570   H575    1.110   .     S
C570   C571    1.527   .     S
C571   H572    1.110   .     S
C571   H574    1.109   .     S
C571   H657    1.110   .     S
H573   C739    1.110   1_455 S
O579   C580    1.414   .     S
C580   H583    1.109   .     S
C580   H581    1.115   .     S
C580   H1338   1.110   .     S
H582   C1336   1.110   1_554 S
O584   C585    1.415   .     S
C585   H586    1.115   .     S
C585   H1343   1.110   1_554 S
C585   H672    1.108   .     S
H587   C1341   1.110   .     S
H588   C753    1.108   1_455 S
C589   O638    1.291   .     A
C589   O635    1.290   .     A
C589   C598    1.446   .     S
C590   O636    1.291   .     A
C590   O637    1.290   .     A
C590   C597    1.447   .     S
C591   C616    1.391   .     A
C591   H623    1.083   .     S
C591   C1373   1.399   1_554 S
C592   H624    1.084   .     S
C592   C615    1.389   .     A
C592   C1374   1.398   .     S
C593   H625    1.083   .     S
C593   C598    1.400   .     A
C594   C597    1.401   .     A
C594   H626    1.083   .     S
C594   C680    1.382   .     S
C595   C597    1.400   .     A
C595   H627    1.083   .     S
C595   C677    1.383   .     S
C596   C598    1.401   .     A
C596   H628    1.083   .     S
C599   H629    1.082   .     S
C599   N634    1.367   .     A
C600   H630    1.082   .     S
C600   N633    1.367   .     A
C600   C97     1.417   1_565 S
C601   N634    1.367   .     A
C601   H631    1.082   .     S
C602   N633    1.367   .     A
C602   H632    1.082   .     S
C602   C95     1.417   1_565 S
C603   O639    1.292   .     A
C603   C608    1.456   .     S
C603   O642    1.291   .     A
C604   O641    1.289   .     A
C604   O640    1.291   .     A
C604   C607    1.450   .     S
C605   H621    1.087   .     S
C605   C615    1.383   .     A
C605   C607    1.384   .     A
C606   C608    1.386   .     A
C606   C616    1.384   .     A
C606   H622    1.087   .     S
C607   C609    1.415   .     A
C608   C610    1.419   .     A
C609   C643    1.526   .     S
C609   C611    1.432   .     A
C610   C653    1.525   .     S
C610   C612    1.435   .     A
C611   C617    1.425   .     A
C611   C613    1.431   .     A
C612   C614    1.432   .     A
C612   C618    1.429   .     A
C613   C615    1.406   .     A
C613   C1370   1.415   .     S
C614   C616    1.406   .     A
C614   C1369   1.415   1_554 S
C617   O663    1.387   .     S
C617   C1347   1.399   .     S
C618   O668    1.387   .     S
C618   C1348   1.398   1_554 S
Cu619  O635    1.960   .     S
Cu619  O637    1.961   .     S
Cu619  Cu620   2.678   .     S
Cu619  O641    1.964   .     S
Cu619  O639    1.963   .     S
Cu619  N633    2.013   .     S
Cu620  O640    1.963   .     S
Cu620  O636    1.960   .     S
Cu620  O642    1.964   .     S
Cu620  O638    1.961   .     S
Cu620  N634    2.013   .     S
C643   C644    1.537   .     S
C643   H651    1.111   .     S
C643   H652    1.109   .     S
C644   C645    1.527   .     S
C644   H650    1.109   .     S
C644   H649    1.110   .     S
C645   H647    1.110   .     S
C645   H648    1.110   .     S
C645   H646    1.109   .     S
C653   H661    1.107   .     S
C653   H662    1.108   .     S
C653   C654    1.536   .     S
C654   H660    1.110   .     S
C654   H659    1.110   .     S
C654   C655    1.527   .     S
C655   H656    1.110   .     S
C655   H658    1.109   .     S
C655   H741    1.110   .     S
O663   C664    1.414   .     S
C664   H667    1.109   .     S
C664   H665    1.115   .     S
C664   H1422   1.110   .     S
H666   C1420   1.110   1_554 S
O668   C669    1.415   .     S
C669   H670    1.115   .     S
C669   H1427   1.110   1_554 S
C669   H756    1.108   .     S
H671   C1425   1.110   .     S
C673   O722    1.291   .     A
C673   O719    1.290   .     A
C673   C682    1.446   .     S
C674   O720    1.291   .     A
C674   O721    1.290   .     A
C674   C681    1.447   .     S
C675   C700    1.391   .     A
C675   H707    1.083   .     S
C675   C1457   1.399   1_554 S
C676   H708    1.084   .     S
C676   C699    1.389   .     A
C676   C1458   1.398   .     S
C677   H709    1.083   .     S
C677   C682    1.400   .     A
C678   C681    1.401   .     A
C678   H710    1.083   .     S
C678   C512    1.382   1_655 S
C679   C681    1.400   .     A
C679   H711    1.083   .     S
C679   C509    1.383   1_655 S
C680   C682    1.401   .     A
C680   H712    1.083   .     S
C683   H713    1.082   .     S
C683   N718    1.367   .     A
C684   H714    1.082   .     S
C684   N717    1.367   .     A
C684   C181    1.417   1_565 S
C685   N718    1.367   .     A
C685   H715    1.082   .     S
C686   N717    1.367   .     A
C686   H716    1.082   .     S
C686   C179    1.417   1_565 S
C687   O723    1.292   .     A
C687   C692    1.456   .     S
C687   O726    1.291   .     A
C688   O725    1.289   .     A
C688   O724    1.291   .     A
C688   C691    1.450   .     S
C689   H705    1.087   .     S
C689   C699    1.383   .     A
C689   C691    1.384   .     A
C690   C692    1.386   .     A
C690   C700    1.384   .     A
C690   H706    1.087   .     S
C691   C693    1.415   .     A
C692   C694    1.419   .     A
C693   C727    1.526   .     S
C693   C695    1.432   .     A
C694   C737    1.525   .     S
C694   C696    1.435   .     A
C695   C701    1.425   .     A
C695   C697    1.431   .     A
C696   C698    1.432   .     A
C696   C702    1.429   .     A
C697   C699    1.406   .     A
C697   C1454   1.415   .     S
C698   C700    1.406   .     A
C698   C1453   1.415   1_554 S
C701   O747    1.387   .     S
C701   C1431   1.399   .     S
C702   O752    1.387   .     S
C702   C1432   1.398   1_554 S
Cu703  O719    1.960   .     S
Cu703  O721    1.961   .     S
Cu703  Cu704   2.678   .     S
Cu703  O725    1.964   .     S
Cu703  O723    1.963   .     S
Cu703  N717    2.013   .     S
Cu704  O724    1.963   .     S
Cu704  O720    1.960   .     S
Cu704  O726    1.964   .     S
Cu704  O722    1.961   .     S
Cu704  N718    2.013   .     S
C727   C728    1.537   .     S
C727   H735    1.111   .     S
C727   H736    1.109   .     S
C728   C729    1.527   .     S
C728   H734    1.109   .     S
C728   H733    1.110   .     S
C729   H731    1.110   .     S
C729   H732    1.110   .     S
C729   H730    1.109   .     S
C737   H745    1.107   .     S
C737   H746    1.108   .     S
C737   C738    1.536   .     S
C738   H744    1.110   .     S
C738   H743    1.110   .     S
C738   C739    1.527   .     S
C739   H740    1.110   .     S
C739   H742    1.109   .     S
C739   H573    1.110   1_655 S
O747   C748    1.414   .     S
C748   H751    1.109   .     S
C748   H749    1.115   .     S
C748   H1506   1.110   .     S
H750   C1504   1.110   1_554 S
O752   C753    1.415   .     S
C753   H754    1.115   .     S
C753   H1511   1.110   1_554 S
C753   H588    1.108   1_655 S
H755   C1509   1.110   .     S
C757   O806    1.291   .     A
C757   O803    1.290   .     A
C757   C766    1.446   .     S
C758   O804    1.291   .     A
C758   O805    1.290   .     A
C758   C765    1.447   .     S
C759   C784    1.391   .     A
C759   H791    1.083   .     S
C760   H792    1.084   .     S
C760   C783    1.389   .     A
C760   C30     1.398   1_556 S
C761   H793    1.083   .     S
C761   C766    1.400   .     A
C761   C931    1.383   1_455 S
C762   C765    1.401   .     A
C762   H794    1.083   .     S
C762   C848    1.382   .     S
C763   C765    1.400   .     A
C763   H795    1.083   .     S
C763   C845    1.383   .     S
C764   C766    1.401   .     A
C764   H796    1.083   .     S
C764   C930    1.382   1_455 S
C767   H797    1.082   .     S
C767   N802    1.367   .     A
C767   C1274   1.417   1_545 S
C768   H798    1.082   .     S
C768   N801    1.367   .     A
C768   C1021   1.417   .     S
C769   N802    1.367   .     A
C769   H799    1.082   .     S
C769   C1272   1.417   1_545 S
C770   N801    1.367   .     A
C770   H800    1.082   .     S
C770   C1019   1.417   .     S
C771   O807    1.292   .     A
C771   C776    1.456   .     S
C771   O810    1.291   .     A
C772   O809    1.289   .     A
C772   O808    1.291   .     A
C772   C775    1.450   .     S
C773   H789    1.087   .     S
C773   C783    1.383   .     A
C773   C775    1.384   .     A
C774   C776    1.386   .     A
C774   C784    1.384   .     A
C774   H790    1.087   .     S
C775   C777    1.415   .     A
C776   C778    1.419   .     A
C777   C811    1.526   .     S
C777   C779    1.432   .     A
C778   C821    1.525   .     S
C778   C780    1.435   .     A
C779   C785    1.425   .     A
C779   C781    1.431   .     A
C780   C782    1.432   .     A
C780   C786    1.429   .     A
C781   C783    1.406   .     A
C781   C26     1.415   1_556 S
C782   C784    1.406   .     A
C785   O831    1.387   .     S
C785   C3      1.399   1_556 S
C786   O836    1.387   .     S
Cu787  O803    1.960   .     S
Cu787  O805    1.961   .     S
Cu787  Cu788   2.678   .     S
Cu787  O809    1.964   .     S
Cu787  O807    1.963   .     S
Cu787  N801    2.013   .     S
Cu788  O808    1.963   .     S
Cu788  O804    1.960   .     S
Cu788  O810    1.964   .     S
Cu788  O806    1.961   .     S
Cu788  N802    2.013   .     S
C811   C812    1.537   .     S
C811   H819    1.111   .     S
C811   H820    1.109   .     S
C812   C813    1.527   .     S
C812   H818    1.109   .     S
C812   H817    1.110   .     S
C813   H815    1.110   .     S
C813   H816    1.110   .     S
C813   H814    1.109   .     S
C821   H829    1.107   .     S
C821   H830    1.108   .     S
C821   C822    1.536   .     S
C822   H828    1.110   .     S
C822   H827    1.110   .     S
C822   C823    1.527   .     S
C823   H824    1.110   .     S
C823   H826    1.109   .     S
C823   H909    1.110   .     S
H825   C991    1.110   1_455 S
O831   C832    1.414   .     S
C832   H835    1.109   .     S
C832   H833    1.115   .     S
C832   H78     1.110   1_556 S
O836   C837    1.415   .     S
C837   H838    1.115   .     S
C837   H924    1.108   .     S
H839   C81     1.110   1_556 S
H840   C1005   1.108   1_455 S
C841   O890    1.291   .     A
C841   O887    1.290   .     A
C841   C850    1.446   .     S
C842   O888    1.291   .     A
C842   O889    1.290   .     A
C842   C849    1.447   .     S
C843   C868    1.391   .     A
C843   H875    1.083   .     S
C844   H876    1.084   .     S
C844   C867    1.389   .     A
C844   C114    1.398   1_556 S
C845   H877    1.083   .     S
C845   C850    1.400   .     A
C846   C849    1.401   .     A
C846   H878    1.083   .     S
C846   C932    1.382   .     S
C847   C849    1.400   .     A
C847   H879    1.083   .     S
C847   C929    1.383   .     S
C848   C850    1.401   .     A
C848   H880    1.083   .     S
C851   H881    1.082   .     S
C851   N886    1.367   .     A
C851   C1358   1.417   1_545 S
C852   H882    1.082   .     S
C852   N885    1.367   .     A
C852   C1105   1.417   .     S
C853   N886    1.367   .     A
C853   H883    1.082   .     S
C853   C1356   1.417   1_545 S
C854   N885    1.367   .     A
C854   H884    1.082   .     S
C854   C1103   1.417   .     S
C855   O891    1.292   .     A
C855   C860    1.456   .     S
C855   O894    1.291   .     A
C856   O893    1.289   .     A
C856   O892    1.291   .     A
C856   C859    1.450   .     S
C857   H873    1.087   .     S
C857   C867    1.383   .     A
C857   C859    1.384   .     A
C858   C860    1.386   .     A
C858   C868    1.384   .     A
C858   H874    1.087   .     S
C859   C861    1.415   .     A
C860   C862    1.419   .     A
C861   C895    1.526   .     S
C861   C863    1.432   .     A
C862   C905    1.525   .     S
C862   C864    1.435   .     A
C863   C869    1.425   .     A
C863   C865    1.431   .     A
C864   C866    1.432   .     A
C864   C870    1.429   .     A
C865   C867    1.406   .     A
C865   C110    1.415   1_556 S
C866   C868    1.406   .     A
C869   O915    1.387   .     S
C869   C87     1.399   1_556 S
C870   O920    1.387   .     S
Cu871  O887    1.960   .     S
Cu871  O889    1.961   .     S
Cu871  Cu872   2.678   .     S
Cu871  O893    1.964   .     S
Cu871  O891    1.963   .     S
Cu871  N885    2.013   .     S
Cu872  O892    1.963   .     S
Cu872  O888    1.960   .     S
Cu872  O894    1.964   .     S
Cu872  O890    1.961   .     S
Cu872  N886    2.013   .     S
C895   C896    1.537   .     S
C895   H903    1.111   .     S
C895   H904    1.109   .     S
C896   C897    1.527   .     S
C896   H902    1.109   .     S
C896   H901    1.110   .     S
C897   H899    1.110   .     S
C897   H900    1.110   .     S
C897   H898    1.109   .     S
C905   H913    1.107   .     S
C905   H914    1.108   .     S
C905   C906    1.536   .     S
C906   H912    1.110   .     S
C906   H911    1.110   .     S
C906   C907    1.527   .     S
C907   H908    1.110   .     S
C907   H910    1.109   .     S
C907   H993    1.110   .     S
O915   C916    1.414   .     S
C916   H919    1.109   .     S
C916   H917    1.115   .     S
C916   H162    1.110   1_556 S
O920   C921    1.415   .     S
C921   H922    1.115   .     S
C921   H1008   1.108   .     S
H923   C165    1.110   1_556 S
C925   O974    1.291   .     A
C925   O971    1.290   .     A
C925   C934    1.446   .     S
C926   O972    1.291   .     A
C926   O973    1.290   .     A
C926   C933    1.447   .     S
C927   C952    1.391   .     A
C927   H959    1.083   .     S
C928   H960    1.084   .     S
C928   C951    1.389   .     A
C928   C198    1.398   1_556 S
C929   H961    1.083   .     S
C929   C934    1.400   .     A
C930   C933    1.401   .     A
C930   H962    1.083   .     S
C930   C764    1.382   1_655 S
C931   C933    1.400   .     A
C931   H963    1.083   .     S
C931   C761    1.383   1_655 S
C932   C934    1.401   .     A
C932   H964    1.083   .     S
C935   H965    1.082   .     S
C935   N970    1.367   .     A
C935   C1442   1.417   1_545 S
C936   H966    1.082   .     S
C936   N969    1.367   .     A
C936   C1189   1.417   .     S
C937   N970    1.367   .     A
C937   H967    1.082   .     S
C937   C1440   1.417   1_545 S
C938   N969    1.367   .     A
C938   H968    1.082   .     S
C938   C1187   1.417   .     S
C939   O975    1.292   .     A
C939   C944    1.456   .     S
C939   O978    1.291   .     A
C940   O977    1.289   .     A
C940   O976    1.291   .     A
C940   C943    1.450   .     S
C941   H957    1.087   .     S
C941   C951    1.383   .     A
C941   C943    1.384   .     A
C942   C944    1.386   .     A
C942   C952    1.384   .     A
C942   H958    1.087   .     S
C943   C945    1.415   .     A
C944   C946    1.419   .     A
C945   C979    1.526   .     S
C945   C947    1.432   .     A
C946   C989    1.525   .     S
C946   C948    1.435   .     A
C947   C953    1.425   .     A
C947   C949    1.431   .     A
C948   C950    1.432   .     A
C948   C954    1.429   .     A
C949   C951    1.406   .     A
C949   C194    1.415   1_556 S
C950   C952    1.406   .     A
C953   O999    1.387   .     S
C953   C171    1.399   1_556 S
C954   O1004   1.387   .     S
Cu955  O971    1.960   .     S
Cu955  O973    1.961   .     S
Cu955  Cu956   2.678   .     S
Cu955  O977    1.964   .     S
Cu955  O975    1.963   .     S
Cu955  N969    2.013   .     S
Cu956  O976    1.963   .     S
Cu956  O972    1.960   .     S
Cu956  O978    1.964   .     S
Cu956  O974    1.961   .     S
Cu956  N970    2.013   .     S
C979   C980    1.537   .     S
C979   H987    1.111   .     S
C979   H988    1.109   .     S
C980   C981    1.527   .     S
C980   H986    1.109   .     S
C980   H985    1.110   .     S
C981   H983    1.110   .     S
C981   H984    1.110   .     S
C981   H982    1.109   .     S
C989   H997    1.107   .     S
C989   H998    1.108   .     S
C989   C990    1.536   .     S
C990   H996    1.110   .     S
C990   H995    1.110   .     S
C990   C991    1.527   .     S
C991   H992    1.110   .     S
C991   H994    1.109   .     S
C991   H825    1.110   1_655 S
O999   C1000   1.414   .     S
C1000  H1003   1.109   .     S
C1000  H1001   1.115   .     S
C1000  H246    1.110   1_556 S
O1004  C1005   1.415   .     S
C1005  H1006   1.115   .     S
C1005  H840    1.108   1_655 S
H1007  C249    1.110   1_556 S
C1009  O1058   1.291   .     A
C1009  O1055   1.290   .     A
C1009  C1018   1.446   .     S
C1010  O1056   1.291   .     A
C1010  O1057   1.290   .     A
C1010  C1017   1.447   .     S
C1011  C1036   1.391   .     A
C1011  H1043   1.083   .     S
C1012  H1044   1.084   .     S
C1012  C1035   1.389   .     A
C1012  C282    1.398   1_556 S
C1013  H1045   1.083   .     S
C1013  C1018   1.400   .     A
C1013  C1183   1.383   1_455 S
C1014  C1017   1.401   .     A
C1014  H1046   1.083   .     S
C1014  C1100   1.382   .     S
C1015  C1017   1.400   .     A
C1015  H1047   1.083   .     S
C1015  C1097   1.383   .     S
C1016  C1018   1.401   .     A
C1016  H1048   1.083   .     S
C1016  C1182   1.382   1_455 S
C1019  H1049   1.082   .     S
C1019  N1054   1.367   .     A
C1020  H1050   1.082   .     S
C1020  N1053   1.367   .     A
C1020  C1273   1.417   .     S
C1021  N1054   1.367   .     A
C1021  H1051   1.082   .     S
C1022  N1053   1.367   .     A
C1022  H1052   1.082   .     S
C1022  C1271   1.417   .     S
C1023  O1059   1.292   .     A
C1023  C1028   1.456   .     S
C1023  O1062   1.291   .     A
C1024  O1061   1.289   .     A
C1024  O1060   1.291   .     A
C1024  C1027   1.450   .     S
C1025  H1041   1.087   .     S
C1025  C1035   1.383   .     A
C1025  C1027   1.384   .     A
C1026  C1028   1.386   .     A
C1026  C1036   1.384   .     A
C1026  H1042   1.087   .     S
C1027  C1029   1.415   .     A
C1028  C1030   1.419   .     A
C1029  C1063   1.526   .     S
C1029  C1031   1.432   .     A
C1030  C1073   1.525   .     S
C1030  C1032   1.435   .     A
C1031  C1037   1.425   .     A
C1031  C1033   1.431   .     A
C1032  C1034   1.432   .     A
C1032  C1038   1.429   .     A
C1033  C1035   1.406   .     A
C1033  C278    1.415   1_556 S
C1034  C1036   1.406   .     A
C1037  O1083   1.387   .     S
C1037  C255    1.399   1_556 S
C1038  O1088   1.387   .     S
Cu1039 O1055   1.960   .     S
Cu1039 O1057   1.961   .     S
Cu1039 Cu1040  2.678   .     S
Cu1039 O1061   1.964   .     S
Cu1039 O1059   1.963   .     S
Cu1039 N1053   2.013   .     S
Cu1040 O1060   1.963   .     S
Cu1040 O1056   1.960   .     S
Cu1040 O1062   1.964   .     S
Cu1040 O1058   1.961   .     S
Cu1040 N1054   2.013   .     S
C1063  C1064   1.537   .     S
C1063  H1071   1.111   .     S
C1063  H1072   1.109   .     S
C1064  C1065   1.527   .     S
C1064  H1070   1.109   .     S
C1064  H1069   1.110   .     S
C1065  H1067   1.110   .     S
C1065  H1068   1.110   .     S
C1065  H1066   1.109   .     S
C1073  H1081   1.107   .     S
C1073  H1082   1.108   .     S
C1073  C1074   1.536   .     S
C1074  H1080   1.110   .     S
C1074  H1079   1.110   .     S
C1074  C1075   1.527   .     S
C1075  H1076   1.110   .     S
C1075  H1078   1.109   .     S
C1075  H1161   1.110   .     S
H1077  C1243   1.110   1_455 S
O1083  C1084   1.414   .     S
C1084  H1087   1.109   .     S
C1084  H1085   1.115   .     S
C1084  H330    1.110   1_556 S
O1088  C1089   1.415   .     S
C1089  H1090   1.115   .     S
C1089  H1176   1.108   .     S
H1091  C333    1.110   1_556 S
H1092  C1257   1.108   1_455 S
C1093  O1142   1.291   .     A
C1093  O1139   1.290   .     A
C1093  C1102   1.446   .     S
C1094  O1140   1.291   .     A
C1094  O1141   1.290   .     A
C1094  C1101   1.447   .     S
C1095  C1120   1.391   .     A
C1095  H1127   1.083   .     S
C1096  H1128   1.084   .     S
C1096  C1119   1.389   .     A
C1096  C366    1.398   1_556 S
C1097  H1129   1.083   .     S
C1097  C1102   1.400   .     A
C1098  C1101   1.401   .     A
C1098  H1130   1.083   .     S
C1098  C1184   1.382   .     S
C1099  C1101   1.400   .     A
C1099  H1131   1.083   .     S
C1099  C1181   1.383   .     S
C1100  C1102   1.401   .     A
C1100  H1132   1.083   .     S
C1103  H1133   1.082   .     S
C1103  N1138   1.367   .     A
C1104  H1134   1.082   .     S
C1104  N1137   1.367   .     A
C1104  C1357   1.417   .     S
C1105  N1138   1.367   .     A
C1105  H1135   1.082   .     S
C1106  N1137   1.367   .     A
C1106  H1136   1.082   .     S
C1106  C1355   1.417   .     S
C1107  O1143   1.292   .     A
C1107  C1112   1.456   .     S
C1107  O1146   1.291   .     A
C1108  O1145   1.289   .     A
C1108  O1144   1.291   .     A
C1108  C1111   1.450   .     S
C1109  H1125   1.087   .     S
C1109  C1119   1.383   .     A
C1109  C1111   1.384   .     A
C1110  C1112   1.386   .     A
C1110  C1120   1.384   .     A
C1110  H1126   1.087   .     S
C1111  C1113   1.415   .     A
C1112  C1114   1.419   .     A
C1113  C1147   1.526   .     S
C1113  C1115   1.432   .     A
C1114  C1157   1.525   .     S
C1114  C1116   1.435   .     A
C1115  C1121   1.425   .     A
C1115  C1117   1.431   .     A
C1116  C1118   1.432   .     A
C1116  C1122   1.429   .     A
C1117  C1119   1.406   .     A
C1117  C362    1.415   1_556 S
C1118  C1120   1.406   .     A
C1121  O1167   1.387   .     S
C1121  C339    1.399   1_556 S
C1122  O1172   1.387   .     S
Cu1123 O1139   1.960   .     S
Cu1123 O1141   1.961   .     S
Cu1123 Cu1124  2.678   .     S
Cu1123 O1145   1.964   .     S
Cu1123 O1143   1.963   .     S
Cu1123 N1137   2.013   .     S
Cu1124 O1144   1.963   .     S
Cu1124 O1140   1.960   .     S
Cu1124 O1146   1.964   .     S
Cu1124 O1142   1.961   .     S
Cu1124 N1138   2.013   .     S
C1147  C1148   1.537   .     S
C1147  H1155   1.111   .     S
C1147  H1156   1.109   .     S
C1148  C1149   1.527   .     S
C1148  H1154   1.109   .     S
C1148  H1153   1.110   .     S
C1149  H1151   1.110   .     S
C1149  H1152   1.110   .     S
C1149  H1150   1.109   .     S
C1157  H1165   1.107   .     S
C1157  H1166   1.108   .     S
C1157  C1158   1.536   .     S
C1158  H1164   1.110   .     S
C1158  H1163   1.110   .     S
C1158  C1159   1.527   .     S
C1159  H1160   1.110   .     S
C1159  H1162   1.109   .     S
C1159  H1245   1.110   .     S
O1167  C1168   1.414   .     S
C1168  H1171   1.109   .     S
C1168  H1169   1.115   .     S
C1168  H414    1.110   1_556 S
O1172  C1173   1.415   .     S
C1173  H1174   1.115   .     S
C1173  H1260   1.108   .     S
H1175  C417    1.110   1_556 S
C1177  O1226   1.291   .     A
C1177  O1223   1.290   .     A
C1177  C1186   1.446   .     S
C1178  O1224   1.291   .     A
C1178  O1225   1.290   .     A
C1178  C1185   1.447   .     S
C1179  C1204   1.391   .     A
C1179  H1211   1.083   .     S
C1180  H1212   1.084   .     S
C1180  C1203   1.389   .     A
C1180  C450    1.398   1_556 S
C1181  H1213   1.083   .     S
C1181  C1186   1.400   .     A
C1182  C1185   1.401   .     A
C1182  H1214   1.083   .     S
C1182  C1016   1.382   1_655 S
C1183  C1185   1.400   .     A
C1183  H1215   1.083   .     S
C1183  C1013   1.383   1_655 S
C1184  C1186   1.401   .     A
C1184  H1216   1.083   .     S
C1187  H1217   1.082   .     S
C1187  N1222   1.367   .     A
C1188  H1218   1.082   .     S
C1188  N1221   1.367   .     A
C1188  C1441   1.417   .     S
C1189  N1222   1.367   .     A
C1189  H1219   1.082   .     S
C1190  N1221   1.367   .     A
C1190  H1220   1.082   .     S
C1190  C1439   1.417   .     S
C1191  O1227   1.292   .     A
C1191  C1196   1.456   .     S
C1191  O1230   1.291   .     A
C1192  O1229   1.289   .     A
C1192  O1228   1.291   .     A
C1192  C1195   1.450   .     S
C1193  H1209   1.087   .     S
C1193  C1203   1.383   .     A
C1193  C1195   1.384   .     A
C1194  C1196   1.386   .     A
C1194  C1204   1.384   .     A
C1194  H1210   1.087   .     S
C1195  C1197   1.415   .     A
C1196  C1198   1.419   .     A
C1197  C1231   1.526   .     S
C1197  C1199   1.432   .     A
C1198  C1241   1.525   .     S
C1198  C1200   1.435   .     A
C1199  C1205   1.425   .     A
C1199  C1201   1.431   .     A
C1200  C1202   1.432   .     A
C1200  C1206   1.429   .     A
C1201  C1203   1.406   .     A
C1201  C446    1.415   1_556 S
C1202  C1204   1.406   .     A
C1205  O1251   1.387   .     S
C1205  C423    1.399   1_556 S
C1206  O1256   1.387   .     S
Cu1207 O1223   1.960   .     S
Cu1207 O1225   1.961   .     S
Cu1207 Cu1208  2.678   .     S
Cu1207 O1229   1.964   .     S
Cu1207 O1227   1.963   .     S
Cu1207 N1221   2.013   .     S
Cu1208 O1228   1.963   .     S
Cu1208 O1224   1.960   .     S
Cu1208 O1230   1.964   .     S
Cu1208 O1226   1.961   .     S
Cu1208 N1222   2.013   .     S
C1231  C1232   1.537   .     S
C1231  H1239   1.111   .     S
C1231  H1240   1.109   .     S
C1232  C1233   1.527   .     S
C1232  H1238   1.109   .     S
C1232  H1237   1.110   .     S
C1233  H1235   1.110   .     S
C1233  H1236   1.110   .     S
C1233  H1234   1.109   .     S
C1241  H1249   1.107   .     S
C1241  H1250   1.108   .     S
C1241  C1242   1.536   .     S
C1242  H1248   1.110   .     S
C1242  H1247   1.110   .     S
C1242  C1243   1.527   .     S
C1243  H1244   1.110   .     S
C1243  H1246   1.109   .     S
C1243  H1077   1.110   1_655 S
O1251  C1252   1.414   .     S
C1252  H1255   1.109   .     S
C1252  H1253   1.115   .     S
C1252  H498    1.110   1_556 S
O1256  C1257   1.415   .     S
C1257  H1258   1.115   .     S
C1257  H1092   1.108   1_655 S
H1259  C501    1.110   1_556 S
C1261  O1310   1.291   .     A
C1261  O1307   1.290   .     A
C1261  C1270   1.446   .     S
C1262  O1308   1.291   .     A
C1262  O1309   1.290   .     A
C1262  C1269   1.447   .     S
C1263  C1288   1.391   .     A
C1263  H1295   1.083   .     S
C1264  H1296   1.084   .     S
C1264  C1287   1.389   .     A
C1264  C534    1.398   1_556 S
C1265  H1297   1.083   .     S
C1265  C1270   1.400   .     A
C1265  C1435   1.383   1_455 S
C1266  C1269   1.401   .     A
C1266  H1298   1.083   .     S
C1266  C1352   1.382   .     S
C1267  C1269   1.400   .     A
C1267  H1299   1.083   .     S
C1267  C1349   1.383   .     S
C1268  C1270   1.401   .     A
C1268  H1300   1.083   .     S
C1268  C1434   1.382   1_455 S
C1271  H1301   1.082   .     S
C1271  N1306   1.367   .     A
C1272  H1302   1.082   .     S
C1272  N1305   1.367   .     A
C1272  C769    1.417   1_565 S
C1273  N1306   1.367   .     A
C1273  H1303   1.082   .     S
C1274  N1305   1.367   .     A
C1274  H1304   1.082   .     S
C1274  C767    1.417   1_565 S
C1275  O1311   1.292   .     A
C1275  C1280   1.456   .     S
C1275  O1314   1.291   .     A
C1276  O1313   1.289   .     A
C1276  O1312   1.291   .     A
C1276  C1279   1.450   .     S
C1277  H1293   1.087   .     S
C1277  C1287   1.383   .     A
C1277  C1279   1.384   .     A
C1278  C1280   1.386   .     A
C1278  C1288   1.384   .     A
C1278  H1294   1.087   .     S
C1279  C1281   1.415   .     A
C1280  C1282   1.419   .     A
C1281  C1315   1.526   .     S
C1281  C1283   1.432   .     A
C1282  C1325   1.525   .     S
C1282  C1284   1.435   .     A
C1283  C1289   1.425   .     A
C1283  C1285   1.431   .     A
C1284  C1286   1.432   .     A
C1284  C1290   1.429   .     A
C1285  C1287   1.406   .     A
C1285  C530    1.415   1_556 S
C1286  C1288   1.406   .     A
C1289  O1335   1.387   .     S
C1289  C507    1.399   1_556 S
C1290  O1340   1.387   .     S
Cu1291 O1307   1.960   .     S
Cu1291 O1309   1.961   .     S
Cu1291 Cu1292  2.678   .     S
Cu1291 O1313   1.964   .     S
Cu1291 O1311   1.963   .     S
Cu1291 N1305   2.013   .     S
Cu1292 O1312   1.963   .     S
Cu1292 O1308   1.960   .     S
Cu1292 O1314   1.964   .     S
Cu1292 O1310   1.961   .     S
Cu1292 N1306   2.013   .     S
C1315  C1316   1.537   .     S
C1315  H1323   1.111   .     S
C1315  H1324   1.109   .     S
C1316  C1317   1.527   .     S
C1316  H1322   1.109   .     S
C1316  H1321   1.110   .     S
C1317  H1319   1.110   .     S
C1317  H1320   1.110   .     S
C1317  H1318   1.109   .     S
C1325  H1333   1.107   .     S
C1325  H1334   1.108   .     S
C1325  C1326   1.536   .     S
C1326  H1332   1.110   .     S
C1326  H1331   1.110   .     S
C1326  C1327   1.527   .     S
C1327  H1328   1.110   .     S
C1327  H1330   1.109   .     S
C1327  H1413   1.110   .     S
H1329  C1495   1.110   1_455 S
O1335  C1336   1.414   .     S
C1336  H1339   1.109   .     S
C1336  H1337   1.115   .     S
C1336  H582    1.110   1_556 S
O1340  C1341   1.415   .     S
C1341  H1342   1.115   .     S
C1341  H1428   1.108   .     S
H1343  C585    1.110   1_556 S
H1344  C1509   1.108   1_455 S
C1345  O1394   1.291   .     A
C1345  O1391   1.290   .     A
C1345  C1354   1.446   .     S
C1346  O1392   1.291   .     A
C1346  O1393   1.290   .     A
C1346  C1353   1.447   .     S
C1347  C1372   1.391   .     A
C1347  H1379   1.083   .     S
C1348  H1380   1.084   .     S
C1348  C1371   1.389   .     A
C1348  C618    1.398   1_556 S
C1349  H1381   1.083   .     S
C1349  C1354   1.400   .     A
C1350  C1353   1.401   .     A
C1350  H1382   1.083   .     S
C1350  C1436   1.382   .     S
C1351  C1353   1.400   .     A
C1351  H1383   1.083   .     S
C1351  C1433   1.383   .     S
C1352  C1354   1.401   .     A
C1352  H1384   1.083   .     S
C1355  H1385   1.082   .     S
C1355  N1390   1.367   .     A
C1356  H1386   1.082   .     S
C1356  N1389   1.367   .     A
C1356  C853    1.417   1_565 S
C1357  N1390   1.367   .     A
C1357  H1387   1.082   .     S
C1358  N1389   1.367   .     A
C1358  H1388   1.082   .     S
C1358  C851    1.417   1_565 S
C1359  O1395   1.292   .     A
C1359  C1364   1.456   .     S
C1359  O1398   1.291   .     A
C1360  O1397   1.289   .     A
C1360  O1396   1.291   .     A
C1360  C1363   1.450   .     S
C1361  H1377   1.087   .     S
C1361  C1371   1.383   .     A
C1361  C1363   1.384   .     A
C1362  C1364   1.386   .     A
C1362  C1372   1.384   .     A
C1362  H1378   1.087   .     S
C1363  C1365   1.415   .     A
C1364  C1366   1.419   .     A
C1365  C1399   1.526   .     S
C1365  C1367   1.432   .     A
C1366  C1409   1.525   .     S
C1366  C1368   1.435   .     A
C1367  C1373   1.425   .     A
C1367  C1369   1.431   .     A
C1368  C1370   1.432   .     A
C1368  C1374   1.429   .     A
C1369  C1371   1.406   .     A
C1369  C614    1.415   1_556 S
C1370  C1372   1.406   .     A
C1373  O1419   1.387   .     S
C1373  C591    1.399   1_556 S
C1374  O1424   1.387   .     S
Cu1375 O1391   1.960   .     S
Cu1375 O1393   1.961   .     S
Cu1375 Cu1376  2.678   .     S
Cu1375 O1397   1.964   .     S
Cu1375 O1395   1.963   .     S
Cu1375 N1389   2.013   .     S
Cu1376 O1396   1.963   .     S
Cu1376 O1392   1.960   .     S
Cu1376 O1398   1.964   .     S
Cu1376 O1394   1.961   .     S
Cu1376 N1390   2.013   .     S
C1399  C1400   1.537   .     S
C1399  H1407   1.111   .     S
C1399  H1408   1.109   .     S
C1400  C1401   1.527   .     S
C1400  H1406   1.109   .     S
C1400  H1405   1.110   .     S
C1401  H1403   1.110   .     S
C1401  H1404   1.110   .     S
C1401  H1402   1.109   .     S
C1409  H1417   1.107   .     S
C1409  H1418   1.108   .     S
C1409  C1410   1.536   .     S
C1410  H1416   1.110   .     S
C1410  H1415   1.110   .     S
C1410  C1411   1.527   .     S
C1411  H1412   1.110   .     S
C1411  H1414   1.109   .     S
C1411  H1497   1.110   .     S
O1419  C1420   1.414   .     S
C1420  H1423   1.109   .     S
C1420  H1421   1.115   .     S
C1420  H666    1.110   1_556 S
O1424  C1425   1.415   .     S
C1425  H1426   1.115   .     S
C1425  H1512   1.108   .     S
H1427  C669    1.110   1_556 S
C1429  O1478   1.291   .     A
C1429  O1475   1.290   .     A
C1429  C1438   1.446   .     S
C1430  O1476   1.291   .     A
C1430  O1477   1.290   .     A
C1430  C1437   1.447   .     S
C1431  C1456   1.391   .     A
C1431  H1463   1.083   .     S
C1432  H1464   1.084   .     S
C1432  C1455   1.389   .     A
C1432  C702    1.398   1_556 S
C1433  H1465   1.083   .     S
C1433  C1438   1.400   .     A
C1434  C1437   1.401   .     A
C1434  H1466   1.083   .     S
C1434  C1268   1.382   1_655 S
C1435  C1437   1.400   .     A
C1435  H1467   1.083   .     S
C1435  C1265   1.383   1_655 S
C1436  C1438   1.401   .     A
C1436  H1468   1.083   .     S
C1439  H1469   1.082   .     S
C1439  N1474   1.367   .     A
C1440  H1470   1.082   .     S
C1440  N1473   1.367   .     A
C1440  C937    1.417   1_565 S
C1441  N1474   1.367   .     A
C1441  H1471   1.082   .     S
C1442  N1473   1.367   .     A
C1442  H1472   1.082   .     S
C1442  C935    1.417   1_565 S
C1443  O1479   1.292   .     A
C1443  C1448   1.456   .     S
C1443  O1482   1.291   .     A
C1444  O1481   1.289   .     A
C1444  O1480   1.291   .     A
C1444  C1447   1.450   .     S
C1445  H1461   1.087   .     S
C1445  C1455   1.383   .     A
C1445  C1447   1.384   .     A
C1446  C1448   1.386   .     A
C1446  C1456   1.384   .     A
C1446  H1462   1.087   .     S
C1447  C1449   1.415   .     A
C1448  C1450   1.419   .     A
C1449  C1483   1.526   .     S
C1449  C1451   1.432   .     A
C1450  C1493   1.525   .     S
C1450  C1452   1.435   .     A
C1451  C1457   1.425   .     A
C1451  C1453   1.431   .     A
C1452  C1454   1.432   .     A
C1452  C1458   1.429   .     A
C1453  C1455   1.406   .     A
C1453  C698    1.415   1_556 S
C1454  C1456   1.406   .     A
C1457  O1503   1.387   .     S
C1457  C675    1.399   1_556 S
C1458  O1508   1.387   .     S
Cu1459 O1475   1.960   .     S
Cu1459 O1477   1.961   .     S
Cu1459 Cu1460  2.678   .     S
Cu1459 O1481   1.964   .     S
Cu1459 O1479   1.963   .     S
Cu1459 N1473   2.013   .     S
Cu1460 O1480   1.963   .     S
Cu1460 O1476   1.960   .     S
Cu1460 O1482   1.964   .     S
Cu1460 O1478   1.961   .     S
Cu1460 N1474   2.013   .     S
C1483  C1484   1.537   .     S
C1483  H1491   1.111   .     S
C1483  H1492   1.109   .     S
C1484  C1485   1.527   .     S
C1484  H1490   1.109   .     S
C1484  H1489   1.110   .     S
C1485  H1487   1.110   .     S
C1485  H1488   1.110   .     S
C1485  H1486   1.109   .     S
C1493  H1501   1.107   .     S
C1493  H1502   1.108   .     S
C1493  C1494   1.536   .     S
C1494  H1500   1.110   .     S
C1494  H1499   1.110   .     S
C1494  C1495   1.527   .     S
C1495  H1496   1.110   .     S
C1495  H1498   1.109   .     S
C1495  H1329   1.110   1_655 S
O1503  C1504   1.414   .     S
C1504  H1507   1.109   .     S
C1504  H1505   1.115   .     S
C1504  H750    1.110   1_556 S
O1508  C1509   1.415   .     S
C1509  H1510   1.115   .     S
C1509  H1344   1.108   1_655 S
H1511  C753    1.110   1_556 S
