data_str_m2_o1_o2_pcu_sym.108
_audit_creation_date              2020-01-03
_audit_creation_method            'Materials Studio'
_symmetry_space_group_name_H-M    'P1'
_symmetry_Int_Tables_number       1
_symmetry_cell_setting            triclinic
loop_
_symmetry_equiv_pos_as_xyz
  x,y,z
_cell_length_a                    32.5136
_cell_length_b                    28.5789
_cell_length_c                    30.3249
_cell_angle_alpha                 90.0001
_cell_angle_beta                  90.5548
_cell_angle_gamma                 90.1696
loop_
_atom_site_label
_atom_site_type_symbol
_atom_site_fract_x
_atom_site_fract_y
_atom_site_fract_z
_atom_site_U_iso_or_equiv
_atom_site_adp_type
_atom_site_occupancy
C1     C     0.08739   0.16662   0.24996   0.00000  Uiso   1.00
C2     C     0.24594   0.16672   0.25003   0.00000  Uiso   1.00
C3     C     0.16666   0.16665   0.16492   0.00000  Uiso   1.00
C4     C     0.16668   0.16665   0.33508   0.00000  Uiso   1.00
C5     C     0.14117   0.02469   0.22230   0.00000  Uiso   1.00
C6     C     0.19228   0.30867   0.27756   0.00000  Uiso   1.00
C7     C     0.19223   0.02489   0.27763   0.00000  Uiso   1.00
C8     C     0.14098   0.30847   0.22251   0.00000  Uiso   1.00
C9     C     0.02097   0.12891   0.23136   0.00000  Uiso   1.00
C10    C     0.31236   0.20441   0.26863   0.00000  Uiso   1.00
C11    C     0.31172   0.12899   0.23133   0.00000  Uiso   1.00
C12    C     0.02161   0.20434   0.26865   0.00000  Uiso   1.00
C13    C     0.15268   0.20554   0.04711   0.00000  Uiso   1.00
C14    C     0.15303   0.12681   0.45244   0.00000  Uiso   1.00
C15    C     0.18049   0.20573   0.45291   0.00000  Uiso   1.00
C16    C     0.18061   0.12702   0.04759   0.00000  Uiso   1.00
C17    C     0.15272   0.20587   0.09292   0.00000  Uiso   1.00
C18    C     0.15298   0.12680   0.40660   0.00000  Uiso   1.00
C19    C     0.18043   0.20606   0.40709   0.00000  Uiso   1.00
C20    C     0.18064   0.12700   0.09343   0.00000  Uiso   1.00
C21    C     0.16669   0.16653   0.11657   0.00000  Uiso   1.00
C22    C     0.16668   0.16653   0.38344   0.00000  Uiso   1.00
C23    C     0.16665   0.16622   0.02419   0.00000  Uiso   1.00
C24    C     0.16676   0.16622   0.47583   0.00000  Uiso   1.00
C25    C     0.29055   0.16675   0.24997   0.00000  Uiso   1.00
C26    C     0.04279   0.16658   0.25001   0.00000  Uiso   1.00
Cu27   Cu    0.16667   0.21355   0.25000   0.00000  Uiso   1.00
Cu28   Cu    0.16667   0.11978   0.25000   0.00000  Uiso   1.00
N29    N     0.16667   0.28402   0.25000   0.00000  Uiso   1.00
N30    N     0.16667   0.04931   0.25000   0.00000  Uiso   1.00
O31    O     0.10655   0.20625   0.24999   0.00000  Uiso   1.00
O32    O     0.22679   0.12709   0.25000   0.00000  Uiso   1.00
O33    O     0.22679   0.20625   0.25000   0.00000  Uiso   1.00
O34    O     0.10655   0.12709   0.24999   0.00000  Uiso   1.00
O35    O     0.16666   0.20626   0.18573   0.00000  Uiso   1.00
O36    O     0.16667   0.12707   0.31427   0.00000  Uiso   1.00
O37    O     0.16667   0.20626   0.31427   0.00000  Uiso   1.00
O38    O     0.16666   0.12707   0.18573   0.00000  Uiso   1.00
F39    F     0.11584   0.04780   0.19413   0.00000  Uiso   1.00
F40    F     0.21803   0.28559   0.30528   0.00000  Uiso   1.00
F41    F     0.21794   0.04821   0.30542   0.00000  Uiso   1.00
F42    F     0.11485   0.28518   0.19518   0.00000  Uiso   1.00
H43    H     0.14119   0.23585   0.02949   0.00000  Uiso   1.00
H44    H     0.14174   0.09624   0.46969   0.00000  Uiso   1.00
H45    H     0.19181   0.23621   0.47052   0.00000  Uiso   1.00
H46    H     0.19209   0.09661   0.03035   0.00000  Uiso   1.00
F47    F     0.13826   0.24433   0.11386   0.00000  Uiso   1.00
F48    F     0.13867   0.08828   0.38510   0.00000  Uiso   1.00
F49    F     0.19466   0.24473   0.38615   0.00000  Uiso   1.00
F50    F     0.19518   0.08871   0.11495   0.00000  Uiso   1.00
F51    F     0.04072   0.09258   0.21209   0.00000  Uiso   1.00
F52    F     0.29262   0.24072   0.28793   0.00000  Uiso   1.00
F53    F     0.29130   0.09272   0.21205   0.00000  Uiso   1.00
F54    F     0.04203   0.24062   0.28792   0.00000  Uiso   1.00
C55    C     0.42072   0.16662   0.24996   0.00000  Uiso   1.00
C56    C     0.57928   0.16672   0.25003   0.00000  Uiso   1.00
C57    C     0.49999   0.16665   0.16492   0.00000  Uiso   1.00
C58    C     0.50002   0.16665   0.33508   0.00000  Uiso   1.00
C59    C     0.47451   0.02469   0.22230   0.00000  Uiso   1.00
C60    C     0.52561   0.30867   0.27756   0.00000  Uiso   1.00
C61    C     0.52556   0.02489   0.27763   0.00000  Uiso   1.00
C62    C     0.47431   0.30847   0.22251   0.00000  Uiso   1.00
C63    C     0.35431   0.12891   0.23136   0.00000  Uiso   1.00
C64    C     0.64570   0.20441   0.26863   0.00000  Uiso   1.00
C65    C     0.64505   0.12899   0.23133   0.00000  Uiso   1.00
C66    C     0.35495   0.20434   0.26865   0.00000  Uiso   1.00
C67    C     0.48602   0.20554   0.04711   0.00000  Uiso   1.00
C68    C     0.48636   0.12681   0.45244   0.00000  Uiso   1.00
C69    C     0.51382   0.20573   0.45291   0.00000  Uiso   1.00
C70    C     0.51394   0.12702   0.04759   0.00000  Uiso   1.00
C71    C     0.48606   0.20587   0.09292   0.00000  Uiso   1.00
C72    C     0.48632   0.12680   0.40660   0.00000  Uiso   1.00
C73    C     0.51376   0.20606   0.40709   0.00000  Uiso   1.00
C74    C     0.51397   0.12700   0.09343   0.00000  Uiso   1.00
C75    C     0.50002   0.16653   0.11657   0.00000  Uiso   1.00
C76    C     0.50001   0.16653   0.38344   0.00000  Uiso   1.00
C77    C     0.49999   0.16622   0.02419   0.00000  Uiso   1.00
C78    C     0.50009   0.16622   0.47583   0.00000  Uiso   1.00
C79    C     0.62388   0.16675   0.24997   0.00000  Uiso   1.00
C80    C     0.37612   0.16658   0.25001   0.00000  Uiso   1.00
Cu81   Cu    0.50000   0.21355   0.25000   0.00000  Uiso   1.00
Cu82   Cu    0.50000   0.11978   0.25000   0.00000  Uiso   1.00
N83    N     0.50000   0.28402   0.25000   0.00000  Uiso   1.00
N84    N     0.50000   0.04931   0.25000   0.00000  Uiso   1.00
O85    O     0.43988   0.20625   0.24999   0.00000  Uiso   1.00
O86    O     0.56012   0.12709   0.25000   0.00000  Uiso   1.00
O87    O     0.56012   0.20625   0.25000   0.00000  Uiso   1.00
O88    O     0.43988   0.12709   0.24999   0.00000  Uiso   1.00
O89    O     0.50000   0.20626   0.18573   0.00000  Uiso   1.00
O90    O     0.50000   0.12707   0.31427   0.00000  Uiso   1.00
O91    O     0.50000   0.20626   0.31427   0.00000  Uiso   1.00
O92    O     0.50000   0.12707   0.18573   0.00000  Uiso   1.00
F93    F     0.44917   0.04780   0.19413   0.00000  Uiso   1.00
F94    F     0.55136   0.28559   0.30528   0.00000  Uiso   1.00
F95    F     0.55127   0.04821   0.30542   0.00000  Uiso   1.00
F96    F     0.44818   0.28518   0.19518   0.00000  Uiso   1.00
H97    H     0.47452   0.23585   0.02949   0.00000  Uiso   1.00
H98    H     0.47507   0.09624   0.46969   0.00000  Uiso   1.00
H99    H     0.52514   0.23621   0.47052   0.00000  Uiso   1.00
H100   H     0.52543   0.09661   0.03035   0.00000  Uiso   1.00
F101   F     0.47159   0.24433   0.11386   0.00000  Uiso   1.00
F102   F     0.47201   0.08828   0.38510   0.00000  Uiso   1.00
F103   F     0.52799   0.24473   0.38615   0.00000  Uiso   1.00
F104   F     0.52851   0.08871   0.11495   0.00000  Uiso   1.00
F105   F     0.37406   0.09258   0.21209   0.00000  Uiso   1.00
F106   F     0.62596   0.24072   0.28793   0.00000  Uiso   1.00
F107   F     0.62463   0.09272   0.21205   0.00000  Uiso   1.00
F108   F     0.37536   0.24062   0.28792   0.00000  Uiso   1.00
C109   C     0.75406   0.16662   0.24996   0.00000  Uiso   1.00
C110   C     0.91261   0.16672   0.25003   0.00000  Uiso   1.00
C111   C     0.83332   0.16665   0.16492   0.00000  Uiso   1.00
C112   C     0.83335   0.16665   0.33508   0.00000  Uiso   1.00
C113   C     0.80784   0.02469   0.22230   0.00000  Uiso   1.00
C114   C     0.85894   0.30867   0.27756   0.00000  Uiso   1.00
C115   C     0.85889   0.02489   0.27763   0.00000  Uiso   1.00
C116   C     0.80765   0.30847   0.22251   0.00000  Uiso   1.00
C117   C     0.68764   0.12891   0.23136   0.00000  Uiso   1.00
C118   C     0.97903   0.20441   0.26863   0.00000  Uiso   1.00
C119   C     0.97839   0.12899   0.23133   0.00000  Uiso   1.00
C120   C     0.68828   0.20434   0.26865   0.00000  Uiso   1.00
C121   C     0.81935   0.20554   0.04711   0.00000  Uiso   1.00
C122   C     0.81970   0.12681   0.45244   0.00000  Uiso   1.00
C123   C     0.84716   0.20573   0.45291   0.00000  Uiso   1.00
C124   C     0.84728   0.12702   0.04759   0.00000  Uiso   1.00
C125   C     0.81939   0.20587   0.09292   0.00000  Uiso   1.00
C126   C     0.81965   0.12680   0.40660   0.00000  Uiso   1.00
C127   C     0.84710   0.20606   0.40709   0.00000  Uiso   1.00
C128   C     0.84730   0.12700   0.09343   0.00000  Uiso   1.00
C129   C     0.83336   0.16653   0.11657   0.00000  Uiso   1.00
C130   C     0.83334   0.16653   0.38344   0.00000  Uiso   1.00
C131   C     0.83332   0.16622   0.02419   0.00000  Uiso   1.00
C132   C     0.83343   0.16622   0.47583   0.00000  Uiso   1.00
C133   C     0.95722   0.16675   0.24997   0.00000  Uiso   1.00
C134   C     0.70945   0.16658   0.25001   0.00000  Uiso   1.00
Cu135  Cu    0.83333   0.21355   0.25000   0.00000  Uiso   1.00
Cu136  Cu    0.83333   0.11978   0.25000   0.00000  Uiso   1.00
N137   N     0.83333   0.28402   0.25000   0.00000  Uiso   1.00
N138   N     0.83333   0.04931   0.25000   0.00000  Uiso   1.00
O139   O     0.77321   0.20625   0.24999   0.00000  Uiso   1.00
O140   O     0.89345   0.12709   0.25000   0.00000  Uiso   1.00
O141   O     0.89345   0.20625   0.25000   0.00000  Uiso   1.00
O142   O     0.77321   0.12709   0.24999   0.00000  Uiso   1.00
O143   O     0.83333   0.20626   0.18573   0.00000  Uiso   1.00
O144   O     0.83334   0.12707   0.31427   0.00000  Uiso   1.00
O145   O     0.83334   0.20626   0.31427   0.00000  Uiso   1.00
O146   O     0.83333   0.12707   0.18573   0.00000  Uiso   1.00
F147   F     0.78250   0.04780   0.19413   0.00000  Uiso   1.00
F148   F     0.88470   0.28559   0.30528   0.00000  Uiso   1.00
F149   F     0.88461   0.04821   0.30542   0.00000  Uiso   1.00
F150   F     0.78151   0.28518   0.19518   0.00000  Uiso   1.00
H151   H     0.80786   0.23585   0.02949   0.00000  Uiso   1.00
H152   H     0.80840   0.09624   0.46969   0.00000  Uiso   1.00
H153   H     0.85848   0.23621   0.47052   0.00000  Uiso   1.00
H154   H     0.85876   0.09661   0.03035   0.00000  Uiso   1.00
F155   F     0.80492   0.24433   0.11386   0.00000  Uiso   1.00
F156   F     0.80534   0.08828   0.38510   0.00000  Uiso   1.00
F157   F     0.86133   0.24473   0.38615   0.00000  Uiso   1.00
F158   F     0.86185   0.08871   0.11495   0.00000  Uiso   1.00
F159   F     0.70739   0.09258   0.21209   0.00000  Uiso   1.00
F160   F     0.95929   0.24072   0.28793   0.00000  Uiso   1.00
F161   F     0.95797   0.09272   0.21205   0.00000  Uiso   1.00
F162   F     0.70870   0.24062   0.28792   0.00000  Uiso   1.00
C163   C     0.08739   0.49995   0.24996   0.00000  Uiso   1.00
C164   C     0.24594   0.50005   0.25003   0.00000  Uiso   1.00
C165   C     0.16666   0.49998   0.16492   0.00000  Uiso   1.00
C166   C     0.16668   0.49998   0.33508   0.00000  Uiso   1.00
C167   C     0.14117   0.35802   0.22230   0.00000  Uiso   1.00
C168   C     0.19228   0.64200   0.27756   0.00000  Uiso   1.00
C169   C     0.19223   0.35822   0.27763   0.00000  Uiso   1.00
C170   C     0.14098   0.64180   0.22251   0.00000  Uiso   1.00
C171   C     0.02097   0.46224   0.23136   0.00000  Uiso   1.00
C172   C     0.31236   0.53774   0.26863   0.00000  Uiso   1.00
C173   C     0.31172   0.46233   0.23133   0.00000  Uiso   1.00
C174   C     0.02161   0.53767   0.26865   0.00000  Uiso   1.00
C175   C     0.15268   0.53887   0.04711   0.00000  Uiso   1.00
C176   C     0.15303   0.46015   0.45244   0.00000  Uiso   1.00
C177   C     0.18049   0.53907   0.45291   0.00000  Uiso   1.00
C178   C     0.18061   0.46035   0.04759   0.00000  Uiso   1.00
C179   C     0.15272   0.53920   0.09292   0.00000  Uiso   1.00
C180   C     0.15298   0.46013   0.40660   0.00000  Uiso   1.00
C181   C     0.18043   0.53940   0.40709   0.00000  Uiso   1.00
C182   C     0.18064   0.46034   0.09343   0.00000  Uiso   1.00
C183   C     0.16669   0.49986   0.11657   0.00000  Uiso   1.00
C184   C     0.16668   0.49986   0.38344   0.00000  Uiso   1.00
C185   C     0.16665   0.49955   0.02419   0.00000  Uiso   1.00
C186   C     0.16676   0.49955   0.47583   0.00000  Uiso   1.00
C187   C     0.29055   0.50008   0.24997   0.00000  Uiso   1.00
C188   C     0.04279   0.49991   0.25001   0.00000  Uiso   1.00
Cu189  Cu    0.16667   0.54689   0.25000   0.00000  Uiso   1.00
Cu190  Cu    0.16667   0.45311   0.25000   0.00000  Uiso   1.00
N191   N     0.16667   0.61736   0.25000   0.00000  Uiso   1.00
N192   N     0.16667   0.38264   0.25000   0.00000  Uiso   1.00
O193   O     0.10655   0.53958   0.24999   0.00000  Uiso   1.00
O194   O     0.22679   0.46042   0.25000   0.00000  Uiso   1.00
O195   O     0.22679   0.53958   0.25000   0.00000  Uiso   1.00
O196   O     0.10655   0.46042   0.24999   0.00000  Uiso   1.00
O197   O     0.16666   0.53959   0.18573   0.00000  Uiso   1.00
O198   O     0.16667   0.46041   0.31427   0.00000  Uiso   1.00
O199   O     0.16667   0.53959   0.31427   0.00000  Uiso   1.00
O200   O     0.16666   0.46041   0.18573   0.00000  Uiso   1.00
F201   F     0.11584   0.38114   0.19413   0.00000  Uiso   1.00
F202   F     0.21803   0.61893   0.30528   0.00000  Uiso   1.00
F203   F     0.21794   0.38154   0.30542   0.00000  Uiso   1.00
F204   F     0.11485   0.61851   0.19518   0.00000  Uiso   1.00
H205   H     0.14119   0.56919   0.02949   0.00000  Uiso   1.00
H206   H     0.14174   0.42958   0.46969   0.00000  Uiso   1.00
H207   H     0.19181   0.56955   0.47052   0.00000  Uiso   1.00
H208   H     0.19209   0.42994   0.03035   0.00000  Uiso   1.00
F209   F     0.13826   0.57766   0.11386   0.00000  Uiso   1.00
F210   F     0.13867   0.42162   0.38510   0.00000  Uiso   1.00
F211   F     0.19466   0.57807   0.38615   0.00000  Uiso   1.00
F212   F     0.19518   0.42204   0.11495   0.00000  Uiso   1.00
F213   F     0.04072   0.42592   0.21209   0.00000  Uiso   1.00
F214   F     0.29262   0.57405   0.28793   0.00000  Uiso   1.00
F215   F     0.29130   0.42605   0.21205   0.00000  Uiso   1.00
F216   F     0.04203   0.57395   0.28792   0.00000  Uiso   1.00
C217   C     0.42072   0.49995   0.24996   0.00000  Uiso   1.00
C218   C     0.57928   0.50005   0.25003   0.00000  Uiso   1.00
C219   C     0.49999   0.49998   0.16492   0.00000  Uiso   1.00
C220   C     0.50002   0.49998   0.33508   0.00000  Uiso   1.00
C221   C     0.47451   0.35802   0.22230   0.00000  Uiso   1.00
C222   C     0.52561   0.64200   0.27756   0.00000  Uiso   1.00
C223   C     0.52556   0.35822   0.27763   0.00000  Uiso   1.00
C224   C     0.47431   0.64180   0.22251   0.00000  Uiso   1.00
C225   C     0.35431   0.46224   0.23136   0.00000  Uiso   1.00
C226   C     0.64570   0.53774   0.26863   0.00000  Uiso   1.00
C227   C     0.64505   0.46233   0.23133   0.00000  Uiso   1.00
C228   C     0.35495   0.53767   0.26865   0.00000  Uiso   1.00
C229   C     0.48602   0.53887   0.04711   0.00000  Uiso   1.00
C230   C     0.48636   0.46015   0.45244   0.00000  Uiso   1.00
C231   C     0.51382   0.53907   0.45291   0.00000  Uiso   1.00
C232   C     0.51394   0.46035   0.04759   0.00000  Uiso   1.00
C233   C     0.48606   0.53920   0.09292   0.00000  Uiso   1.00
C234   C     0.48632   0.46013   0.40660   0.00000  Uiso   1.00
C235   C     0.51376   0.53940   0.40709   0.00000  Uiso   1.00
C236   C     0.51397   0.46034   0.09343   0.00000  Uiso   1.00
C237   C     0.50002   0.49986   0.11657   0.00000  Uiso   1.00
C238   C     0.50001   0.49986   0.38344   0.00000  Uiso   1.00
C239   C     0.49999   0.49955   0.02419   0.00000  Uiso   1.00
C240   C     0.50009   0.49955   0.47583   0.00000  Uiso   1.00
C241   C     0.62388   0.50008   0.24997   0.00000  Uiso   1.00
C242   C     0.37612   0.49991   0.25001   0.00000  Uiso   1.00
Cu243  Cu    0.50000   0.54689   0.25000   0.00000  Uiso   1.00
Cu244  Cu    0.50000   0.45311   0.25000   0.00000  Uiso   1.00
N245   N     0.50000   0.61736   0.25000   0.00000  Uiso   1.00
N246   N     0.50000   0.38264   0.25000   0.00000  Uiso   1.00
O247   O     0.43988   0.53958   0.24999   0.00000  Uiso   1.00
O248   O     0.56012   0.46042   0.25000   0.00000  Uiso   1.00
O249   O     0.56012   0.53958   0.25000   0.00000  Uiso   1.00
O250   O     0.43988   0.46042   0.24999   0.00000  Uiso   1.00
O251   O     0.50000   0.53959   0.18573   0.00000  Uiso   1.00
O252   O     0.50000   0.46041   0.31427   0.00000  Uiso   1.00
O253   O     0.50000   0.53959   0.31427   0.00000  Uiso   1.00
O254   O     0.50000   0.46041   0.18573   0.00000  Uiso   1.00
F255   F     0.44917   0.38114   0.19413   0.00000  Uiso   1.00
F256   F     0.55136   0.61893   0.30528   0.00000  Uiso   1.00
F257   F     0.55127   0.38154   0.30542   0.00000  Uiso   1.00
F258   F     0.44818   0.61851   0.19518   0.00000  Uiso   1.00
H259   H     0.47452   0.56919   0.02949   0.00000  Uiso   1.00
H260   H     0.47507   0.42958   0.46969   0.00000  Uiso   1.00
H261   H     0.52514   0.56955   0.47052   0.00000  Uiso   1.00
H262   H     0.52543   0.42994   0.03035   0.00000  Uiso   1.00
F263   F     0.47159   0.57766   0.11386   0.00000  Uiso   1.00
F264   F     0.47201   0.42162   0.38510   0.00000  Uiso   1.00
F265   F     0.52799   0.57807   0.38615   0.00000  Uiso   1.00
F266   F     0.52851   0.42204   0.11495   0.00000  Uiso   1.00
F267   F     0.37406   0.42592   0.21209   0.00000  Uiso   1.00
F268   F     0.62596   0.57405   0.28793   0.00000  Uiso   1.00
F269   F     0.62463   0.42605   0.21205   0.00000  Uiso   1.00
F270   F     0.37536   0.57395   0.28792   0.00000  Uiso   1.00
C271   C     0.75406   0.49995   0.24996   0.00000  Uiso   1.00
C272   C     0.91261   0.50005   0.25003   0.00000  Uiso   1.00
C273   C     0.83332   0.49998   0.16492   0.00000  Uiso   1.00
C274   C     0.83335   0.49998   0.33508   0.00000  Uiso   1.00
C275   C     0.80784   0.35802   0.22230   0.00000  Uiso   1.00
C276   C     0.85894   0.64200   0.27756   0.00000  Uiso   1.00
C277   C     0.85889   0.35822   0.27763   0.00000  Uiso   1.00
C278   C     0.80765   0.64180   0.22251   0.00000  Uiso   1.00
C279   C     0.68764   0.46224   0.23136   0.00000  Uiso   1.00
C280   C     0.97903   0.53774   0.26863   0.00000  Uiso   1.00
C281   C     0.97839   0.46233   0.23133   0.00000  Uiso   1.00
C282   C     0.68828   0.53767   0.26865   0.00000  Uiso   1.00
C283   C     0.81935   0.53887   0.04711   0.00000  Uiso   1.00
C284   C     0.81970   0.46015   0.45244   0.00000  Uiso   1.00
C285   C     0.84716   0.53907   0.45291   0.00000  Uiso   1.00
C286   C     0.84728   0.46035   0.04759   0.00000  Uiso   1.00
C287   C     0.81939   0.53920   0.09292   0.00000  Uiso   1.00
C288   C     0.81965   0.46013   0.40660   0.00000  Uiso   1.00
C289   C     0.84710   0.53940   0.40709   0.00000  Uiso   1.00
C290   C     0.84730   0.46034   0.09343   0.00000  Uiso   1.00
C291   C     0.83336   0.49986   0.11657   0.00000  Uiso   1.00
C292   C     0.83334   0.49986   0.38344   0.00000  Uiso   1.00
C293   C     0.83332   0.49955   0.02419   0.00000  Uiso   1.00
C294   C     0.83343   0.49955   0.47583   0.00000  Uiso   1.00
C295   C     0.95722   0.50008   0.24997   0.00000  Uiso   1.00
C296   C     0.70945   0.49991   0.25001   0.00000  Uiso   1.00
Cu297  Cu    0.83333   0.54689   0.25000   0.00000  Uiso   1.00
Cu298  Cu    0.83333   0.45311   0.25000   0.00000  Uiso   1.00
N299   N     0.83333   0.61736   0.25000   0.00000  Uiso   1.00
N300   N     0.83333   0.38264   0.25000   0.00000  Uiso   1.00
O301   O     0.77321   0.53958   0.24999   0.00000  Uiso   1.00
O302   O     0.89345   0.46042   0.25000   0.00000  Uiso   1.00
O303   O     0.89345   0.53958   0.25000   0.00000  Uiso   1.00
O304   O     0.77321   0.46042   0.24999   0.00000  Uiso   1.00
O305   O     0.83333   0.53959   0.18573   0.00000  Uiso   1.00
O306   O     0.83334   0.46041   0.31427   0.00000  Uiso   1.00
O307   O     0.83334   0.53959   0.31427   0.00000  Uiso   1.00
O308   O     0.83333   0.46041   0.18573   0.00000  Uiso   1.00
F309   F     0.78250   0.38114   0.19413   0.00000  Uiso   1.00
F310   F     0.88470   0.61893   0.30528   0.00000  Uiso   1.00
F311   F     0.88461   0.38154   0.30542   0.00000  Uiso   1.00
F312   F     0.78151   0.61851   0.19518   0.00000  Uiso   1.00
H313   H     0.80786   0.56919   0.02949   0.00000  Uiso   1.00
H314   H     0.80840   0.42958   0.46969   0.00000  Uiso   1.00
H315   H     0.85848   0.56955   0.47052   0.00000  Uiso   1.00
H316   H     0.85876   0.42994   0.03035   0.00000  Uiso   1.00
F317   F     0.80492   0.57766   0.11386   0.00000  Uiso   1.00
F318   F     0.80534   0.42162   0.38510   0.00000  Uiso   1.00
F319   F     0.86133   0.57807   0.38615   0.00000  Uiso   1.00
F320   F     0.86185   0.42204   0.11495   0.00000  Uiso   1.00
F321   F     0.70739   0.42592   0.21209   0.00000  Uiso   1.00
F322   F     0.95929   0.57405   0.28793   0.00000  Uiso   1.00
F323   F     0.95797   0.42605   0.21205   0.00000  Uiso   1.00
F324   F     0.70870   0.57395   0.28792   0.00000  Uiso   1.00
C325   C     0.08739   0.83328   0.24996   0.00000  Uiso   1.00
C326   C     0.24594   0.83338   0.25003   0.00000  Uiso   1.00
C327   C     0.16666   0.83332   0.16492   0.00000  Uiso   1.00
C328   C     0.16668   0.83332   0.33508   0.00000  Uiso   1.00
C329   C     0.14117   0.69135   0.22230   0.00000  Uiso   1.00
C330   C     0.19228   0.97534   0.27756   0.00000  Uiso   1.00
C331   C     0.19223   0.69155   0.27763   0.00000  Uiso   1.00
C332   C     0.14098   0.97514   0.22251   0.00000  Uiso   1.00
C333   C     0.02097   0.79558   0.23136   0.00000  Uiso   1.00
C334   C     0.31236   0.87108   0.26863   0.00000  Uiso   1.00
C335   C     0.31172   0.79566   0.23133   0.00000  Uiso   1.00
C336   C     0.02161   0.87100   0.26865   0.00000  Uiso   1.00
C337   C     0.15268   0.87221   0.04711   0.00000  Uiso   1.00
C338   C     0.15303   0.79348   0.45244   0.00000  Uiso   1.00
C339   C     0.18049   0.87240   0.45291   0.00000  Uiso   1.00
C340   C     0.18061   0.79368   0.04759   0.00000  Uiso   1.00
C341   C     0.15272   0.87253   0.09292   0.00000  Uiso   1.00
C342   C     0.15298   0.79347   0.40660   0.00000  Uiso   1.00
C343   C     0.18043   0.87273   0.40709   0.00000  Uiso   1.00
C344   C     0.18064   0.79367   0.09343   0.00000  Uiso   1.00
C345   C     0.16669   0.83320   0.11657   0.00000  Uiso   1.00
C346   C     0.16668   0.83320   0.38344   0.00000  Uiso   1.00
C347   C     0.16665   0.83289   0.02419   0.00000  Uiso   1.00
C348   C     0.16676   0.83289   0.47583   0.00000  Uiso   1.00
C349   C     0.29055   0.83341   0.24997   0.00000  Uiso   1.00
C350   C     0.04279   0.83325   0.25001   0.00000  Uiso   1.00
Cu351  Cu    0.16667   0.88022   0.25000   0.00000  Uiso   1.00
Cu352  Cu    0.16667   0.78645   0.25000   0.00000  Uiso   1.00
N353   N     0.16667   0.95069   0.25000   0.00000  Uiso   1.00
N354   N     0.16667   0.71598   0.25000   0.00000  Uiso   1.00
O355   O     0.10655   0.87291   0.24999   0.00000  Uiso   1.00
O356   O     0.22679   0.79375   0.25000   0.00000  Uiso   1.00
O357   O     0.22679   0.87291   0.25000   0.00000  Uiso   1.00
O358   O     0.10655   0.79375   0.24999   0.00000  Uiso   1.00
O359   O     0.16666   0.87293   0.18573   0.00000  Uiso   1.00
O360   O     0.16667   0.79374   0.31427   0.00000  Uiso   1.00
O361   O     0.16667   0.87293   0.31427   0.00000  Uiso   1.00
O362   O     0.16666   0.79374   0.18573   0.00000  Uiso   1.00
F363   F     0.11584   0.71447   0.19413   0.00000  Uiso   1.00
F364   F     0.21803   0.95226   0.30528   0.00000  Uiso   1.00
F365   F     0.21794   0.71488   0.30542   0.00000  Uiso   1.00
F366   F     0.11485   0.95185   0.19518   0.00000  Uiso   1.00
H367   H     0.14119   0.90252   0.02949   0.00000  Uiso   1.00
H368   H     0.14174   0.76291   0.46969   0.00000  Uiso   1.00
H369   H     0.19181   0.90288   0.47052   0.00000  Uiso   1.00
H370   H     0.19209   0.76328   0.03035   0.00000  Uiso   1.00
F371   F     0.13826   0.91099   0.11386   0.00000  Uiso   1.00
F372   F     0.13867   0.75495   0.38510   0.00000  Uiso   1.00
F373   F     0.19466   0.91140   0.38615   0.00000  Uiso   1.00
F374   F     0.19518   0.75537   0.11495   0.00000  Uiso   1.00
F375   F     0.04072   0.75925   0.21209   0.00000  Uiso   1.00
F376   F     0.29262   0.90739   0.28793   0.00000  Uiso   1.00
F377   F     0.29130   0.75938   0.21205   0.00000  Uiso   1.00
F378   F     0.04203   0.90729   0.28792   0.00000  Uiso   1.00
C379   C     0.42072   0.83328   0.24996   0.00000  Uiso   1.00
C380   C     0.57928   0.83338   0.25003   0.00000  Uiso   1.00
C381   C     0.49999   0.83332   0.16492   0.00000  Uiso   1.00
C382   C     0.50002   0.83332   0.33508   0.00000  Uiso   1.00
C383   C     0.47451   0.69135   0.22230   0.00000  Uiso   1.00
C384   C     0.52561   0.97534   0.27756   0.00000  Uiso   1.00
C385   C     0.52556   0.69155   0.27763   0.00000  Uiso   1.00
C386   C     0.47431   0.97514   0.22251   0.00000  Uiso   1.00
C387   C     0.35431   0.79558   0.23136   0.00000  Uiso   1.00
C388   C     0.64570   0.87108   0.26863   0.00000  Uiso   1.00
C389   C     0.64505   0.79566   0.23133   0.00000  Uiso   1.00
C390   C     0.35495   0.87100   0.26865   0.00000  Uiso   1.00
C391   C     0.48602   0.87221   0.04711   0.00000  Uiso   1.00
C392   C     0.48636   0.79348   0.45244   0.00000  Uiso   1.00
C393   C     0.51382   0.87240   0.45291   0.00000  Uiso   1.00
C394   C     0.51394   0.79368   0.04759   0.00000  Uiso   1.00
C395   C     0.48606   0.87253   0.09292   0.00000  Uiso   1.00
C396   C     0.48632   0.79347   0.40660   0.00000  Uiso   1.00
C397   C     0.51376   0.87273   0.40709   0.00000  Uiso   1.00
C398   C     0.51397   0.79367   0.09343   0.00000  Uiso   1.00
C399   C     0.50002   0.83320   0.11657   0.00000  Uiso   1.00
C400   C     0.50001   0.83320   0.38344   0.00000  Uiso   1.00
C401   C     0.49999   0.83289   0.02419   0.00000  Uiso   1.00
C402   C     0.50009   0.83289   0.47583   0.00000  Uiso   1.00
C403   C     0.62388   0.83341   0.24997   0.00000  Uiso   1.00
C404   C     0.37612   0.83325   0.25001   0.00000  Uiso   1.00
Cu405  Cu    0.50000   0.88022   0.25000   0.00000  Uiso   1.00
Cu406  Cu    0.50000   0.78645   0.25000   0.00000  Uiso   1.00
N407   N     0.50000   0.95069   0.25000   0.00000  Uiso   1.00
N408   N     0.50000   0.71598   0.25000   0.00000  Uiso   1.00
O409   O     0.43988   0.87291   0.24999   0.00000  Uiso   1.00
O410   O     0.56012   0.79375   0.25000   0.00000  Uiso   1.00
O411   O     0.56012   0.87291   0.25000   0.00000  Uiso   1.00
O412   O     0.43988   0.79375   0.24999   0.00000  Uiso   1.00
O413   O     0.50000   0.87293   0.18573   0.00000  Uiso   1.00
O414   O     0.50000   0.79374   0.31427   0.00000  Uiso   1.00
O415   O     0.50000   0.87293   0.31427   0.00000  Uiso   1.00
O416   O     0.50000   0.79374   0.18573   0.00000  Uiso   1.00
F417   F     0.44917   0.71447   0.19413   0.00000  Uiso   1.00
F418   F     0.55136   0.95226   0.30528   0.00000  Uiso   1.00
F419   F     0.55127   0.71488   0.30542   0.00000  Uiso   1.00
F420   F     0.44818   0.95185   0.19518   0.00000  Uiso   1.00
H421   H     0.47452   0.90252   0.02949   0.00000  Uiso   1.00
H422   H     0.47507   0.76291   0.46969   0.00000  Uiso   1.00
H423   H     0.52514   0.90288   0.47052   0.00000  Uiso   1.00
H424   H     0.52543   0.76328   0.03035   0.00000  Uiso   1.00
F425   F     0.47159   0.91099   0.11386   0.00000  Uiso   1.00
F426   F     0.47201   0.75495   0.38510   0.00000  Uiso   1.00
F427   F     0.52799   0.91140   0.38615   0.00000  Uiso   1.00
F428   F     0.52851   0.75537   0.11495   0.00000  Uiso   1.00
F429   F     0.37406   0.75925   0.21209   0.00000  Uiso   1.00
F430   F     0.62596   0.90739   0.28793   0.00000  Uiso   1.00
F431   F     0.62463   0.75938   0.21205   0.00000  Uiso   1.00
F432   F     0.37536   0.90729   0.28792   0.00000  Uiso   1.00
C433   C     0.75406   0.83328   0.24996   0.00000  Uiso   1.00
C434   C     0.91261   0.83338   0.25003   0.00000  Uiso   1.00
C435   C     0.83332   0.83332   0.16492   0.00000  Uiso   1.00
C436   C     0.83335   0.83332   0.33508   0.00000  Uiso   1.00
C437   C     0.80784   0.69135   0.22230   0.00000  Uiso   1.00
C438   C     0.85894   0.97534   0.27756   0.00000  Uiso   1.00
C439   C     0.85889   0.69155   0.27763   0.00000  Uiso   1.00
C440   C     0.80765   0.97514   0.22251   0.00000  Uiso   1.00
C441   C     0.68764   0.79558   0.23136   0.00000  Uiso   1.00
C442   C     0.97903   0.87108   0.26863   0.00000  Uiso   1.00
C443   C     0.97839   0.79566   0.23133   0.00000  Uiso   1.00
C444   C     0.68828   0.87100   0.26865   0.00000  Uiso   1.00
C445   C     0.81935   0.87221   0.04711   0.00000  Uiso   1.00
C446   C     0.81970   0.79348   0.45244   0.00000  Uiso   1.00
C447   C     0.84716   0.87240   0.45291   0.00000  Uiso   1.00
C448   C     0.84728   0.79368   0.04759   0.00000  Uiso   1.00
C449   C     0.81939   0.87253   0.09292   0.00000  Uiso   1.00
C450   C     0.81965   0.79347   0.40660   0.00000  Uiso   1.00
C451   C     0.84710   0.87273   0.40709   0.00000  Uiso   1.00
C452   C     0.84730   0.79367   0.09343   0.00000  Uiso   1.00
C453   C     0.83336   0.83320   0.11657   0.00000  Uiso   1.00
C454   C     0.83334   0.83320   0.38344   0.00000  Uiso   1.00
C455   C     0.83332   0.83289   0.02419   0.00000  Uiso   1.00
C456   C     0.83343   0.83289   0.47583   0.00000  Uiso   1.00
C457   C     0.95722   0.83341   0.24997   0.00000  Uiso   1.00
C458   C     0.70945   0.83325   0.25001   0.00000  Uiso   1.00
Cu459  Cu    0.83333   0.88022   0.25000   0.00000  Uiso   1.00
Cu460  Cu    0.83333   0.78645   0.25000   0.00000  Uiso   1.00
N461   N     0.83333   0.95069   0.25000   0.00000  Uiso   1.00
N462   N     0.83333   0.71598   0.25000   0.00000  Uiso   1.00
O463   O     0.77321   0.87291   0.24999   0.00000  Uiso   1.00
O464   O     0.89345   0.79375   0.25000   0.00000  Uiso   1.00
O465   O     0.89345   0.87291   0.25000   0.00000  Uiso   1.00
O466   O     0.77321   0.79375   0.24999   0.00000  Uiso   1.00
O467   O     0.83333   0.87293   0.18573   0.00000  Uiso   1.00
O468   O     0.83334   0.79374   0.31427   0.00000  Uiso   1.00
O469   O     0.83334   0.87293   0.31427   0.00000  Uiso   1.00
O470   O     0.83333   0.79374   0.18573   0.00000  Uiso   1.00
F471   F     0.78250   0.71447   0.19413   0.00000  Uiso   1.00
F472   F     0.88470   0.95226   0.30528   0.00000  Uiso   1.00
F473   F     0.88461   0.71488   0.30542   0.00000  Uiso   1.00
F474   F     0.78151   0.95185   0.19518   0.00000  Uiso   1.00
H475   H     0.80786   0.90252   0.02949   0.00000  Uiso   1.00
H476   H     0.80840   0.76291   0.46969   0.00000  Uiso   1.00
H477   H     0.85848   0.90288   0.47052   0.00000  Uiso   1.00
H478   H     0.85876   0.76328   0.03035   0.00000  Uiso   1.00
F479   F     0.80492   0.91099   0.11386   0.00000  Uiso   1.00
F480   F     0.80534   0.75495   0.38510   0.00000  Uiso   1.00
F481   F     0.86133   0.91140   0.38615   0.00000  Uiso   1.00
F482   F     0.86185   0.75537   0.11495   0.00000  Uiso   1.00
F483   F     0.70739   0.75925   0.21209   0.00000  Uiso   1.00
F484   F     0.95929   0.90739   0.28793   0.00000  Uiso   1.00
F485   F     0.95797   0.75938   0.21205   0.00000  Uiso   1.00
F486   F     0.70870   0.90729   0.28792   0.00000  Uiso   1.00
C487   C     0.08739   0.16662   0.74996   0.00000  Uiso   1.00
C488   C     0.24594   0.16672   0.75003   0.00000  Uiso   1.00
C489   C     0.16666   0.16665   0.66492   0.00000  Uiso   1.00
C490   C     0.16668   0.16665   0.83508   0.00000  Uiso   1.00
C491   C     0.14117   0.02469   0.72230   0.00000  Uiso   1.00
C492   C     0.19228   0.30867   0.77756   0.00000  Uiso   1.00
C493   C     0.19223   0.02489   0.77763   0.00000  Uiso   1.00
C494   C     0.14098   0.30847   0.72251   0.00000  Uiso   1.00
C495   C     0.02097   0.12891   0.73136   0.00000  Uiso   1.00
C496   C     0.31236   0.20441   0.76863   0.00000  Uiso   1.00
C497   C     0.31172   0.12899   0.73133   0.00000  Uiso   1.00
C498   C     0.02161   0.20434   0.76865   0.00000  Uiso   1.00
C499   C     0.15268   0.20554   0.54711   0.00000  Uiso   1.00
C500   C     0.15303   0.12681   0.95244   0.00000  Uiso   1.00
C501   C     0.18049   0.20573   0.95291   0.00000  Uiso   1.00
C502   C     0.18061   0.12702   0.54759   0.00000  Uiso   1.00
C503   C     0.15272   0.20587   0.59292   0.00000  Uiso   1.00
C504   C     0.15298   0.12680   0.90660   0.00000  Uiso   1.00
C505   C     0.18043   0.20606   0.90709   0.00000  Uiso   1.00
C506   C     0.18064   0.12700   0.59343   0.00000  Uiso   1.00
C507   C     0.16669   0.16653   0.61657   0.00000  Uiso   1.00
C508   C     0.16668   0.16653   0.88344   0.00000  Uiso   1.00
C509   C     0.16665   0.16622   0.52419   0.00000  Uiso   1.00
C510   C     0.16676   0.16622   0.97583   0.00000  Uiso   1.00
C511   C     0.29055   0.16675   0.74997   0.00000  Uiso   1.00
C512   C     0.04279   0.16658   0.75001   0.00000  Uiso   1.00
Cu513  Cu    0.16667   0.21355   0.75000   0.00000  Uiso   1.00
Cu514  Cu    0.16667   0.11978   0.75000   0.00000  Uiso   1.00
N515   N     0.16667   0.28402   0.75000   0.00000  Uiso   1.00
N516   N     0.16667   0.04931   0.75000   0.00000  Uiso   1.00
O517   O     0.10655   0.20625   0.74999   0.00000  Uiso   1.00
O518   O     0.22679   0.12709   0.75000   0.00000  Uiso   1.00
O519   O     0.22679   0.20625   0.75000   0.00000  Uiso   1.00
O520   O     0.10655   0.12709   0.74999   0.00000  Uiso   1.00
O521   O     0.16666   0.20626   0.68573   0.00000  Uiso   1.00
O522   O     0.16667   0.12707   0.81427   0.00000  Uiso   1.00
O523   O     0.16667   0.20626   0.81427   0.00000  Uiso   1.00
O524   O     0.16666   0.12707   0.68573   0.00000  Uiso   1.00
F525   F     0.11584   0.04780   0.69413   0.00000  Uiso   1.00
F526   F     0.21803   0.28559   0.80528   0.00000  Uiso   1.00
F527   F     0.21794   0.04821   0.80542   0.00000  Uiso   1.00
F528   F     0.11485   0.28518   0.69518   0.00000  Uiso   1.00
H529   H     0.14119   0.23585   0.52949   0.00000  Uiso   1.00
H530   H     0.14174   0.09624   0.96969   0.00000  Uiso   1.00
H531   H     0.19181   0.23621   0.97052   0.00000  Uiso   1.00
H532   H     0.19209   0.09661   0.53035   0.00000  Uiso   1.00
F533   F     0.13826   0.24433   0.61386   0.00000  Uiso   1.00
F534   F     0.13867   0.08828   0.88510   0.00000  Uiso   1.00
F535   F     0.19466   0.24473   0.88615   0.00000  Uiso   1.00
F536   F     0.19518   0.08871   0.61495   0.00000  Uiso   1.00
F537   F     0.04072   0.09258   0.71209   0.00000  Uiso   1.00
F538   F     0.29262   0.24072   0.78793   0.00000  Uiso   1.00
F539   F     0.29130   0.09272   0.71205   0.00000  Uiso   1.00
F540   F     0.04203   0.24062   0.78792   0.00000  Uiso   1.00
C541   C     0.42072   0.16662   0.74996   0.00000  Uiso   1.00
C542   C     0.57928   0.16672   0.75003   0.00000  Uiso   1.00
C543   C     0.49999   0.16665   0.66492   0.00000  Uiso   1.00
C544   C     0.50002   0.16665   0.83508   0.00000  Uiso   1.00
C545   C     0.47451   0.02469   0.72230   0.00000  Uiso   1.00
C546   C     0.52561   0.30867   0.77756   0.00000  Uiso   1.00
C547   C     0.52556   0.02489   0.77763   0.00000  Uiso   1.00
C548   C     0.47431   0.30847   0.72251   0.00000  Uiso   1.00
C549   C     0.35431   0.12891   0.73136   0.00000  Uiso   1.00
C550   C     0.64570   0.20441   0.76863   0.00000  Uiso   1.00
C551   C     0.64505   0.12899   0.73133   0.00000  Uiso   1.00
C552   C     0.35495   0.20434   0.76865   0.00000  Uiso   1.00
C553   C     0.48602   0.20554   0.54711   0.00000  Uiso   1.00
C554   C     0.48636   0.12681   0.95244   0.00000  Uiso   1.00
C555   C     0.51382   0.20573   0.95291   0.00000  Uiso   1.00
C556   C     0.51394   0.12702   0.54759   0.00000  Uiso   1.00
C557   C     0.48606   0.20587   0.59292   0.00000  Uiso   1.00
C558   C     0.48632   0.12680   0.90660   0.00000  Uiso   1.00
C559   C     0.51376   0.20606   0.90709   0.00000  Uiso   1.00
C560   C     0.51397   0.12700   0.59343   0.00000  Uiso   1.00
C561   C     0.50002   0.16653   0.61657   0.00000  Uiso   1.00
C562   C     0.50001   0.16653   0.88344   0.00000  Uiso   1.00
C563   C     0.49999   0.16622   0.52419   0.00000  Uiso   1.00
C564   C     0.50009   0.16622   0.97583   0.00000  Uiso   1.00
C565   C     0.62388   0.16675   0.74997   0.00000  Uiso   1.00
C566   C     0.37612   0.16658   0.75001   0.00000  Uiso   1.00
Cu567  Cu    0.50000   0.21355   0.75000   0.00000  Uiso   1.00
Cu568  Cu    0.50000   0.11978   0.75000   0.00000  Uiso   1.00
N569   N     0.50000   0.28402   0.75000   0.00000  Uiso   1.00
N570   N     0.50000   0.04931   0.75000   0.00000  Uiso   1.00
O571   O     0.43988   0.20625   0.74999   0.00000  Uiso   1.00
O572   O     0.56012   0.12709   0.75000   0.00000  Uiso   1.00
O573   O     0.56012   0.20625   0.75000   0.00000  Uiso   1.00
O574   O     0.43988   0.12709   0.74999   0.00000  Uiso   1.00
O575   O     0.50000   0.20626   0.68573   0.00000  Uiso   1.00
O576   O     0.50000   0.12707   0.81427   0.00000  Uiso   1.00
O577   O     0.50000   0.20626   0.81427   0.00000  Uiso   1.00
O578   O     0.50000   0.12707   0.68573   0.00000  Uiso   1.00
F579   F     0.44917   0.04780   0.69413   0.00000  Uiso   1.00
F580   F     0.55136   0.28559   0.80528   0.00000  Uiso   1.00
F581   F     0.55127   0.04821   0.80542   0.00000  Uiso   1.00
F582   F     0.44818   0.28518   0.69518   0.00000  Uiso   1.00
H583   H     0.47452   0.23585   0.52949   0.00000  Uiso   1.00
H584   H     0.47507   0.09624   0.96969   0.00000  Uiso   1.00
H585   H     0.52514   0.23621   0.97052   0.00000  Uiso   1.00
H586   H     0.52543   0.09661   0.53035   0.00000  Uiso   1.00
F587   F     0.47159   0.24433   0.61386   0.00000  Uiso   1.00
F588   F     0.47201   0.08828   0.88510   0.00000  Uiso   1.00
F589   F     0.52799   0.24473   0.88615   0.00000  Uiso   1.00
F590   F     0.52851   0.08871   0.61495   0.00000  Uiso   1.00
F591   F     0.37406   0.09258   0.71209   0.00000  Uiso   1.00
F592   F     0.62596   0.24072   0.78793   0.00000  Uiso   1.00
F593   F     0.62463   0.09272   0.71205   0.00000  Uiso   1.00
F594   F     0.37536   0.24062   0.78792   0.00000  Uiso   1.00
C595   C     0.75406   0.16662   0.74996   0.00000  Uiso   1.00
C596   C     0.91261   0.16672   0.75003   0.00000  Uiso   1.00
C597   C     0.83332   0.16665   0.66492   0.00000  Uiso   1.00
C598   C     0.83335   0.16665   0.83508   0.00000  Uiso   1.00
C599   C     0.80784   0.02469   0.72230   0.00000  Uiso   1.00
C600   C     0.85894   0.30867   0.77756   0.00000  Uiso   1.00
C601   C     0.85889   0.02489   0.77763   0.00000  Uiso   1.00
C602   C     0.80765   0.30847   0.72251   0.00000  Uiso   1.00
C603   C     0.68764   0.12891   0.73136   0.00000  Uiso   1.00
C604   C     0.97903   0.20441   0.76863   0.00000  Uiso   1.00
C605   C     0.97839   0.12899   0.73133   0.00000  Uiso   1.00
C606   C     0.68828   0.20434   0.76865   0.00000  Uiso   1.00
C607   C     0.81935   0.20554   0.54711   0.00000  Uiso   1.00
C608   C     0.81970   0.12681   0.95244   0.00000  Uiso   1.00
C609   C     0.84716   0.20573   0.95291   0.00000  Uiso   1.00
C610   C     0.84728   0.12702   0.54759   0.00000  Uiso   1.00
C611   C     0.81939   0.20587   0.59292   0.00000  Uiso   1.00
C612   C     0.81965   0.12680   0.90660   0.00000  Uiso   1.00
C613   C     0.84710   0.20606   0.90709   0.00000  Uiso   1.00
C614   C     0.84730   0.12700   0.59343   0.00000  Uiso   1.00
C615   C     0.83336   0.16653   0.61657   0.00000  Uiso   1.00
C616   C     0.83334   0.16653   0.88344   0.00000  Uiso   1.00
C617   C     0.83332   0.16622   0.52419   0.00000  Uiso   1.00
C618   C     0.83343   0.16622   0.97583   0.00000  Uiso   1.00
C619   C     0.95722   0.16675   0.74997   0.00000  Uiso   1.00
C620   C     0.70945   0.16658   0.75001   0.00000  Uiso   1.00
Cu621  Cu    0.83333   0.21355   0.75000   0.00000  Uiso   1.00
Cu622  Cu    0.83333   0.11978   0.75000   0.00000  Uiso   1.00
N623   N     0.83333   0.28402   0.75000   0.00000  Uiso   1.00
N624   N     0.83333   0.04931   0.75000   0.00000  Uiso   1.00
O625   O     0.77321   0.20625   0.74999   0.00000  Uiso   1.00
O626   O     0.89345   0.12709   0.75000   0.00000  Uiso   1.00
O627   O     0.89345   0.20625   0.75000   0.00000  Uiso   1.00
O628   O     0.77321   0.12709   0.74999   0.00000  Uiso   1.00
O629   O     0.83333   0.20626   0.68573   0.00000  Uiso   1.00
O630   O     0.83334   0.12707   0.81427   0.00000  Uiso   1.00
O631   O     0.83334   0.20626   0.81427   0.00000  Uiso   1.00
O632   O     0.83333   0.12707   0.68573   0.00000  Uiso   1.00
F633   F     0.78250   0.04780   0.69413   0.00000  Uiso   1.00
F634   F     0.88470   0.28559   0.80528   0.00000  Uiso   1.00
F635   F     0.88461   0.04821   0.80542   0.00000  Uiso   1.00
F636   F     0.78151   0.28518   0.69518   0.00000  Uiso   1.00
H637   H     0.80786   0.23585   0.52949   0.00000  Uiso   1.00
H638   H     0.80840   0.09624   0.96969   0.00000  Uiso   1.00
H639   H     0.85848   0.23621   0.97052   0.00000  Uiso   1.00
H640   H     0.85876   0.09661   0.53035   0.00000  Uiso   1.00
F641   F     0.80492   0.24433   0.61386   0.00000  Uiso   1.00
F642   F     0.80534   0.08828   0.88510   0.00000  Uiso   1.00
F643   F     0.86133   0.24473   0.88615   0.00000  Uiso   1.00
F644   F     0.86185   0.08871   0.61495   0.00000  Uiso   1.00
F645   F     0.70739   0.09258   0.71209   0.00000  Uiso   1.00
F646   F     0.95929   0.24072   0.78793   0.00000  Uiso   1.00
F647   F     0.95797   0.09272   0.71205   0.00000  Uiso   1.00
F648   F     0.70870   0.24062   0.78792   0.00000  Uiso   1.00
C649   C     0.08739   0.49995   0.74996   0.00000  Uiso   1.00
C650   C     0.24594   0.50005   0.75003   0.00000  Uiso   1.00
C651   C     0.16666   0.49998   0.66492   0.00000  Uiso   1.00
C652   C     0.16668   0.49998   0.83508   0.00000  Uiso   1.00
C653   C     0.14117   0.35802   0.72230   0.00000  Uiso   1.00
C654   C     0.19228   0.64200   0.77756   0.00000  Uiso   1.00
C655   C     0.19223   0.35822   0.77763   0.00000  Uiso   1.00
C656   C     0.14098   0.64180   0.72251   0.00000  Uiso   1.00
C657   C     0.02097   0.46224   0.73136   0.00000  Uiso   1.00
C658   C     0.31236   0.53774   0.76863   0.00000  Uiso   1.00
C659   C     0.31172   0.46233   0.73133   0.00000  Uiso   1.00
C660   C     0.02161   0.53767   0.76865   0.00000  Uiso   1.00
C661   C     0.15268   0.53887   0.54711   0.00000  Uiso   1.00
C662   C     0.15303   0.46015   0.95244   0.00000  Uiso   1.00
C663   C     0.18049   0.53907   0.95291   0.00000  Uiso   1.00
C664   C     0.18061   0.46035   0.54759   0.00000  Uiso   1.00
C665   C     0.15272   0.53920   0.59292   0.00000  Uiso   1.00
C666   C     0.15298   0.46013   0.90660   0.00000  Uiso   1.00
C667   C     0.18043   0.53940   0.90709   0.00000  Uiso   1.00
C668   C     0.18064   0.46034   0.59343   0.00000  Uiso   1.00
C669   C     0.16669   0.49986   0.61657   0.00000  Uiso   1.00
C670   C     0.16668   0.49986   0.88344   0.00000  Uiso   1.00
C671   C     0.16665   0.49955   0.52419   0.00000  Uiso   1.00
C672   C     0.16676   0.49955   0.97583   0.00000  Uiso   1.00
C673   C     0.29055   0.50008   0.74997   0.00000  Uiso   1.00
C674   C     0.04279   0.49991   0.75001   0.00000  Uiso   1.00
Cu675  Cu    0.16667   0.54689   0.75000   0.00000  Uiso   1.00
Cu676  Cu    0.16667   0.45311   0.75000   0.00000  Uiso   1.00
N677   N     0.16667   0.61736   0.75000   0.00000  Uiso   1.00
N678   N     0.16667   0.38264   0.75000   0.00000  Uiso   1.00
O679   O     0.10655   0.53958   0.74999   0.00000  Uiso   1.00
O680   O     0.22679   0.46042   0.75000   0.00000  Uiso   1.00
O681   O     0.22679   0.53958   0.75000   0.00000  Uiso   1.00
O682   O     0.10655   0.46042   0.74999   0.00000  Uiso   1.00
O683   O     0.16666   0.53959   0.68573   0.00000  Uiso   1.00
O684   O     0.16667   0.46041   0.81427   0.00000  Uiso   1.00
O685   O     0.16667   0.53959   0.81427   0.00000  Uiso   1.00
O686   O     0.16666   0.46041   0.68573   0.00000  Uiso   1.00
F687   F     0.11584   0.38114   0.69413   0.00000  Uiso   1.00
F688   F     0.21803   0.61893   0.80528   0.00000  Uiso   1.00
F689   F     0.21794   0.38154   0.80542   0.00000  Uiso   1.00
F690   F     0.11485   0.61851   0.69518   0.00000  Uiso   1.00
H691   H     0.14119   0.56919   0.52949   0.00000  Uiso   1.00
H692   H     0.14174   0.42958   0.96969   0.00000  Uiso   1.00
H693   H     0.19181   0.56955   0.97052   0.00000  Uiso   1.00
H694   H     0.19209   0.42994   0.53035   0.00000  Uiso   1.00
F695   F     0.13826   0.57766   0.61386   0.00000  Uiso   1.00
F696   F     0.13867   0.42162   0.88510   0.00000  Uiso   1.00
F697   F     0.19466   0.57807   0.88615   0.00000  Uiso   1.00
F698   F     0.19518   0.42204   0.61495   0.00000  Uiso   1.00
F699   F     0.04072   0.42592   0.71209   0.00000  Uiso   1.00
F700   F     0.29262   0.57405   0.78793   0.00000  Uiso   1.00
F701   F     0.29130   0.42605   0.71205   0.00000  Uiso   1.00
F702   F     0.04203   0.57395   0.78792   0.00000  Uiso   1.00
C703   C     0.42072   0.49995   0.74996   0.00000  Uiso   1.00
C704   C     0.57928   0.50005   0.75003   0.00000  Uiso   1.00
C705   C     0.49999   0.49998   0.66492   0.00000  Uiso   1.00
C706   C     0.50002   0.49998   0.83508   0.00000  Uiso   1.00
C707   C     0.47451   0.35802   0.72230   0.00000  Uiso   1.00
C708   C     0.52561   0.64200   0.77756   0.00000  Uiso   1.00
C709   C     0.52556   0.35822   0.77763   0.00000  Uiso   1.00
C710   C     0.47431   0.64180   0.72251   0.00000  Uiso   1.00
C711   C     0.35431   0.46224   0.73136   0.00000  Uiso   1.00
C712   C     0.64570   0.53774   0.76863   0.00000  Uiso   1.00
C713   C     0.64505   0.46233   0.73133   0.00000  Uiso   1.00
C714   C     0.35495   0.53767   0.76865   0.00000  Uiso   1.00
C715   C     0.48602   0.53887   0.54711   0.00000  Uiso   1.00
C716   C     0.48636   0.46015   0.95244   0.00000  Uiso   1.00
C717   C     0.51382   0.53907   0.95291   0.00000  Uiso   1.00
C718   C     0.51394   0.46035   0.54759   0.00000  Uiso   1.00
C719   C     0.48606   0.53920   0.59292   0.00000  Uiso   1.00
C720   C     0.48632   0.46013   0.90660   0.00000  Uiso   1.00
C721   C     0.51376   0.53940   0.90709   0.00000  Uiso   1.00
C722   C     0.51397   0.46034   0.59343   0.00000  Uiso   1.00
C723   C     0.50002   0.49986   0.61657   0.00000  Uiso   1.00
C724   C     0.50001   0.49986   0.88344   0.00000  Uiso   1.00
C725   C     0.49999   0.49955   0.52419   0.00000  Uiso   1.00
C726   C     0.50009   0.49955   0.97583   0.00000  Uiso   1.00
C727   C     0.62388   0.50008   0.74997   0.00000  Uiso   1.00
C728   C     0.37612   0.49991   0.75001   0.00000  Uiso   1.00
Cu729  Cu    0.50000   0.54689   0.75000   0.00000  Uiso   1.00
Cu730  Cu    0.50000   0.45311   0.75000   0.00000  Uiso   1.00
N731   N     0.50000   0.61736   0.75000   0.00000  Uiso   1.00
N732   N     0.50000   0.38264   0.75000   0.00000  Uiso   1.00
O733   O     0.43988   0.53958   0.74999   0.00000  Uiso   1.00
O734   O     0.56012   0.46042   0.75000   0.00000  Uiso   1.00
O735   O     0.56012   0.53958   0.75000   0.00000  Uiso   1.00
O736   O     0.43988   0.46042   0.74999   0.00000  Uiso   1.00
O737   O     0.50000   0.53959   0.68573   0.00000  Uiso   1.00
O738   O     0.50000   0.46041   0.81427   0.00000  Uiso   1.00
O739   O     0.50000   0.53959   0.81427   0.00000  Uiso   1.00
O740   O     0.50000   0.46041   0.68573   0.00000  Uiso   1.00
F741   F     0.44917   0.38114   0.69413   0.00000  Uiso   1.00
F742   F     0.55136   0.61893   0.80528   0.00000  Uiso   1.00
F743   F     0.55127   0.38154   0.80542   0.00000  Uiso   1.00
F744   F     0.44818   0.61851   0.69518   0.00000  Uiso   1.00
H745   H     0.47452   0.56919   0.52949   0.00000  Uiso   1.00
H746   H     0.47507   0.42958   0.96969   0.00000  Uiso   1.00
H747   H     0.52514   0.56955   0.97052   0.00000  Uiso   1.00
H748   H     0.52543   0.42994   0.53035   0.00000  Uiso   1.00
F749   F     0.47159   0.57766   0.61386   0.00000  Uiso   1.00
F750   F     0.47201   0.42162   0.88510   0.00000  Uiso   1.00
F751   F     0.52799   0.57807   0.88615   0.00000  Uiso   1.00
F752   F     0.52851   0.42204   0.61495   0.00000  Uiso   1.00
F753   F     0.37406   0.42592   0.71209   0.00000  Uiso   1.00
F754   F     0.62596   0.57405   0.78793   0.00000  Uiso   1.00
F755   F     0.62463   0.42605   0.71205   0.00000  Uiso   1.00
F756   F     0.37536   0.57395   0.78792   0.00000  Uiso   1.00
C757   C     0.75406   0.49995   0.74996   0.00000  Uiso   1.00
C758   C     0.91261   0.50005   0.75003   0.00000  Uiso   1.00
C759   C     0.83332   0.49998   0.66492   0.00000  Uiso   1.00
C760   C     0.83335   0.49998   0.83508   0.00000  Uiso   1.00
C761   C     0.80784   0.35802   0.72230   0.00000  Uiso   1.00
C762   C     0.85894   0.64200   0.77756   0.00000  Uiso   1.00
C763   C     0.85889   0.35822   0.77763   0.00000  Uiso   1.00
C764   C     0.80765   0.64180   0.72251   0.00000  Uiso   1.00
C765   C     0.68764   0.46224   0.73136   0.00000  Uiso   1.00
C766   C     0.97903   0.53774   0.76863   0.00000  Uiso   1.00
C767   C     0.97839   0.46233   0.73133   0.00000  Uiso   1.00
C768   C     0.68828   0.53767   0.76865   0.00000  Uiso   1.00
C769   C     0.81935   0.53887   0.54711   0.00000  Uiso   1.00
C770   C     0.81970   0.46015   0.95244   0.00000  Uiso   1.00
C771   C     0.84716   0.53907   0.95291   0.00000  Uiso   1.00
C772   C     0.84728   0.46035   0.54759   0.00000  Uiso   1.00
C773   C     0.81939   0.53920   0.59292   0.00000  Uiso   1.00
C774   C     0.81965   0.46013   0.90660   0.00000  Uiso   1.00
C775   C     0.84710   0.53940   0.90709   0.00000  Uiso   1.00
C776   C     0.84730   0.46034   0.59343   0.00000  Uiso   1.00
C777   C     0.83336   0.49986   0.61657   0.00000  Uiso   1.00
C778   C     0.83334   0.49986   0.88344   0.00000  Uiso   1.00
C779   C     0.83332   0.49955   0.52419   0.00000  Uiso   1.00
C780   C     0.83343   0.49955   0.97583   0.00000  Uiso   1.00
C781   C     0.95722   0.50008   0.74997   0.00000  Uiso   1.00
C782   C     0.70945   0.49991   0.75001   0.00000  Uiso   1.00
Cu783  Cu    0.83333   0.54689   0.75000   0.00000  Uiso   1.00
Cu784  Cu    0.83333   0.45311   0.75000   0.00000  Uiso   1.00
N785   N     0.83333   0.61736   0.75000   0.00000  Uiso   1.00
N786   N     0.83333   0.38264   0.75000   0.00000  Uiso   1.00
O787   O     0.77321   0.53958   0.74999   0.00000  Uiso   1.00
O788   O     0.89345   0.46042   0.75000   0.00000  Uiso   1.00
O789   O     0.89345   0.53958   0.75000   0.00000  Uiso   1.00
O790   O     0.77321   0.46042   0.74999   0.00000  Uiso   1.00
O791   O     0.83333   0.53959   0.68573   0.00000  Uiso   1.00
O792   O     0.83334   0.46041   0.81427   0.00000  Uiso   1.00
O793   O     0.83334   0.53959   0.81427   0.00000  Uiso   1.00
O794   O     0.83333   0.46041   0.68573   0.00000  Uiso   1.00
F795   F     0.78250   0.38114   0.69413   0.00000  Uiso   1.00
F796   F     0.88470   0.61893   0.80528   0.00000  Uiso   1.00
F797   F     0.88461   0.38154   0.80542   0.00000  Uiso   1.00
F798   F     0.78151   0.61851   0.69518   0.00000  Uiso   1.00
H799   H     0.80786   0.56919   0.52949   0.00000  Uiso   1.00
H800   H     0.80840   0.42958   0.96969   0.00000  Uiso   1.00
H801   H     0.85848   0.56955   0.97052   0.00000  Uiso   1.00
H802   H     0.85876   0.42994   0.53035   0.00000  Uiso   1.00
F803   F     0.80492   0.57766   0.61386   0.00000  Uiso   1.00
F804   F     0.80534   0.42162   0.88510   0.00000  Uiso   1.00
F805   F     0.86133   0.57807   0.88615   0.00000  Uiso   1.00
F806   F     0.86185   0.42204   0.61495   0.00000  Uiso   1.00
F807   F     0.70739   0.42592   0.71209   0.00000  Uiso   1.00
F808   F     0.95929   0.57405   0.78793   0.00000  Uiso   1.00
F809   F     0.95797   0.42605   0.71205   0.00000  Uiso   1.00
F810   F     0.70870   0.57395   0.78792   0.00000  Uiso   1.00
C811   C     0.08739   0.83328   0.74996   0.00000  Uiso   1.00
C812   C     0.24594   0.83338   0.75003   0.00000  Uiso   1.00
C813   C     0.16666   0.83332   0.66492   0.00000  Uiso   1.00
C814   C     0.16668   0.83332   0.83508   0.00000  Uiso   1.00
C815   C     0.14117   0.69135   0.72230   0.00000  Uiso   1.00
C816   C     0.19228   0.97534   0.77756   0.00000  Uiso   1.00
C817   C     0.19223   0.69155   0.77763   0.00000  Uiso   1.00
C818   C     0.14098   0.97514   0.72251   0.00000  Uiso   1.00
C819   C     0.02097   0.79558   0.73136   0.00000  Uiso   1.00
C820   C     0.31236   0.87108   0.76863   0.00000  Uiso   1.00
C821   C     0.31172   0.79566   0.73133   0.00000  Uiso   1.00
C822   C     0.02161   0.87100   0.76865   0.00000  Uiso   1.00
C823   C     0.15268   0.87221   0.54711   0.00000  Uiso   1.00
C824   C     0.15303   0.79348   0.95244   0.00000  Uiso   1.00
C825   C     0.18049   0.87240   0.95291   0.00000  Uiso   1.00
C826   C     0.18061   0.79368   0.54759   0.00000  Uiso   1.00
C827   C     0.15272   0.87253   0.59292   0.00000  Uiso   1.00
C828   C     0.15298   0.79347   0.90660   0.00000  Uiso   1.00
C829   C     0.18043   0.87273   0.90709   0.00000  Uiso   1.00
C830   C     0.18064   0.79367   0.59343   0.00000  Uiso   1.00
C831   C     0.16669   0.83320   0.61657   0.00000  Uiso   1.00
C832   C     0.16668   0.83320   0.88344   0.00000  Uiso   1.00
C833   C     0.16665   0.83289   0.52419   0.00000  Uiso   1.00
C834   C     0.16676   0.83289   0.97583   0.00000  Uiso   1.00
C835   C     0.29055   0.83341   0.74997   0.00000  Uiso   1.00
C836   C     0.04279   0.83325   0.75001   0.00000  Uiso   1.00
Cu837  Cu    0.16667   0.88022   0.75000   0.00000  Uiso   1.00
Cu838  Cu    0.16667   0.78645   0.75000   0.00000  Uiso   1.00
N839   N     0.16667   0.95069   0.75000   0.00000  Uiso   1.00
N840   N     0.16667   0.71598   0.75000   0.00000  Uiso   1.00
O841   O     0.10655   0.87291   0.74999   0.00000  Uiso   1.00
O842   O     0.22679   0.79375   0.75000   0.00000  Uiso   1.00
O843   O     0.22679   0.87291   0.75000   0.00000  Uiso   1.00
O844   O     0.10655   0.79375   0.74999   0.00000  Uiso   1.00
O845   O     0.16666   0.87293   0.68573   0.00000  Uiso   1.00
O846   O     0.16667   0.79374   0.81427   0.00000  Uiso   1.00
O847   O     0.16667   0.87293   0.81427   0.00000  Uiso   1.00
O848   O     0.16666   0.79374   0.68573   0.00000  Uiso   1.00
F849   F     0.11584   0.71447   0.69413   0.00000  Uiso   1.00
F850   F     0.21803   0.95226   0.80528   0.00000  Uiso   1.00
F851   F     0.21794   0.71488   0.80542   0.00000  Uiso   1.00
F852   F     0.11485   0.95185   0.69518   0.00000  Uiso   1.00
H853   H     0.14119   0.90252   0.52949   0.00000  Uiso   1.00
H854   H     0.14174   0.76291   0.96969   0.00000  Uiso   1.00
H855   H     0.19181   0.90288   0.97052   0.00000  Uiso   1.00
H856   H     0.19209   0.76328   0.53035   0.00000  Uiso   1.00
F857   F     0.13826   0.91099   0.61386   0.00000  Uiso   1.00
F858   F     0.13867   0.75495   0.88510   0.00000  Uiso   1.00
F859   F     0.19466   0.91140   0.88615   0.00000  Uiso   1.00
F860   F     0.19518   0.75537   0.61495   0.00000  Uiso   1.00
F861   F     0.04072   0.75925   0.71209   0.00000  Uiso   1.00
F862   F     0.29262   0.90739   0.78793   0.00000  Uiso   1.00
F863   F     0.29130   0.75938   0.71205   0.00000  Uiso   1.00
F864   F     0.04203   0.90729   0.78792   0.00000  Uiso   1.00
C865   C     0.42072   0.83328   0.74996   0.00000  Uiso   1.00
C866   C     0.57928   0.83338   0.75003   0.00000  Uiso   1.00
C867   C     0.49999   0.83332   0.66492   0.00000  Uiso   1.00
C868   C     0.50002   0.83332   0.83508   0.00000  Uiso   1.00
C869   C     0.47451   0.69135   0.72230   0.00000  Uiso   1.00
C870   C     0.52561   0.97534   0.77756   0.00000  Uiso   1.00
C871   C     0.52556   0.69155   0.77763   0.00000  Uiso   1.00
C872   C     0.47431   0.97514   0.72251   0.00000  Uiso   1.00
C873   C     0.35431   0.79558   0.73136   0.00000  Uiso   1.00
C874   C     0.64570   0.87108   0.76863   0.00000  Uiso   1.00
C875   C     0.64505   0.79566   0.73133   0.00000  Uiso   1.00
C876   C     0.35495   0.87100   0.76865   0.00000  Uiso   1.00
C877   C     0.48602   0.87221   0.54711   0.00000  Uiso   1.00
C878   C     0.48636   0.79348   0.95244   0.00000  Uiso   1.00
C879   C     0.51382   0.87240   0.95291   0.00000  Uiso   1.00
C880   C     0.51394   0.79368   0.54759   0.00000  Uiso   1.00
C881   C     0.48606   0.87253   0.59292   0.00000  Uiso   1.00
C882   C     0.48632   0.79347   0.90660   0.00000  Uiso   1.00
C883   C     0.51376   0.87273   0.90709   0.00000  Uiso   1.00
C884   C     0.51397   0.79367   0.59343   0.00000  Uiso   1.00
C885   C     0.50002   0.83320   0.61657   0.00000  Uiso   1.00
C886   C     0.50001   0.83320   0.88344   0.00000  Uiso   1.00
C887   C     0.49999   0.83289   0.52419   0.00000  Uiso   1.00
C888   C     0.50009   0.83289   0.97583   0.00000  Uiso   1.00
C889   C     0.62388   0.83341   0.74997   0.00000  Uiso   1.00
C890   C     0.37612   0.83325   0.75001   0.00000  Uiso   1.00
Cu891  Cu    0.50000   0.88022   0.75000   0.00000  Uiso   1.00
Cu892  Cu    0.50000   0.78645   0.75000   0.00000  Uiso   1.00
N893   N     0.50000   0.95069   0.75000   0.00000  Uiso   1.00
N894   N     0.50000   0.71598   0.75000   0.00000  Uiso   1.00
O895   O     0.43988   0.87291   0.74999   0.00000  Uiso   1.00
O896   O     0.56012   0.79375   0.75000   0.00000  Uiso   1.00
O897   O     0.56012   0.87291   0.75000   0.00000  Uiso   1.00
O898   O     0.43988   0.79375   0.74999   0.00000  Uiso   1.00
O899   O     0.50000   0.87293   0.68573   0.00000  Uiso   1.00
O900   O     0.50000   0.79374   0.81427   0.00000  Uiso   1.00
O901   O     0.50000   0.87293   0.81427   0.00000  Uiso   1.00
O902   O     0.50000   0.79374   0.68573   0.00000  Uiso   1.00
F903   F     0.44917   0.71447   0.69413   0.00000  Uiso   1.00
F904   F     0.55136   0.95226   0.80528   0.00000  Uiso   1.00
F905   F     0.55127   0.71488   0.80542   0.00000  Uiso   1.00
F906   F     0.44818   0.95185   0.69518   0.00000  Uiso   1.00
H907   H     0.47452   0.90252   0.52949   0.00000  Uiso   1.00
H908   H     0.47507   0.76291   0.96969   0.00000  Uiso   1.00
H909   H     0.52514   0.90288   0.97052   0.00000  Uiso   1.00
H910   H     0.52543   0.76328   0.53035   0.00000  Uiso   1.00
F911   F     0.47159   0.91099   0.61386   0.00000  Uiso   1.00
F912   F     0.47201   0.75495   0.88510   0.00000  Uiso   1.00
F913   F     0.52799   0.91140   0.88615   0.00000  Uiso   1.00
F914   F     0.52851   0.75537   0.61495   0.00000  Uiso   1.00
F915   F     0.37406   0.75925   0.71209   0.00000  Uiso   1.00
F916   F     0.62596   0.90739   0.78793   0.00000  Uiso   1.00
F917   F     0.62463   0.75938   0.71205   0.00000  Uiso   1.00
F918   F     0.37536   0.90729   0.78792   0.00000  Uiso   1.00
C919   C     0.75406   0.83328   0.74996   0.00000  Uiso   1.00
C920   C     0.91261   0.83338   0.75003   0.00000  Uiso   1.00
C921   C     0.83332   0.83332   0.66492   0.00000  Uiso   1.00
C922   C     0.83335   0.83332   0.83508   0.00000  Uiso   1.00
C923   C     0.80784   0.69135   0.72230   0.00000  Uiso   1.00
C924   C     0.85894   0.97534   0.77756   0.00000  Uiso   1.00
C925   C     0.85889   0.69155   0.77763   0.00000  Uiso   1.00
C926   C     0.80765   0.97514   0.72251   0.00000  Uiso   1.00
C927   C     0.68764   0.79558   0.73136   0.00000  Uiso   1.00
C928   C     0.97903   0.87108   0.76863   0.00000  Uiso   1.00
C929   C     0.97839   0.79566   0.73133   0.00000  Uiso   1.00
C930   C     0.68828   0.87100   0.76865   0.00000  Uiso   1.00
C931   C     0.81935   0.87221   0.54711   0.00000  Uiso   1.00
C932   C     0.81970   0.79348   0.95244   0.00000  Uiso   1.00
C933   C     0.84716   0.87240   0.95291   0.00000  Uiso   1.00
C934   C     0.84728   0.79368   0.54759   0.00000  Uiso   1.00
C935   C     0.81939   0.87253   0.59292   0.00000  Uiso   1.00
C936   C     0.81965   0.79347   0.90660   0.00000  Uiso   1.00
C937   C     0.84710   0.87273   0.90709   0.00000  Uiso   1.00
C938   C     0.84730   0.79367   0.59343   0.00000  Uiso   1.00
C939   C     0.83336   0.83320   0.61657   0.00000  Uiso   1.00
C940   C     0.83334   0.83320   0.88344   0.00000  Uiso   1.00
C941   C     0.83332   0.83289   0.52419   0.00000  Uiso   1.00
C942   C     0.83343   0.83289   0.97583   0.00000  Uiso   1.00
C943   C     0.95722   0.83341   0.74997   0.00000  Uiso   1.00
C944   C     0.70945   0.83325   0.75001   0.00000  Uiso   1.00
Cu945  Cu    0.83333   0.88022   0.75000   0.00000  Uiso   1.00
Cu946  Cu    0.83333   0.78645   0.75000   0.00000  Uiso   1.00
N947   N     0.83333   0.95069   0.75000   0.00000  Uiso   1.00
N948   N     0.83333   0.71598   0.75000   0.00000  Uiso   1.00
O949   O     0.77321   0.87291   0.74999   0.00000  Uiso   1.00
O950   O     0.89345   0.79375   0.75000   0.00000  Uiso   1.00
O951   O     0.89345   0.87291   0.75000   0.00000  Uiso   1.00
O952   O     0.77321   0.79375   0.74999   0.00000  Uiso   1.00
O953   O     0.83333   0.87293   0.68573   0.00000  Uiso   1.00
O954   O     0.83334   0.79374   0.81427   0.00000  Uiso   1.00
O955   O     0.83334   0.87293   0.81427   0.00000  Uiso   1.00
O956   O     0.83333   0.79374   0.68573   0.00000  Uiso   1.00
F957   F     0.78250   0.71447   0.69413   0.00000  Uiso   1.00
F958   F     0.88470   0.95226   0.80528   0.00000  Uiso   1.00
F959   F     0.88461   0.71488   0.80542   0.00000  Uiso   1.00
F960   F     0.78151   0.95185   0.69518   0.00000  Uiso   1.00
H961   H     0.80786   0.90252   0.52949   0.00000  Uiso   1.00
H962   H     0.80840   0.76291   0.96969   0.00000  Uiso   1.00
H963   H     0.85848   0.90288   0.97052   0.00000  Uiso   1.00
H964   H     0.85876   0.76328   0.53035   0.00000  Uiso   1.00
F965   F     0.80492   0.91099   0.61386   0.00000  Uiso   1.00
F966   F     0.80534   0.75495   0.88510   0.00000  Uiso   1.00
F967   F     0.86133   0.91140   0.88615   0.00000  Uiso   1.00
F968   F     0.86185   0.75537   0.61495   0.00000  Uiso   1.00
F969   F     0.70739   0.75925   0.71209   0.00000  Uiso   1.00
F970   F     0.95929   0.90739   0.78793   0.00000  Uiso   1.00
F971   F     0.95797   0.75938   0.71205   0.00000  Uiso   1.00
F972   F     0.70870   0.90729   0.78792   0.00000  Uiso   1.00
loop_
_geom_bond_atom_site_label_1
_geom_bond_atom_site_label_2
_geom_bond_distance
_geom_bond_site_symmetry_2
_ccdc_geom_bond_type
C1     O34     1.292   .     A
C1     O31     1.291   .     A
C1     C26     1.450   .     S
C2     C25     1.450   .     S
C2     O33     1.292   .     A
C2     O32     1.291   .     A
C3     O35     1.296   .     A
C3     C21     1.466   .     S
C3     O38     1.295   .     A
C4     O36     1.295   .     A
C4     C22     1.467   .     S
C4     O37     1.296   .     A
C5     N30     1.368   .     A
C5     F39     1.354   .     S
C5     C332    1.416   1_545 S
C6     N29     1.368   .     A
C6     F40     1.354   .     S
C6     C169    1.416   .     S
C7     N30     1.367   .     A
C7     F41     1.355   .     S
C7     C330    1.416   1_545 S
C8     N29     1.368   .     A
C8     F42     1.355   .     S
C8     C167    1.416   .     S
C9     C26     1.403   .     A
C9     F51     1.358   .     S
C9     C119    1.385   1_455 S
C10    F52     1.357   .     S
C10    C25     1.403   .     A
C10    C66     1.385   .     S
C11    F53     1.359   .     S
C11    C25     1.403   .     A
C11    C63     1.385   .     S
C12    F54     1.359   .     S
C12    C26     1.403   .     A
C12    C118    1.385   1_455 S
C13    C17     1.389   .     A
C13    C23     1.400   .     A
C13    H43     1.083   .     S
C14    H44     1.083   .     S
C14    C24     1.401   .     A
C14    C18     1.390   .     A
C15    C19     1.389   .     A
C15    C24     1.400   .     A
C15    H45     1.083   .     S
C16    C20     1.390   .     A
C16    C23     1.401   .     A
C16    H46     1.083   .     S
C17    C21     1.408   .     A
C17    F47     1.357   .     S
C18    F48     1.358   .     S
C18    C22     1.408   .     A
C19    F49     1.357   .     S
C19    C22     1.408   .     A
C20    C21     1.408   .     A
C20    F50     1.358   .     S
C23    C510    1.466   1_554 S
C24    C509    1.466   .     S
Cu27   O33     1.966   .     S
Cu27   O37     1.960   .     S
Cu27   N29     2.014   .     S
Cu27   O31     1.965   .     S
Cu27   Cu28    2.680   .     S
Cu27   O35     1.960   .     S
Cu28   N30     2.014   .     S
Cu28   O34     1.966   .     S
Cu28   O36     1.960   .     S
Cu28   O38     1.960   .     S
Cu28   O32     1.965   .     S
C55    O88     1.292   .     A
C55    O85     1.291   .     A
C55    C80     1.450   .     S
C56    C79     1.450   .     S
C56    O87     1.292   .     A
C56    O86     1.291   .     A
C57    O89     1.296   .     A
C57    C75     1.466   .     S
C57    O92     1.295   .     A
C58    O90     1.295   .     A
C58    C76     1.467   .     S
C58    O91     1.296   .     A
C59    N84     1.368   .     A
C59    F93     1.354   .     S
C59    C386    1.416   1_545 S
C60    N83     1.368   .     A
C60    F94     1.354   .     S
C60    C223    1.416   .     S
C61    N84     1.367   .     A
C61    F95     1.355   .     S
C61    C384    1.416   1_545 S
C62    N83     1.368   .     A
C62    F96     1.355   .     S
C62    C221    1.416   .     S
C63    C80     1.403   .     A
C63    F105    1.358   .     S
C64    F106    1.357   .     S
C64    C79     1.403   .     A
C64    C120    1.385   .     S
C65    F107    1.359   .     S
C65    C79     1.403   .     A
C65    C117    1.385   .     S
C66    F108    1.359   .     S
C66    C80     1.403   .     A
C67    C71     1.389   .     A
C67    C77     1.400   .     A
C67    H97     1.083   .     S
C68    H98     1.083   .     S
C68    C78     1.401   .     A
C68    C72     1.390   .     A
C69    C73     1.389   .     A
C69    C78     1.400   .     A
C69    H99     1.083   .     S
C70    C74     1.390   .     A
C70    C77     1.401   .     A
C70    H100    1.083   .     S
C71    C75     1.408   .     A
C71    F101    1.357   .     S
C72    F102    1.358   .     S
C72    C76     1.408   .     A
C73    F103    1.357   .     S
C73    C76     1.408   .     A
C74    C75     1.408   .     A
C74    F104    1.358   .     S
C77    C564    1.466   1_554 S
C78    C563    1.466   .     S
Cu81   O87     1.966   .     S
Cu81   O91     1.960   .     S
Cu81   N83     2.014   .     S
Cu81   O85     1.965   .     S
Cu81   Cu82    2.680   .     S
Cu81   O89     1.960   .     S
Cu82   N84     2.014   .     S
Cu82   O88     1.966   .     S
Cu82   O90     1.960   .     S
Cu82   O92     1.960   .     S
Cu82   O86     1.965   .     S
C109   O142    1.292   .     A
C109   O139    1.291   .     A
C109   C134    1.450   .     S
C110   C133    1.450   .     S
C110   O141    1.292   .     A
C110   O140    1.291   .     A
C111   O143    1.296   .     A
C111   C129    1.466   .     S
C111   O146    1.295   .     A
C112   O144    1.295   .     A
C112   C130    1.467   .     S
C112   O145    1.296   .     A
C113   N138    1.368   .     A
C113   F147    1.354   .     S
C113   C440    1.416   1_545 S
C114   N137    1.368   .     A
C114   F148    1.354   .     S
C114   C277    1.416   .     S
C115   N138    1.367   .     A
C115   F149    1.355   .     S
C115   C438    1.416   1_545 S
C116   N137    1.368   .     A
C116   F150    1.355   .     S
C116   C275    1.416   .     S
C117   C134    1.403   .     A
C117   F159    1.358   .     S
C118   F160    1.357   .     S
C118   C133    1.403   .     A
C118   C12     1.385   1_655 S
C119   F161    1.359   .     S
C119   C133    1.403   .     A
C119   C9      1.385   1_655 S
C120   F162    1.359   .     S
C120   C134    1.403   .     A
C121   C125    1.389   .     A
C121   C131    1.400   .     A
C121   H151    1.083   .     S
C122   H152    1.083   .     S
C122   C132    1.401   .     A
C122   C126    1.390   .     A
C123   C127    1.389   .     A
C123   C132    1.400   .     A
C123   H153    1.083   .     S
C124   C128    1.390   .     A
C124   C131    1.401   .     A
C124   H154    1.083   .     S
C125   C129    1.408   .     A
C125   F155    1.357   .     S
C126   F156    1.358   .     S
C126   C130    1.408   .     A
C127   F157    1.357   .     S
C127   C130    1.408   .     A
C128   C129    1.408   .     A
C128   F158    1.358   .     S
C131   C618    1.466   1_554 S
C132   C617    1.466   .     S
Cu135  O141    1.966   .     S
Cu135  O145    1.960   .     S
Cu135  N137    2.014   .     S
Cu135  O139    1.965   .     S
Cu135  Cu136   2.680   .     S
Cu135  O143    1.960   .     S
Cu136  N138    2.014   .     S
Cu136  O142    1.966   .     S
Cu136  O144    1.960   .     S
Cu136  O146    1.960   .     S
Cu136  O140    1.965   .     S
C163   O196    1.292   .     A
C163   O193    1.291   .     A
C163   C188    1.450   .     S
C164   C187    1.450   .     S
C164   O195    1.292   .     A
C164   O194    1.291   .     A
C165   O197    1.296   .     A
C165   C183    1.466   .     S
C165   O200    1.295   .     A
C166   O198    1.295   .     A
C166   C184    1.467   .     S
C166   O199    1.296   .     A
C167   N192    1.368   .     A
C167   F201    1.354   .     S
C168   N191    1.368   .     A
C168   F202    1.354   .     S
C168   C331    1.416   .     S
C169   N192    1.367   .     A
C169   F203    1.355   .     S
C170   N191    1.368   .     A
C170   F204    1.355   .     S
C170   C329    1.416   .     S
C171   C188    1.403   .     A
C171   F213    1.358   .     S
C171   C281    1.385   1_455 S
C172   F214    1.357   .     S
C172   C187    1.403   .     A
C172   C228    1.385   .     S
C173   F215    1.359   .     S
C173   C187    1.403   .     A
C173   C225    1.385   .     S
C174   F216    1.359   .     S
C174   C188    1.403   .     A
C174   C280    1.385   1_455 S
C175   C179    1.389   .     A
C175   C185    1.400   .     A
C175   H205    1.083   .     S
C176   H206    1.083   .     S
C176   C186    1.401   .     A
C176   C180    1.390   .     A
C177   C181    1.389   .     A
C177   C186    1.400   .     A
C177   H207    1.083   .     S
C178   C182    1.390   .     A
C178   C185    1.401   .     A
C178   H208    1.083   .     S
C179   C183    1.408   .     A
C179   F209    1.357   .     S
C180   F210    1.358   .     S
C180   C184    1.408   .     A
C181   F211    1.357   .     S
C181   C184    1.408   .     A
C182   C183    1.408   .     A
C182   F212    1.358   .     S
C185   C672    1.466   1_554 S
C186   C671    1.466   .     S
Cu189  O195    1.966   .     S
Cu189  O199    1.960   .     S
Cu189  N191    2.014   .     S
Cu189  O193    1.965   .     S
Cu189  Cu190   2.680   .     S
Cu189  O197    1.960   .     S
Cu190  N192    2.014   .     S
Cu190  O196    1.966   .     S
Cu190  O198    1.960   .     S
Cu190  O200    1.960   .     S
Cu190  O194    1.965   .     S
C217   O250    1.292   .     A
C217   O247    1.291   .     A
C217   C242    1.450   .     S
C218   C241    1.450   .     S
C218   O249    1.292   .     A
C218   O248    1.291   .     A
C219   O251    1.296   .     A
C219   C237    1.466   .     S
C219   O254    1.295   .     A
C220   O252    1.295   .     A
C220   C238    1.467   .     S
C220   O253    1.296   .     A
C221   N246    1.368   .     A
C221   F255    1.354   .     S
C222   N245    1.368   .     A
C222   F256    1.354   .     S
C222   C385    1.416   .     S
C223   N246    1.367   .     A
C223   F257    1.355   .     S
C224   N245    1.368   .     A
C224   F258    1.355   .     S
C224   C383    1.416   .     S
C225   C242    1.403   .     A
C225   F267    1.358   .     S
C226   F268    1.357   .     S
C226   C241    1.403   .     A
C226   C282    1.385   .     S
C227   F269    1.359   .     S
C227   C241    1.403   .     A
C227   C279    1.385   .     S
C228   F270    1.359   .     S
C228   C242    1.403   .     A
C229   C233    1.389   .     A
C229   C239    1.400   .     A
C229   H259    1.083   .     S
C230   H260    1.083   .     S
C230   C240    1.401   .     A
C230   C234    1.390   .     A
C231   C235    1.389   .     A
C231   C240    1.400   .     A
C231   H261    1.083   .     S
C232   C236    1.390   .     A
C232   C239    1.401   .     A
C232   H262    1.083   .     S
C233   C237    1.408   .     A
C233   F263    1.357   .     S
C234   F264    1.358   .     S
C234   C238    1.408   .     A
C235   F265    1.357   .     S
C235   C238    1.408   .     A
C236   C237    1.408   .     A
C236   F266    1.358   .     S
C239   C726    1.466   1_554 S
C240   C725    1.466   .     S
Cu243  O249    1.966   .     S
Cu243  O253    1.960   .     S
Cu243  N245    2.014   .     S
Cu243  O247    1.965   .     S
Cu243  Cu244   2.680   .     S
Cu243  O251    1.960   .     S
Cu244  N246    2.014   .     S
Cu244  O250    1.966   .     S
Cu244  O252    1.960   .     S
Cu244  O254    1.960   .     S
Cu244  O248    1.965   .     S
C271   O304    1.292   .     A
C271   O301    1.291   .     A
C271   C296    1.450   .     S
C272   C295    1.450   .     S
C272   O303    1.292   .     A
C272   O302    1.291   .     A
C273   O305    1.296   .     A
C273   C291    1.466   .     S
C273   O308    1.295   .     A
C274   O306    1.295   .     A
C274   C292    1.467   .     S
C274   O307    1.296   .     A
C275   N300    1.368   .     A
C275   F309    1.354   .     S
C276   N299    1.368   .     A
C276   F310    1.354   .     S
C276   C439    1.416   .     S
C277   N300    1.367   .     A
C277   F311    1.355   .     S
C278   N299    1.368   .     A
C278   F312    1.355   .     S
C278   C437    1.416   .     S
C279   C296    1.403   .     A
C279   F321    1.358   .     S
C280   F322    1.357   .     S
C280   C295    1.403   .     A
C280   C174    1.385   1_655 S
C281   F323    1.359   .     S
C281   C295    1.403   .     A
C281   C171    1.385   1_655 S
C282   F324    1.359   .     S
C282   C296    1.403   .     A
C283   C287    1.389   .     A
C283   C293    1.400   .     A
C283   H313    1.083   .     S
C284   H314    1.083   .     S
C284   C294    1.401   .     A
C284   C288    1.390   .     A
C285   C289    1.389   .     A
C285   C294    1.400   .     A
C285   H315    1.083   .     S
C286   C290    1.390   .     A
C286   C293    1.401   .     A
C286   H316    1.083   .     S
C287   C291    1.408   .     A
C287   F317    1.357   .     S
C288   F318    1.358   .     S
C288   C292    1.408   .     A
C289   F319    1.357   .     S
C289   C292    1.408   .     A
C290   C291    1.408   .     A
C290   F320    1.358   .     S
C293   C780    1.466   1_554 S
C294   C779    1.466   .     S
Cu297  O303    1.966   .     S
Cu297  O307    1.960   .     S
Cu297  N299    2.014   .     S
Cu297  O301    1.965   .     S
Cu297  Cu298   2.680   .     S
Cu297  O305    1.960   .     S
Cu298  N300    2.014   .     S
Cu298  O304    1.966   .     S
Cu298  O306    1.960   .     S
Cu298  O308    1.960   .     S
Cu298  O302    1.965   .     S
C325   O358    1.292   .     A
C325   O355    1.291   .     A
C325   C350    1.450   .     S
C326   C349    1.450   .     S
C326   O357    1.292   .     A
C326   O356    1.291   .     A
C327   O359    1.296   .     A
C327   C345    1.466   .     S
C327   O362    1.295   .     A
C328   O360    1.295   .     A
C328   C346    1.467   .     S
C328   O361    1.296   .     A
C329   N354    1.368   .     A
C329   F363    1.354   .     S
C330   N353    1.368   .     A
C330   F364    1.354   .     S
C330   C7      1.416   1_565 S
C331   N354    1.367   .     A
C331   F365    1.355   .     S
C332   N353    1.368   .     A
C332   F366    1.355   .     S
C332   C5      1.416   1_565 S
C333   C350    1.403   .     A
C333   F375    1.358   .     S
C333   C443    1.385   1_455 S
C334   F376    1.357   .     S
C334   C349    1.403   .     A
C334   C390    1.385   .     S
C335   F377    1.359   .     S
C335   C349    1.403   .     A
C335   C387    1.385   .     S
C336   F378    1.359   .     S
C336   C350    1.403   .     A
C336   C442    1.385   1_455 S
C337   C341    1.389   .     A
C337   C347    1.400   .     A
C337   H367    1.083   .     S
C338   H368    1.083   .     S
C338   C348    1.401   .     A
C338   C342    1.390   .     A
C339   C343    1.389   .     A
C339   C348    1.400   .     A
C339   H369    1.083   .     S
C340   C344    1.390   .     A
C340   C347    1.401   .     A
C340   H370    1.083   .     S
C341   C345    1.408   .     A
C341   F371    1.357   .     S
C342   F372    1.358   .     S
C342   C346    1.408   .     A
C343   F373    1.357   .     S
C343   C346    1.408   .     A
C344   C345    1.408   .     A
C344   F374    1.358   .     S
C347   C834    1.466   1_554 S
C348   C833    1.466   .     S
Cu351  O357    1.966   .     S
Cu351  O361    1.960   .     S
Cu351  N353    2.014   .     S
Cu351  O355    1.965   .     S
Cu351  Cu352   2.680   .     S
Cu351  O359    1.960   .     S
Cu352  N354    2.014   .     S
Cu352  O358    1.966   .     S
Cu352  O360    1.960   .     S
Cu352  O362    1.960   .     S
Cu352  O356    1.965   .     S
C379   O412    1.292   .     A
C379   O409    1.291   .     A
C379   C404    1.450   .     S
C380   C403    1.450   .     S
C380   O411    1.292   .     A
C380   O410    1.291   .     A
C381   O413    1.296   .     A
C381   C399    1.466   .     S
C381   O416    1.295   .     A
C382   O414    1.295   .     A
C382   C400    1.467   .     S
C382   O415    1.296   .     A
C383   N408    1.368   .     A
C383   F417    1.354   .     S
C384   N407    1.368   .     A
C384   F418    1.354   .     S
C384   C61     1.416   1_565 S
C385   N408    1.367   .     A
C385   F419    1.355   .     S
C386   N407    1.368   .     A
C386   F420    1.355   .     S
C386   C59     1.416   1_565 S
C387   C404    1.403   .     A
C387   F429    1.358   .     S
C388   F430    1.357   .     S
C388   C403    1.403   .     A
C388   C444    1.385   .     S
C389   F431    1.359   .     S
C389   C403    1.403   .     A
C389   C441    1.385   .     S
C390   F432    1.359   .     S
C390   C404    1.403   .     A
C391   C395    1.389   .     A
C391   C401    1.400   .     A
C391   H421    1.083   .     S
C392   H422    1.083   .     S
C392   C402    1.401   .     A
C392   C396    1.390   .     A
C393   C397    1.389   .     A
C393   C402    1.400   .     A
C393   H423    1.083   .     S
C394   C398    1.390   .     A
C394   C401    1.401   .     A
C394   H424    1.083   .     S
C395   C399    1.408   .     A
C395   F425    1.357   .     S
C396   F426    1.358   .     S
C396   C400    1.408   .     A
C397   F427    1.357   .     S
C397   C400    1.408   .     A
C398   C399    1.408   .     A
C398   F428    1.358   .     S
C401   C888    1.466   1_554 S
C402   C887    1.466   .     S
Cu405  O411    1.966   .     S
Cu405  O415    1.960   .     S
Cu405  N407    2.014   .     S
Cu405  O409    1.965   .     S
Cu405  Cu406   2.680   .     S
Cu405  O413    1.960   .     S
Cu406  N408    2.014   .     S
Cu406  O412    1.966   .     S
Cu406  O414    1.960   .     S
Cu406  O416    1.960   .     S
Cu406  O410    1.965   .     S
C433   O466    1.292   .     A
C433   O463    1.291   .     A
C433   C458    1.450   .     S
C434   C457    1.450   .     S
C434   O465    1.292   .     A
C434   O464    1.291   .     A
C435   O467    1.296   .     A
C435   C453    1.466   .     S
C435   O470    1.295   .     A
C436   O468    1.295   .     A
C436   C454    1.467   .     S
C436   O469    1.296   .     A
C437   N462    1.368   .     A
C437   F471    1.354   .     S
C438   N461    1.368   .     A
C438   F472    1.354   .     S
C438   C115    1.416   1_565 S
C439   N462    1.367   .     A
C439   F473    1.355   .     S
C440   N461    1.368   .     A
C440   F474    1.355   .     S
C440   C113    1.416   1_565 S
C441   C458    1.403   .     A
C441   F483    1.358   .     S
C442   F484    1.357   .     S
C442   C457    1.403   .     A
C442   C336    1.385   1_655 S
C443   F485    1.359   .     S
C443   C457    1.403   .     A
C443   C333    1.385   1_655 S
C444   F486    1.359   .     S
C444   C458    1.403   .     A
C445   C449    1.389   .     A
C445   C455    1.400   .     A
C445   H475    1.083   .     S
C446   H476    1.083   .     S
C446   C456    1.401   .     A
C446   C450    1.390   .     A
C447   C451    1.389   .     A
C447   C456    1.400   .     A
C447   H477    1.083   .     S
C448   C452    1.390   .     A
C448   C455    1.401   .     A
C448   H478    1.083   .     S
C449   C453    1.408   .     A
C449   F479    1.357   .     S
C450   F480    1.358   .     S
C450   C454    1.408   .     A
C451   F481    1.357   .     S
C451   C454    1.408   .     A
C452   C453    1.408   .     A
C452   F482    1.358   .     S
C455   C942    1.466   1_554 S
C456   C941    1.466   .     S
Cu459  O465    1.966   .     S
Cu459  O469    1.960   .     S
Cu459  N461    2.014   .     S
Cu459  O463    1.965   .     S
Cu459  Cu460   2.680   .     S
Cu459  O467    1.960   .     S
Cu460  N462    2.014   .     S
Cu460  O466    1.966   .     S
Cu460  O468    1.960   .     S
Cu460  O470    1.960   .     S
Cu460  O464    1.965   .     S
C487   O520    1.292   .     A
C487   O517    1.291   .     A
C487   C512    1.450   .     S
C488   C511    1.450   .     S
C488   O519    1.292   .     A
C488   O518    1.291   .     A
C489   O521    1.296   .     A
C489   C507    1.466   .     S
C489   O524    1.295   .     A
C490   O522    1.295   .     A
C490   C508    1.467   .     S
C490   O523    1.296   .     A
C491   N516    1.368   .     A
C491   F525    1.354   .     S
C491   C818    1.416   1_545 S
C492   N515    1.368   .     A
C492   F526    1.354   .     S
C492   C655    1.416   .     S
C493   N516    1.367   .     A
C493   F527    1.355   .     S
C493   C816    1.416   1_545 S
C494   N515    1.368   .     A
C494   F528    1.355   .     S
C494   C653    1.416   .     S
C495   C512    1.403   .     A
C495   F537    1.358   .     S
C495   C605    1.385   1_455 S
C496   F538    1.357   .     S
C496   C511    1.403   .     A
C496   C552    1.385   .     S
C497   F539    1.359   .     S
C497   C511    1.403   .     A
C497   C549    1.385   .     S
C498   F540    1.359   .     S
C498   C512    1.403   .     A
C498   C604    1.385   1_455 S
C499   C503    1.389   .     A
C499   C509    1.400   .     A
C499   H529    1.083   .     S
C500   H530    1.083   .     S
C500   C510    1.401   .     A
C500   C504    1.390   .     A
C501   C505    1.389   .     A
C501   C510    1.400   .     A
C501   H531    1.083   .     S
C502   C506    1.390   .     A
C502   C509    1.401   .     A
C502   H532    1.083   .     S
C503   C507    1.408   .     A
C503   F533    1.357   .     S
C504   F534    1.358   .     S
C504   C508    1.408   .     A
C505   F535    1.357   .     S
C505   C508    1.408   .     A
C506   C507    1.408   .     A
C506   F536    1.358   .     S
C510   C23     1.466   1_556 S
Cu513  O519    1.966   .     S
Cu513  O523    1.960   .     S
Cu513  N515    2.014   .     S
Cu513  O517    1.965   .     S
Cu513  Cu514   2.680   .     S
Cu513  O521    1.960   .     S
Cu514  N516    2.014   .     S
Cu514  O520    1.966   .     S
Cu514  O522    1.960   .     S
Cu514  O524    1.960   .     S
Cu514  O518    1.965   .     S
C541   O574    1.292   .     A
C541   O571    1.291   .     A
C541   C566    1.450   .     S
C542   C565    1.450   .     S
C542   O573    1.292   .     A
C542   O572    1.291   .     A
C543   O575    1.296   .     A
C543   C561    1.466   .     S
C543   O578    1.295   .     A
C544   O576    1.295   .     A
C544   C562    1.467   .     S
C544   O577    1.296   .     A
C545   N570    1.368   .     A
C545   F579    1.354   .     S
C545   C872    1.416   1_545 S
C546   N569    1.368   .     A
C546   F580    1.354   .     S
C546   C709    1.416   .     S
C547   N570    1.367   .     A
C547   F581    1.355   .     S
C547   C870    1.416   1_545 S
C548   N569    1.368   .     A
C548   F582    1.355   .     S
C548   C707    1.416   .     S
C549   C566    1.403   .     A
C549   F591    1.358   .     S
C550   F592    1.357   .     S
C550   C565    1.403   .     A
C550   C606    1.385   .     S
C551   F593    1.359   .     S
C551   C565    1.403   .     A
C551   C603    1.385   .     S
C552   F594    1.359   .     S
C552   C566    1.403   .     A
C553   C557    1.389   .     A
C553   C563    1.400   .     A
C553   H583    1.083   .     S
C554   H584    1.083   .     S
C554   C564    1.401   .     A
C554   C558    1.390   .     A
C555   C559    1.389   .     A
C555   C564    1.400   .     A
C555   H585    1.083   .     S
C556   C560    1.390   .     A
C556   C563    1.401   .     A
C556   H586    1.083   .     S
C557   C561    1.408   .     A
C557   F587    1.357   .     S
C558   F588    1.358   .     S
C558   C562    1.408   .     A
C559   F589    1.357   .     S
C559   C562    1.408   .     A
C560   C561    1.408   .     A
C560   F590    1.358   .     S
C564   C77     1.466   1_556 S
Cu567  O573    1.966   .     S
Cu567  O577    1.960   .     S
Cu567  N569    2.014   .     S
Cu567  O571    1.965   .     S
Cu567  Cu568   2.680   .     S
Cu567  O575    1.960   .     S
Cu568  N570    2.014   .     S
Cu568  O574    1.966   .     S
Cu568  O576    1.960   .     S
Cu568  O578    1.960   .     S
Cu568  O572    1.965   .     S
C595   O628    1.292   .     A
C595   O625    1.291   .     A
C595   C620    1.450   .     S
C596   C619    1.450   .     S
C596   O627    1.292   .     A
C596   O626    1.291   .     A
C597   O629    1.296   .     A
C597   C615    1.466   .     S
C597   O632    1.295   .     A
C598   O630    1.295   .     A
C598   C616    1.467   .     S
C598   O631    1.296   .     A
C599   N624    1.368   .     A
C599   F633    1.354   .     S
C599   C926    1.416   1_545 S
C600   N623    1.368   .     A
C600   F634    1.354   .     S
C600   C763    1.416   .     S
C601   N624    1.367   .     A
C601   F635    1.355   .     S
C601   C924    1.416   1_545 S
C602   N623    1.368   .     A
C602   F636    1.355   .     S
C602   C761    1.416   .     S
C603   C620    1.403   .     A
C603   F645    1.358   .     S
C604   F646    1.357   .     S
C604   C619    1.403   .     A
C604   C498    1.385   1_655 S
C605   F647    1.359   .     S
C605   C619    1.403   .     A
C605   C495    1.385   1_655 S
C606   F648    1.359   .     S
C606   C620    1.403   .     A
C607   C611    1.389   .     A
C607   C617    1.400   .     A
C607   H637    1.083   .     S
C608   H638    1.083   .     S
C608   C618    1.401   .     A
C608   C612    1.390   .     A
C609   C613    1.389   .     A
C609   C618    1.400   .     A
C609   H639    1.083   .     S
C610   C614    1.390   .     A
C610   C617    1.401   .     A
C610   H640    1.083   .     S
C611   C615    1.408   .     A
C611   F641    1.357   .     S
C612   F642    1.358   .     S
C612   C616    1.408   .     A
C613   F643    1.357   .     S
C613   C616    1.408   .     A
C614   C615    1.408   .     A
C614   F644    1.358   .     S
C618   C131    1.466   1_556 S
Cu621  O627    1.966   .     S
Cu621  O631    1.960   .     S
Cu621  N623    2.014   .     S
Cu621  O625    1.965   .     S
Cu621  Cu622   2.680   .     S
Cu621  O629    1.960   .     S
Cu622  N624    2.014   .     S
Cu622  O628    1.966   .     S
Cu622  O630    1.960   .     S
Cu622  O632    1.960   .     S
Cu622  O626    1.965   .     S
C649   O682    1.292   .     A
C649   O679    1.291   .     A
C649   C674    1.450   .     S
C650   C673    1.450   .     S
C650   O681    1.292   .     A
C650   O680    1.291   .     A
C651   O683    1.296   .     A
C651   C669    1.466   .     S
C651   O686    1.295   .     A
C652   O684    1.295   .     A
C652   C670    1.467   .     S
C652   O685    1.296   .     A
C653   N678    1.368   .     A
C653   F687    1.354   .     S
C654   N677    1.368   .     A
C654   F688    1.354   .     S
C654   C817    1.416   .     S
C655   N678    1.367   .     A
C655   F689    1.355   .     S
C656   N677    1.368   .     A
C656   F690    1.355   .     S
C656   C815    1.416   .     S
C657   C674    1.403   .     A
C657   F699    1.358   .     S
C657   C767    1.385   1_455 S
C658   F700    1.357   .     S
C658   C673    1.403   .     A
C658   C714    1.385   .     S
C659   F701    1.359   .     S
C659   C673    1.403   .     A
C659   C711    1.385   .     S
C660   F702    1.359   .     S
C660   C674    1.403   .     A
C660   C766    1.385   1_455 S
C661   C665    1.389   .     A
C661   C671    1.400   .     A
C661   H691    1.083   .     S
C662   H692    1.083   .     S
C662   C672    1.401   .     A
C662   C666    1.390   .     A
C663   C667    1.389   .     A
C663   C672    1.400   .     A
C663   H693    1.083   .     S
C664   C668    1.390   .     A
C664   C671    1.401   .     A
C664   H694    1.083   .     S
C665   C669    1.408   .     A
C665   F695    1.357   .     S
C666   F696    1.358   .     S
C666   C670    1.408   .     A
C667   F697    1.357   .     S
C667   C670    1.408   .     A
C668   C669    1.408   .     A
C668   F698    1.358   .     S
C672   C185    1.466   1_556 S
Cu675  O681    1.966   .     S
Cu675  O685    1.960   .     S
Cu675  N677    2.014   .     S
Cu675  O679    1.965   .     S
Cu675  Cu676   2.680   .     S
Cu675  O683    1.960   .     S
Cu676  N678    2.014   .     S
Cu676  O682    1.966   .     S
Cu676  O684    1.960   .     S
Cu676  O686    1.960   .     S
Cu676  O680    1.965   .     S
C703   O736    1.292   .     A
C703   O733    1.291   .     A
C703   C728    1.450   .     S
C704   C727    1.450   .     S
C704   O735    1.292   .     A
C704   O734    1.291   .     A
C705   O737    1.296   .     A
C705   C723    1.466   .     S
C705   O740    1.295   .     A
C706   O738    1.295   .     A
C706   C724    1.467   .     S
C706   O739    1.296   .     A
C707   N732    1.368   .     A
C707   F741    1.354   .     S
C708   N731    1.368   .     A
C708   F742    1.354   .     S
C708   C871    1.416   .     S
C709   N732    1.367   .     A
C709   F743    1.355   .     S
C710   N731    1.368   .     A
C710   F744    1.355   .     S
C710   C869    1.416   .     S
C711   C728    1.403   .     A
C711   F753    1.358   .     S
C712   F754    1.357   .     S
C712   C727    1.403   .     A
C712   C768    1.385   .     S
C713   F755    1.359   .     S
C713   C727    1.403   .     A
C713   C765    1.385   .     S
C714   F756    1.359   .     S
C714   C728    1.403   .     A
C715   C719    1.389   .     A
C715   C725    1.400   .     A
C715   H745    1.083   .     S
C716   H746    1.083   .     S
C716   C726    1.401   .     A
C716   C720    1.390   .     A
C717   C721    1.389   .     A
C717   C726    1.400   .     A
C717   H747    1.083   .     S
C718   C722    1.390   .     A
C718   C725    1.401   .     A
C718   H748    1.083   .     S
C719   C723    1.408   .     A
C719   F749    1.357   .     S
C720   F750    1.358   .     S
C720   C724    1.408   .     A
C721   F751    1.357   .     S
C721   C724    1.408   .     A
C722   C723    1.408   .     A
C722   F752    1.358   .     S
C726   C239    1.466   1_556 S
Cu729  O735    1.966   .     S
Cu729  O739    1.960   .     S
Cu729  N731    2.014   .     S
Cu729  O733    1.965   .     S
Cu729  Cu730   2.680   .     S
Cu729  O737    1.960   .     S
Cu730  N732    2.014   .     S
Cu730  O736    1.966   .     S
Cu730  O738    1.960   .     S
Cu730  O740    1.960   .     S
Cu730  O734    1.965   .     S
C757   O790    1.292   .     A
C757   O787    1.291   .     A
C757   C782    1.450   .     S
C758   C781    1.450   .     S
C758   O789    1.292   .     A
C758   O788    1.291   .     A
C759   O791    1.296   .     A
C759   C777    1.466   .     S
C759   O794    1.295   .     A
C760   O792    1.295   .     A
C760   C778    1.467   .     S
C760   O793    1.296   .     A
C761   N786    1.368   .     A
C761   F795    1.354   .     S
C762   N785    1.368   .     A
C762   F796    1.354   .     S
C762   C925    1.416   .     S
C763   N786    1.367   .     A
C763   F797    1.355   .     S
C764   N785    1.368   .     A
C764   F798    1.355   .     S
C764   C923    1.416   .     S
C765   C782    1.403   .     A
C765   F807    1.358   .     S
C766   F808    1.357   .     S
C766   C781    1.403   .     A
C766   C660    1.385   1_655 S
C767   F809    1.359   .     S
C767   C781    1.403   .     A
C767   C657    1.385   1_655 S
C768   F810    1.359   .     S
C768   C782    1.403   .     A
C769   C773    1.389   .     A
C769   C779    1.400   .     A
C769   H799    1.083   .     S
C770   H800    1.083   .     S
C770   C780    1.401   .     A
C770   C774    1.390   .     A
C771   C775    1.389   .     A
C771   C780    1.400   .     A
C771   H801    1.083   .     S
C772   C776    1.390   .     A
C772   C779    1.401   .     A
C772   H802    1.083   .     S
C773   C777    1.408   .     A
C773   F803    1.357   .     S
C774   F804    1.358   .     S
C774   C778    1.408   .     A
C775   F805    1.357   .     S
C775   C778    1.408   .     A
C776   C777    1.408   .     A
C776   F806    1.358   .     S
C780   C293    1.466   1_556 S
Cu783  O789    1.966   .     S
Cu783  O793    1.960   .     S
Cu783  N785    2.014   .     S
Cu783  O787    1.965   .     S
Cu783  Cu784   2.680   .     S
Cu783  O791    1.960   .     S
Cu784  N786    2.014   .     S
Cu784  O790    1.966   .     S
Cu784  O792    1.960   .     S
Cu784  O794    1.960   .     S
Cu784  O788    1.965   .     S
C811   O844    1.292   .     A
C811   O841    1.291   .     A
C811   C836    1.450   .     S
C812   C835    1.450   .     S
C812   O843    1.292   .     A
C812   O842    1.291   .     A
C813   O845    1.296   .     A
C813   C831    1.466   .     S
C813   O848    1.295   .     A
C814   O846    1.295   .     A
C814   C832    1.467   .     S
C814   O847    1.296   .     A
C815   N840    1.368   .     A
C815   F849    1.354   .     S
C816   N839    1.368   .     A
C816   F850    1.354   .     S
C816   C493    1.416   1_565 S
C817   N840    1.367   .     A
C817   F851    1.355   .     S
C818   N839    1.368   .     A
C818   F852    1.355   .     S
C818   C491    1.416   1_565 S
C819   C836    1.403   .     A
C819   F861    1.358   .     S
C819   C929    1.385   1_455 S
C820   F862    1.357   .     S
C820   C835    1.403   .     A
C820   C876    1.385   .     S
C821   F863    1.359   .     S
C821   C835    1.403   .     A
C821   C873    1.385   .     S
C822   F864    1.359   .     S
C822   C836    1.403   .     A
C822   C928    1.385   1_455 S
C823   C827    1.389   .     A
C823   C833    1.400   .     A
C823   H853    1.083   .     S
C824   H854    1.083   .     S
C824   C834    1.401   .     A
C824   C828    1.390   .     A
C825   C829    1.389   .     A
C825   C834    1.400   .     A
C825   H855    1.083   .     S
C826   C830    1.390   .     A
C826   C833    1.401   .     A
C826   H856    1.083   .     S
C827   C831    1.408   .     A
C827   F857    1.357   .     S
C828   F858    1.358   .     S
C828   C832    1.408   .     A
C829   F859    1.357   .     S
C829   C832    1.408   .     A
C830   C831    1.408   .     A
C830   F860    1.358   .     S
C834   C347    1.466   1_556 S
Cu837  O843    1.966   .     S
Cu837  O847    1.960   .     S
Cu837  N839    2.014   .     S
Cu837  O841    1.965   .     S
Cu837  Cu838   2.680   .     S
Cu837  O845    1.960   .     S
Cu838  N840    2.014   .     S
Cu838  O844    1.966   .     S
Cu838  O846    1.960   .     S
Cu838  O848    1.960   .     S
Cu838  O842    1.965   .     S
C865   O898    1.292   .     A
C865   O895    1.291   .     A
C865   C890    1.450   .     S
C866   C889    1.450   .     S
C866   O897    1.292   .     A
C866   O896    1.291   .     A
C867   O899    1.296   .     A
C867   C885    1.466   .     S
C867   O902    1.295   .     A
C868   O900    1.295   .     A
C868   C886    1.467   .     S
C868   O901    1.296   .     A
C869   N894    1.368   .     A
C869   F903    1.354   .     S
C870   N893    1.368   .     A
C870   F904    1.354   .     S
C870   C547    1.416   1_565 S
C871   N894    1.367   .     A
C871   F905    1.355   .     S
C872   N893    1.368   .     A
C872   F906    1.355   .     S
C872   C545    1.416   1_565 S
C873   C890    1.403   .     A
C873   F915    1.358   .     S
C874   F916    1.357   .     S
C874   C889    1.403   .     A
C874   C930    1.385   .     S
C875   F917    1.359   .     S
C875   C889    1.403   .     A
C875   C927    1.385   .     S
C876   F918    1.359   .     S
C876   C890    1.403   .     A
C877   C881    1.389   .     A
C877   C887    1.400   .     A
C877   H907    1.083   .     S
C878   H908    1.083   .     S
C878   C888    1.401   .     A
C878   C882    1.390   .     A
C879   C883    1.389   .     A
C879   C888    1.400   .     A
C879   H909    1.083   .     S
C880   C884    1.390   .     A
C880   C887    1.401   .     A
C880   H910    1.083   .     S
C881   C885    1.408   .     A
C881   F911    1.357   .     S
C882   F912    1.358   .     S
C882   C886    1.408   .     A
C883   F913    1.357   .     S
C883   C886    1.408   .     A
C884   C885    1.408   .     A
C884   F914    1.358   .     S
C888   C401    1.466   1_556 S
Cu891  O897    1.966   .     S
Cu891  O901    1.960   .     S
Cu891  N893    2.014   .     S
Cu891  O895    1.965   .     S
Cu891  Cu892   2.680   .     S
Cu891  O899    1.960   .     S
Cu892  N894    2.014   .     S
Cu892  O898    1.966   .     S
Cu892  O900    1.960   .     S
Cu892  O902    1.960   .     S
Cu892  O896    1.965   .     S
C919   O952    1.292   .     A
C919   O949    1.291   .     A
C919   C944    1.450   .     S
C920   C943    1.450   .     S
C920   O951    1.292   .     A
C920   O950    1.291   .     A
C921   O953    1.296   .     A
C921   C939    1.466   .     S
C921   O956    1.295   .     A
C922   O954    1.295   .     A
C922   C940    1.467   .     S
C922   O955    1.296   .     A
C923   N948    1.368   .     A
C923   F957    1.354   .     S
C924   N947    1.368   .     A
C924   F958    1.354   .     S
C924   C601    1.416   1_565 S
C925   N948    1.367   .     A
C925   F959    1.355   .     S
C926   N947    1.368   .     A
C926   F960    1.355   .     S
C926   C599    1.416   1_565 S
C927   C944    1.403   .     A
C927   F969    1.358   .     S
C928   F970    1.357   .     S
C928   C943    1.403   .     A
C928   C822    1.385   1_655 S
C929   F971    1.359   .     S
C929   C943    1.403   .     A
C929   C819    1.385   1_655 S
C930   F972    1.359   .     S
C930   C944    1.403   .     A
C931   C935    1.389   .     A
C931   C941    1.400   .     A
C931   H961    1.083   .     S
C932   H962    1.083   .     S
C932   C942    1.401   .     A
C932   C936    1.390   .     A
C933   C937    1.389   .     A
C933   C942    1.400   .     A
C933   H963    1.083   .     S
C934   C938    1.390   .     A
C934   C941    1.401   .     A
C934   H964    1.083   .     S
C935   C939    1.408   .     A
C935   F965    1.357   .     S
C936   F966    1.358   .     S
C936   C940    1.408   .     A
C937   F967    1.357   .     S
C937   C940    1.408   .     A
C938   C939    1.408   .     A
C938   F968    1.358   .     S
C942   C455    1.466   1_556 S
Cu945  O951    1.966   .     S
Cu945  O955    1.960   .     S
Cu945  N947    2.014   .     S
Cu945  O949    1.965   .     S
Cu945  Cu946   2.680   .     S
Cu945  O953    1.960   .     S
Cu946  N948    2.014   .     S
Cu946  O952    1.966   .     S
Cu946  O954    1.960   .     S
Cu946  O956    1.960   .     S
Cu946  O950    1.965   .     S
