data_str_m2_o2_o5_pcu_sym.65
_audit_creation_date              2020-01-03
_audit_creation_method            'Materials Studio'
_symmetry_space_group_name_H-M    'P1'
_symmetry_Int_Tables_number       1
_symmetry_cell_setting            triclinic
loop_
_symmetry_equiv_pos_as_xyz
  x,y,z
_cell_length_a                    30.2810
_cell_length_b                    27.9474
_cell_length_c                    27.1956
_cell_angle_alpha                 89.6363
_cell_angle_beta                  92.2471
_cell_angle_gamma                 89.7415
loop_
_atom_site_label
_atom_site_type_symbol
_atom_site_fract_x
_atom_site_fract_y
_atom_site_fract_z
_atom_site_U_iso_or_equiv
_atom_site_adp_type
_atom_site_occupancy
C1     C     0.16528   0.25008   0.16622   0.00000  Uiso   1.00
C2     C     0.28443   0.44548   0.19156   0.00000  Uiso   1.00
C3     C     0.24986   0.25009   0.07359   0.00000  Uiso   1.00
C4     C     0.25003   0.24991   0.25974   0.00000  Uiso   1.00
C5     C     0.24720   0.02736   0.16873   0.00000  Uiso   1.00
C6     C     0.25267   0.47258   0.16345   0.00000  Uiso   1.00
C7     C     0.24985   0.25013   0.02186   0.00000  Uiso   1.00
C8     C     0.24992   0.24988   0.31147   0.00000  Uiso   1.00
C9     C     0.04738   0.26399   0.12165   0.00000  Uiso   1.00
C10    C     0.45546   0.20914   0.17117   0.00000  Uiso   1.00
C11    C     0.45321   0.29354   0.15220   0.00000  Uiso   1.00
C12    C     0.33528   0.24992   0.16486   0.00000  Uiso   1.00
C13    C     0.04926   0.23962   0.20755   0.00000  Uiso   1.00
C14    C     0.09331   0.26231   0.12179   0.00000  Uiso   1.00
C15    C     0.40956   0.20733   0.16926   0.00000  Uiso   1.00
C16    C     0.40718   0.29311   0.15119   0.00000  Uiso   1.00
C17    C     0.09525   0.23874   0.20839   0.00000  Uiso   1.00
C18    C     0.11738   0.25035   0.16546   0.00000  Uiso   1.00
C19    C     0.38424   0.25002   0.16172   0.00000  Uiso   1.00
C20    C     0.02537   0.25260   0.16439   0.00000  Uiso   1.00
C21    C     0.47722   0.25202   0.16328   0.00000  Uiso   1.00
C22    C     0.27297   0.10386   0.20291   0.00000  Uiso   1.00
C23    C     0.22552   0.39581   0.13155   0.00000  Uiso   1.00
C24    C     0.22047   0.10502   0.13647   0.00000  Uiso   1.00
C25    C     0.28010   0.39523   0.19587   0.00000  Uiso   1.00
C26    C     0.26869   0.05362   0.20697   0.00000  Uiso   1.00
C27    C     0.23001   0.44588   0.12636   0.00000  Uiso   1.00
C28    C     0.21596   0.05474   0.14022   0.00000  Uiso   1.00
Cl29   Cl    0.30676   0.13268   0.24772   0.00000  Uiso   1.00
Cl30   Cl    0.22308   0.46959   0.06593   0.00000  Uiso   1.00
Cl31   Cl    0.16277   0.03116   0.12595   0.00000  Uiso   1.00
Cl32   Cl    0.33733   0.46972   0.20593   0.00000  Uiso   1.00
Cl33   Cl    0.18839   0.36665   0.09061   0.00000  Uiso   1.00
Cl34   Cl    0.18492   0.13575   0.09406   0.00000  Uiso   1.00
Cl35   Cl    0.31543   0.36496   0.23882   0.00000  Uiso   1.00
Cl36   Cl    0.11950   0.27273   0.06606   0.00000  Uiso   1.00
Cl37   Cl    0.38720   0.14953   0.17394   0.00000  Uiso   1.00
Cl38   Cl    0.38107   0.34745   0.13326   0.00000  Uiso   1.00
Cl39   Cl    0.12421   0.22341   0.26378   0.00000  Uiso   1.00
Cl40   Cl    0.27485   0.02842   0.26689   0.00000  Uiso   1.00
Cu41   Cu    0.25000   0.29821   0.16667   0.00000  Uiso   1.00
Cu42   Cu    0.25000   0.20178   0.16667   0.00000  Uiso   1.00
H43    H     0.02876   0.27288   0.08796   0.00000  Uiso   1.00
H44    H     0.47446   0.17657   0.17765   0.00000  Uiso   1.00
H45    H     0.47044   0.32648   0.14440   0.00000  Uiso   1.00
H46    H     0.03208   0.23051   0.24052   0.00000  Uiso   1.00
N47    N     0.25000   0.12934   0.16667   0.00000  Uiso   1.00
N48    N     0.25000   0.37065   0.16667   0.00000  Uiso   1.00
O49    O     0.18573   0.29071   0.16667   0.00000  Uiso   1.00
O50    O     0.31427   0.20928   0.16666   0.00000  Uiso   1.00
O51    O     0.31427   0.29071   0.16666   0.00000  Uiso   1.00
O52    O     0.18573   0.20928   0.16667   0.00000  Uiso   1.00
O53    O     0.25000   0.29071   0.09613   0.00000  Uiso   1.00
O54    O     0.25000   0.20929   0.23720   0.00000  Uiso   1.00
O55    O     0.25000   0.29071   0.23720   0.00000  Uiso   1.00
O56    O     0.25000   0.20929   0.09613   0.00000  Uiso   1.00
C57    C     0.66528   0.25008   0.16622   0.00000  Uiso   1.00
C58    C     0.78443   0.44548   0.19156   0.00000  Uiso   1.00
C59    C     0.74986   0.25009   0.07359   0.00000  Uiso   1.00
C60    C     0.75003   0.24991   0.25974   0.00000  Uiso   1.00
C61    C     0.74720   0.02736   0.16873   0.00000  Uiso   1.00
C62    C     0.75267   0.47258   0.16345   0.00000  Uiso   1.00
C63    C     0.74985   0.25013   0.02186   0.00000  Uiso   1.00
C64    C     0.74992   0.24988   0.31147   0.00000  Uiso   1.00
C65    C     0.54738   0.26399   0.12165   0.00000  Uiso   1.00
C66    C     0.95546   0.20914   0.17117   0.00000  Uiso   1.00
C67    C     0.95321   0.29354   0.15220   0.00000  Uiso   1.00
C68    C     0.83528   0.24992   0.16486   0.00000  Uiso   1.00
C69    C     0.54926   0.23962   0.20755   0.00000  Uiso   1.00
C70    C     0.59331   0.26231   0.12179   0.00000  Uiso   1.00
C71    C     0.90956   0.20733   0.16926   0.00000  Uiso   1.00
C72    C     0.90718   0.29311   0.15119   0.00000  Uiso   1.00
C73    C     0.59525   0.23874   0.20839   0.00000  Uiso   1.00
C74    C     0.61738   0.25035   0.16546   0.00000  Uiso   1.00
C75    C     0.88424   0.25002   0.16172   0.00000  Uiso   1.00
C76    C     0.52537   0.25260   0.16439   0.00000  Uiso   1.00
C77    C     0.97722   0.25202   0.16328   0.00000  Uiso   1.00
C78    C     0.77297   0.10386   0.20291   0.00000  Uiso   1.00
C79    C     0.72552   0.39581   0.13155   0.00000  Uiso   1.00
C80    C     0.72047   0.10502   0.13647   0.00000  Uiso   1.00
C81    C     0.78010   0.39523   0.19587   0.00000  Uiso   1.00
C82    C     0.76869   0.05362   0.20697   0.00000  Uiso   1.00
C83    C     0.73001   0.44588   0.12636   0.00000  Uiso   1.00
C84    C     0.71596   0.05474   0.14022   0.00000  Uiso   1.00
Cl85   Cl    0.80676   0.13268   0.24772   0.00000  Uiso   1.00
Cl86   Cl    0.72308   0.46959   0.06593   0.00000  Uiso   1.00
Cl87   Cl    0.66277   0.03116   0.12595   0.00000  Uiso   1.00
Cl88   Cl    0.83733   0.46972   0.20593   0.00000  Uiso   1.00
Cl89   Cl    0.68839   0.36665   0.09061   0.00000  Uiso   1.00
Cl90   Cl    0.68492   0.13575   0.09406   0.00000  Uiso   1.00
Cl91   Cl    0.81543   0.36496   0.23882   0.00000  Uiso   1.00
Cl92   Cl    0.61950   0.27273   0.06606   0.00000  Uiso   1.00
Cl93   Cl    0.88720   0.14953   0.17394   0.00000  Uiso   1.00
Cl94   Cl    0.88107   0.34745   0.13326   0.00000  Uiso   1.00
Cl95   Cl    0.62421   0.22341   0.26378   0.00000  Uiso   1.00
Cl96   Cl    0.77485   0.02842   0.26689   0.00000  Uiso   1.00
Cu97   Cu    0.75000   0.29821   0.16667   0.00000  Uiso   1.00
Cu98   Cu    0.75000   0.20178   0.16667   0.00000  Uiso   1.00
H99    H     0.52876   0.27288   0.08796   0.00000  Uiso   1.00
H100   H     0.97446   0.17657   0.17765   0.00000  Uiso   1.00
H101   H     0.97044   0.32648   0.14440   0.00000  Uiso   1.00
H102   H     0.53208   0.23051   0.24052   0.00000  Uiso   1.00
N103   N     0.75000   0.12934   0.16667   0.00000  Uiso   1.00
N104   N     0.75000   0.37065   0.16667   0.00000  Uiso   1.00
O105   O     0.68573   0.29071   0.16667   0.00000  Uiso   1.00
O106   O     0.81427   0.20928   0.16666   0.00000  Uiso   1.00
O107   O     0.81427   0.29071   0.16666   0.00000  Uiso   1.00
O108   O     0.68573   0.20928   0.16667   0.00000  Uiso   1.00
O109   O     0.75000   0.29071   0.09613   0.00000  Uiso   1.00
O110   O     0.75000   0.20929   0.23720   0.00000  Uiso   1.00
O111   O     0.75000   0.29071   0.23720   0.00000  Uiso   1.00
O112   O     0.75000   0.20929   0.09613   0.00000  Uiso   1.00
C113   C     0.16528   0.75008   0.16622   0.00000  Uiso   1.00
C114   C     0.28443   0.94548   0.19156   0.00000  Uiso   1.00
C115   C     0.24986   0.75009   0.07359   0.00000  Uiso   1.00
C116   C     0.25003   0.74991   0.25974   0.00000  Uiso   1.00
C117   C     0.24720   0.52736   0.16873   0.00000  Uiso   1.00
C118   C     0.25267   0.97258   0.16345   0.00000  Uiso   1.00
C119   C     0.24985   0.75013   0.02186   0.00000  Uiso   1.00
C120   C     0.24992   0.74988   0.31147   0.00000  Uiso   1.00
C121   C     0.04738   0.76399   0.12165   0.00000  Uiso   1.00
C122   C     0.45546   0.70914   0.17117   0.00000  Uiso   1.00
C123   C     0.45321   0.79354   0.15220   0.00000  Uiso   1.00
C124   C     0.33528   0.74992   0.16486   0.00000  Uiso   1.00
C125   C     0.04926   0.73962   0.20755   0.00000  Uiso   1.00
C126   C     0.09331   0.76231   0.12179   0.00000  Uiso   1.00
C127   C     0.40956   0.70733   0.16926   0.00000  Uiso   1.00
C128   C     0.40718   0.79311   0.15119   0.00000  Uiso   1.00
C129   C     0.09525   0.73874   0.20839   0.00000  Uiso   1.00
C130   C     0.11738   0.75035   0.16546   0.00000  Uiso   1.00
C131   C     0.38424   0.75002   0.16172   0.00000  Uiso   1.00
C132   C     0.02537   0.75260   0.16439   0.00000  Uiso   1.00
C133   C     0.47722   0.75202   0.16328   0.00000  Uiso   1.00
C134   C     0.27297   0.60386   0.20291   0.00000  Uiso   1.00
C135   C     0.22552   0.89581   0.13155   0.00000  Uiso   1.00
C136   C     0.22047   0.60502   0.13647   0.00000  Uiso   1.00
C137   C     0.28010   0.89523   0.19587   0.00000  Uiso   1.00
C138   C     0.26869   0.55362   0.20697   0.00000  Uiso   1.00
C139   C     0.23001   0.94588   0.12636   0.00000  Uiso   1.00
C140   C     0.21596   0.55474   0.14022   0.00000  Uiso   1.00
Cl141  Cl    0.30676   0.63268   0.24772   0.00000  Uiso   1.00
Cl142  Cl    0.22308   0.96959   0.06593   0.00000  Uiso   1.00
Cl143  Cl    0.16277   0.53116   0.12595   0.00000  Uiso   1.00
Cl144  Cl    0.33733   0.96972   0.20593   0.00000  Uiso   1.00
Cl145  Cl    0.18839   0.86665   0.09061   0.00000  Uiso   1.00
Cl146  Cl    0.18492   0.63575   0.09406   0.00000  Uiso   1.00
Cl147  Cl    0.31543   0.86496   0.23882   0.00000  Uiso   1.00
Cl148  Cl    0.11950   0.77273   0.06606   0.00000  Uiso   1.00
Cl149  Cl    0.38720   0.64953   0.17394   0.00000  Uiso   1.00
Cl150  Cl    0.38107   0.84745   0.13326   0.00000  Uiso   1.00
Cl151  Cl    0.12421   0.72341   0.26378   0.00000  Uiso   1.00
Cl152  Cl    0.27485   0.52842   0.26689   0.00000  Uiso   1.00
Cu153  Cu    0.25000   0.79821   0.16667   0.00000  Uiso   1.00
Cu154  Cu    0.25000   0.70178   0.16667   0.00000  Uiso   1.00
H155   H     0.02876   0.77288   0.08796   0.00000  Uiso   1.00
H156   H     0.47446   0.67657   0.17765   0.00000  Uiso   1.00
H157   H     0.47044   0.82648   0.14440   0.00000  Uiso   1.00
H158   H     0.03208   0.73051   0.24052   0.00000  Uiso   1.00
N159   N     0.25000   0.62934   0.16667   0.00000  Uiso   1.00
N160   N     0.25000   0.87065   0.16667   0.00000  Uiso   1.00
O161   O     0.18573   0.79071   0.16667   0.00000  Uiso   1.00
O162   O     0.31427   0.70928   0.16666   0.00000  Uiso   1.00
O163   O     0.31427   0.79071   0.16666   0.00000  Uiso   1.00
O164   O     0.18573   0.70928   0.16667   0.00000  Uiso   1.00
O165   O     0.25000   0.79071   0.09613   0.00000  Uiso   1.00
O166   O     0.25000   0.70929   0.23720   0.00000  Uiso   1.00
O167   O     0.25000   0.79071   0.23720   0.00000  Uiso   1.00
O168   O     0.25000   0.70929   0.09613   0.00000  Uiso   1.00
C169   C     0.66528   0.75008   0.16622   0.00000  Uiso   1.00
C170   C     0.78443   0.94548   0.19156   0.00000  Uiso   1.00
C171   C     0.74986   0.75009   0.07359   0.00000  Uiso   1.00
C172   C     0.75003   0.74991   0.25974   0.00000  Uiso   1.00
C173   C     0.74720   0.52736   0.16873   0.00000  Uiso   1.00
C174   C     0.75267   0.97258   0.16345   0.00000  Uiso   1.00
C175   C     0.74985   0.75013   0.02186   0.00000  Uiso   1.00
C176   C     0.74992   0.74988   0.31147   0.00000  Uiso   1.00
C177   C     0.54738   0.76399   0.12165   0.00000  Uiso   1.00
C178   C     0.95546   0.70914   0.17117   0.00000  Uiso   1.00
C179   C     0.95321   0.79354   0.15220   0.00000  Uiso   1.00
C180   C     0.83528   0.74992   0.16486   0.00000  Uiso   1.00
C181   C     0.54926   0.73962   0.20755   0.00000  Uiso   1.00
C182   C     0.59331   0.76231   0.12179   0.00000  Uiso   1.00
C183   C     0.90956   0.70733   0.16926   0.00000  Uiso   1.00
C184   C     0.90718   0.79311   0.15119   0.00000  Uiso   1.00
C185   C     0.59525   0.73874   0.20839   0.00000  Uiso   1.00
C186   C     0.61738   0.75035   0.16546   0.00000  Uiso   1.00
C187   C     0.88424   0.75002   0.16172   0.00000  Uiso   1.00
C188   C     0.52537   0.75260   0.16439   0.00000  Uiso   1.00
C189   C     0.97722   0.75202   0.16328   0.00000  Uiso   1.00
C190   C     0.77297   0.60386   0.20291   0.00000  Uiso   1.00
C191   C     0.72552   0.89581   0.13155   0.00000  Uiso   1.00
C192   C     0.72047   0.60502   0.13647   0.00000  Uiso   1.00
C193   C     0.78010   0.89523   0.19587   0.00000  Uiso   1.00
C194   C     0.76869   0.55362   0.20697   0.00000  Uiso   1.00
C195   C     0.73001   0.94588   0.12636   0.00000  Uiso   1.00
C196   C     0.71596   0.55474   0.14022   0.00000  Uiso   1.00
Cl197  Cl    0.80676   0.63268   0.24772   0.00000  Uiso   1.00
Cl198  Cl    0.72308   0.96959   0.06593   0.00000  Uiso   1.00
Cl199  Cl    0.66277   0.53116   0.12595   0.00000  Uiso   1.00
Cl200  Cl    0.83733   0.96972   0.20593   0.00000  Uiso   1.00
Cl201  Cl    0.68839   0.86665   0.09061   0.00000  Uiso   1.00
Cl202  Cl    0.68492   0.63575   0.09406   0.00000  Uiso   1.00
Cl203  Cl    0.81543   0.86496   0.23882   0.00000  Uiso   1.00
Cl204  Cl    0.61950   0.77273   0.06606   0.00000  Uiso   1.00
Cl205  Cl    0.88720   0.64953   0.17394   0.00000  Uiso   1.00
Cl206  Cl    0.88107   0.84745   0.13326   0.00000  Uiso   1.00
Cl207  Cl    0.62421   0.72341   0.26378   0.00000  Uiso   1.00
Cl208  Cl    0.77485   0.52842   0.26689   0.00000  Uiso   1.00
Cu209  Cu    0.75000   0.79821   0.16667   0.00000  Uiso   1.00
Cu210  Cu    0.75000   0.70178   0.16667   0.00000  Uiso   1.00
H211   H     0.52876   0.77288   0.08796   0.00000  Uiso   1.00
H212   H     0.97446   0.67657   0.17765   0.00000  Uiso   1.00
H213   H     0.97044   0.82648   0.14440   0.00000  Uiso   1.00
H214   H     0.53208   0.73051   0.24052   0.00000  Uiso   1.00
N215   N     0.75000   0.62934   0.16667   0.00000  Uiso   1.00
N216   N     0.75000   0.87065   0.16667   0.00000  Uiso   1.00
O217   O     0.68573   0.79071   0.16667   0.00000  Uiso   1.00
O218   O     0.81427   0.70928   0.16666   0.00000  Uiso   1.00
O219   O     0.81427   0.79071   0.16666   0.00000  Uiso   1.00
O220   O     0.68573   0.70928   0.16667   0.00000  Uiso   1.00
O221   O     0.75000   0.79071   0.09613   0.00000  Uiso   1.00
O222   O     0.75000   0.70929   0.23720   0.00000  Uiso   1.00
O223   O     0.75000   0.79071   0.23720   0.00000  Uiso   1.00
O224   O     0.75000   0.70929   0.09613   0.00000  Uiso   1.00
C225   C     0.16528   0.25008   0.49955   0.00000  Uiso   1.00
C226   C     0.28443   0.44548   0.52490   0.00000  Uiso   1.00
C227   C     0.24986   0.25009   0.40692   0.00000  Uiso   1.00
C228   C     0.25003   0.24991   0.59307   0.00000  Uiso   1.00
C229   C     0.24720   0.02736   0.50206   0.00000  Uiso   1.00
C230   C     0.25267   0.47258   0.49678   0.00000  Uiso   1.00
C231   C     0.24985   0.25013   0.35519   0.00000  Uiso   1.00
C232   C     0.24992   0.24988   0.64480   0.00000  Uiso   1.00
C233   C     0.04738   0.26399   0.45498   0.00000  Uiso   1.00
C234   C     0.45546   0.20914   0.50451   0.00000  Uiso   1.00
C235   C     0.45321   0.29354   0.48553   0.00000  Uiso   1.00
C236   C     0.33528   0.24992   0.49819   0.00000  Uiso   1.00
C237   C     0.04926   0.23962   0.54088   0.00000  Uiso   1.00
C238   C     0.09331   0.26231   0.45512   0.00000  Uiso   1.00
C239   C     0.40956   0.20733   0.50259   0.00000  Uiso   1.00
C240   C     0.40718   0.29311   0.48452   0.00000  Uiso   1.00
C241   C     0.09525   0.23874   0.54172   0.00000  Uiso   1.00
C242   C     0.11738   0.25035   0.49879   0.00000  Uiso   1.00
C243   C     0.38424   0.25002   0.49505   0.00000  Uiso   1.00
C244   C     0.02537   0.25260   0.49772   0.00000  Uiso   1.00
C245   C     0.47722   0.25202   0.49661   0.00000  Uiso   1.00
C246   C     0.27297   0.10386   0.53624   0.00000  Uiso   1.00
C247   C     0.22552   0.39581   0.46488   0.00000  Uiso   1.00
C248   C     0.22047   0.10502   0.46980   0.00000  Uiso   1.00
C249   C     0.28010   0.39523   0.52920   0.00000  Uiso   1.00
C250   C     0.26869   0.05362   0.54030   0.00000  Uiso   1.00
C251   C     0.23001   0.44588   0.45970   0.00000  Uiso   1.00
C252   C     0.21596   0.05474   0.47355   0.00000  Uiso   1.00
Cl253  Cl    0.30676   0.13268   0.58105   0.00000  Uiso   1.00
Cl254  Cl    0.22308   0.46959   0.39926   0.00000  Uiso   1.00
Cl255  Cl    0.16277   0.03116   0.45929   0.00000  Uiso   1.00
Cl256  Cl    0.33733   0.46972   0.53926   0.00000  Uiso   1.00
Cl257  Cl    0.18839   0.36665   0.42394   0.00000  Uiso   1.00
Cl258  Cl    0.18492   0.13575   0.42740   0.00000  Uiso   1.00
Cl259  Cl    0.31543   0.36496   0.57215   0.00000  Uiso   1.00
Cl260  Cl    0.11950   0.27273   0.39940   0.00000  Uiso   1.00
Cl261  Cl    0.38720   0.14953   0.50727   0.00000  Uiso   1.00
Cl262  Cl    0.38107   0.34745   0.46659   0.00000  Uiso   1.00
Cl263  Cl    0.12421   0.22341   0.59711   0.00000  Uiso   1.00
Cl264  Cl    0.27485   0.02842   0.60022   0.00000  Uiso   1.00
Cu265  Cu    0.25000   0.29821   0.50000   0.00000  Uiso   1.00
Cu266  Cu    0.25000   0.20178   0.50000   0.00000  Uiso   1.00
H267   H     0.02876   0.27288   0.42129   0.00000  Uiso   1.00
H268   H     0.47446   0.17657   0.51098   0.00000  Uiso   1.00
H269   H     0.47044   0.32648   0.47773   0.00000  Uiso   1.00
H270   H     0.03208   0.23051   0.57386   0.00000  Uiso   1.00
N271   N     0.25000   0.12934   0.50000   0.00000  Uiso   1.00
N272   N     0.25000   0.37065   0.50000   0.00000  Uiso   1.00
O273   O     0.18573   0.29071   0.50000   0.00000  Uiso   1.00
O274   O     0.31427   0.20928   0.50000   0.00000  Uiso   1.00
O275   O     0.31427   0.29071   0.50000   0.00000  Uiso   1.00
O276   O     0.18573   0.20928   0.50000   0.00000  Uiso   1.00
O277   O     0.25000   0.29071   0.42946   0.00000  Uiso   1.00
O278   O     0.25000   0.20929   0.57054   0.00000  Uiso   1.00
O279   O     0.25000   0.29071   0.57054   0.00000  Uiso   1.00
O280   O     0.25000   0.20929   0.42946   0.00000  Uiso   1.00
C281   C     0.66528   0.25008   0.49955   0.00000  Uiso   1.00
C282   C     0.78443   0.44548   0.52490   0.00000  Uiso   1.00
C283   C     0.74986   0.25009   0.40692   0.00000  Uiso   1.00
C284   C     0.75003   0.24991   0.59307   0.00000  Uiso   1.00
C285   C     0.74720   0.02736   0.50206   0.00000  Uiso   1.00
C286   C     0.75267   0.47258   0.49678   0.00000  Uiso   1.00
C287   C     0.74985   0.25013   0.35519   0.00000  Uiso   1.00
C288   C     0.74992   0.24988   0.64480   0.00000  Uiso   1.00
C289   C     0.54738   0.26399   0.45498   0.00000  Uiso   1.00
C290   C     0.95546   0.20914   0.50451   0.00000  Uiso   1.00
C291   C     0.95321   0.29354   0.48553   0.00000  Uiso   1.00
C292   C     0.83528   0.24992   0.49819   0.00000  Uiso   1.00
C293   C     0.54926   0.23962   0.54088   0.00000  Uiso   1.00
C294   C     0.59331   0.26231   0.45512   0.00000  Uiso   1.00
C295   C     0.90956   0.20733   0.50259   0.00000  Uiso   1.00
C296   C     0.90718   0.29311   0.48452   0.00000  Uiso   1.00
C297   C     0.59525   0.23874   0.54172   0.00000  Uiso   1.00
C298   C     0.61738   0.25035   0.49879   0.00000  Uiso   1.00
C299   C     0.88424   0.25002   0.49505   0.00000  Uiso   1.00
C300   C     0.52537   0.25260   0.49772   0.00000  Uiso   1.00
C301   C     0.97722   0.25202   0.49661   0.00000  Uiso   1.00
C302   C     0.77297   0.10386   0.53624   0.00000  Uiso   1.00
C303   C     0.72552   0.39581   0.46488   0.00000  Uiso   1.00
C304   C     0.72047   0.10502   0.46980   0.00000  Uiso   1.00
C305   C     0.78010   0.39523   0.52920   0.00000  Uiso   1.00
C306   C     0.76869   0.05362   0.54030   0.00000  Uiso   1.00
C307   C     0.73001   0.44588   0.45970   0.00000  Uiso   1.00
C308   C     0.71596   0.05474   0.47355   0.00000  Uiso   1.00
Cl309  Cl    0.80676   0.13268   0.58105   0.00000  Uiso   1.00
Cl310  Cl    0.72308   0.46959   0.39926   0.00000  Uiso   1.00
Cl311  Cl    0.66277   0.03116   0.45929   0.00000  Uiso   1.00
Cl312  Cl    0.83733   0.46972   0.53926   0.00000  Uiso   1.00
Cl313  Cl    0.68839   0.36665   0.42394   0.00000  Uiso   1.00
Cl314  Cl    0.68492   0.13575   0.42740   0.00000  Uiso   1.00
Cl315  Cl    0.81543   0.36496   0.57215   0.00000  Uiso   1.00
Cl316  Cl    0.61950   0.27273   0.39940   0.00000  Uiso   1.00
Cl317  Cl    0.88720   0.14953   0.50727   0.00000  Uiso   1.00
Cl318  Cl    0.88107   0.34745   0.46659   0.00000  Uiso   1.00
Cl319  Cl    0.62421   0.22341   0.59711   0.00000  Uiso   1.00
Cl320  Cl    0.77485   0.02842   0.60022   0.00000  Uiso   1.00
Cu321  Cu    0.75000   0.29821   0.50000   0.00000  Uiso   1.00
Cu322  Cu    0.75000   0.20178   0.50000   0.00000  Uiso   1.00
H323   H     0.52876   0.27288   0.42129   0.00000  Uiso   1.00
H324   H     0.97446   0.17657   0.51098   0.00000  Uiso   1.00
H325   H     0.97044   0.32648   0.47773   0.00000  Uiso   1.00
H326   H     0.53208   0.23051   0.57386   0.00000  Uiso   1.00
N327   N     0.75000   0.12934   0.50000   0.00000  Uiso   1.00
N328   N     0.75000   0.37065   0.50000   0.00000  Uiso   1.00
O329   O     0.68573   0.29071   0.50000   0.00000  Uiso   1.00
O330   O     0.81427   0.20928   0.50000   0.00000  Uiso   1.00
O331   O     0.81427   0.29071   0.50000   0.00000  Uiso   1.00
O332   O     0.68573   0.20928   0.50000   0.00000  Uiso   1.00
O333   O     0.75000   0.29071   0.42946   0.00000  Uiso   1.00
O334   O     0.75000   0.20929   0.57054   0.00000  Uiso   1.00
O335   O     0.75000   0.29071   0.57054   0.00000  Uiso   1.00
O336   O     0.75000   0.20929   0.42946   0.00000  Uiso   1.00
C337   C     0.16528   0.75008   0.49955   0.00000  Uiso   1.00
C338   C     0.28443   0.94548   0.52490   0.00000  Uiso   1.00
C339   C     0.24986   0.75009   0.40692   0.00000  Uiso   1.00
C340   C     0.25003   0.74991   0.59307   0.00000  Uiso   1.00
C341   C     0.24720   0.52736   0.50206   0.00000  Uiso   1.00
C342   C     0.25267   0.97258   0.49678   0.00000  Uiso   1.00
C343   C     0.24985   0.75013   0.35519   0.00000  Uiso   1.00
C344   C     0.24992   0.74988   0.64480   0.00000  Uiso   1.00
C345   C     0.04738   0.76399   0.45498   0.00000  Uiso   1.00
C346   C     0.45546   0.70914   0.50451   0.00000  Uiso   1.00
C347   C     0.45321   0.79354   0.48553   0.00000  Uiso   1.00
C348   C     0.33528   0.74992   0.49819   0.00000  Uiso   1.00
C349   C     0.04926   0.73962   0.54088   0.00000  Uiso   1.00
C350   C     0.09331   0.76231   0.45512   0.00000  Uiso   1.00
C351   C     0.40956   0.70733   0.50259   0.00000  Uiso   1.00
C352   C     0.40718   0.79311   0.48452   0.00000  Uiso   1.00
C353   C     0.09525   0.73874   0.54172   0.00000  Uiso   1.00
C354   C     0.11738   0.75035   0.49879   0.00000  Uiso   1.00
C355   C     0.38424   0.75002   0.49505   0.00000  Uiso   1.00
C356   C     0.02537   0.75260   0.49772   0.00000  Uiso   1.00
C357   C     0.47722   0.75202   0.49661   0.00000  Uiso   1.00
C358   C     0.27297   0.60386   0.53624   0.00000  Uiso   1.00
C359   C     0.22552   0.89581   0.46488   0.00000  Uiso   1.00
C360   C     0.22047   0.60502   0.46980   0.00000  Uiso   1.00
C361   C     0.28010   0.89523   0.52920   0.00000  Uiso   1.00
C362   C     0.26869   0.55362   0.54030   0.00000  Uiso   1.00
C363   C     0.23001   0.94588   0.45970   0.00000  Uiso   1.00
C364   C     0.21596   0.55474   0.47355   0.00000  Uiso   1.00
Cl365  Cl    0.30676   0.63268   0.58105   0.00000  Uiso   1.00
Cl366  Cl    0.22308   0.96959   0.39926   0.00000  Uiso   1.00
Cl367  Cl    0.16277   0.53116   0.45929   0.00000  Uiso   1.00
Cl368  Cl    0.33733   0.96972   0.53926   0.00000  Uiso   1.00
Cl369  Cl    0.18839   0.86665   0.42394   0.00000  Uiso   1.00
Cl370  Cl    0.18492   0.63575   0.42740   0.00000  Uiso   1.00
Cl371  Cl    0.31543   0.86496   0.57215   0.00000  Uiso   1.00
Cl372  Cl    0.11950   0.77273   0.39940   0.00000  Uiso   1.00
Cl373  Cl    0.38720   0.64953   0.50727   0.00000  Uiso   1.00
Cl374  Cl    0.38107   0.84745   0.46659   0.00000  Uiso   1.00
Cl375  Cl    0.12421   0.72341   0.59711   0.00000  Uiso   1.00
Cl376  Cl    0.27485   0.52842   0.60022   0.00000  Uiso   1.00
Cu377  Cu    0.25000   0.79821   0.50000   0.00000  Uiso   1.00
Cu378  Cu    0.25000   0.70178   0.50000   0.00000  Uiso   1.00
H379   H     0.02876   0.77288   0.42129   0.00000  Uiso   1.00
H380   H     0.47446   0.67657   0.51098   0.00000  Uiso   1.00
H381   H     0.47044   0.82648   0.47773   0.00000  Uiso   1.00
H382   H     0.03208   0.73051   0.57386   0.00000  Uiso   1.00
N383   N     0.25000   0.62934   0.50000   0.00000  Uiso   1.00
N384   N     0.25000   0.87065   0.50000   0.00000  Uiso   1.00
O385   O     0.18573   0.79071   0.50000   0.00000  Uiso   1.00
O386   O     0.31427   0.70928   0.50000   0.00000  Uiso   1.00
O387   O     0.31427   0.79071   0.50000   0.00000  Uiso   1.00
O388   O     0.18573   0.70928   0.50000   0.00000  Uiso   1.00
O389   O     0.25000   0.79071   0.42946   0.00000  Uiso   1.00
O390   O     0.25000   0.70929   0.57054   0.00000  Uiso   1.00
O391   O     0.25000   0.79071   0.57054   0.00000  Uiso   1.00
O392   O     0.25000   0.70929   0.42946   0.00000  Uiso   1.00
C393   C     0.66528   0.75008   0.49955   0.00000  Uiso   1.00
C394   C     0.78443   0.94548   0.52490   0.00000  Uiso   1.00
C395   C     0.74986   0.75009   0.40692   0.00000  Uiso   1.00
C396   C     0.75003   0.74991   0.59307   0.00000  Uiso   1.00
C397   C     0.74720   0.52736   0.50206   0.00000  Uiso   1.00
C398   C     0.75267   0.97258   0.49678   0.00000  Uiso   1.00
C399   C     0.74985   0.75013   0.35519   0.00000  Uiso   1.00
C400   C     0.74992   0.74988   0.64480   0.00000  Uiso   1.00
C401   C     0.54738   0.76399   0.45498   0.00000  Uiso   1.00
C402   C     0.95546   0.70914   0.50451   0.00000  Uiso   1.00
C403   C     0.95321   0.79354   0.48553   0.00000  Uiso   1.00
C404   C     0.83528   0.74992   0.49819   0.00000  Uiso   1.00
C405   C     0.54926   0.73962   0.54088   0.00000  Uiso   1.00
C406   C     0.59331   0.76231   0.45512   0.00000  Uiso   1.00
C407   C     0.90956   0.70733   0.50259   0.00000  Uiso   1.00
C408   C     0.90718   0.79311   0.48452   0.00000  Uiso   1.00
C409   C     0.59525   0.73874   0.54172   0.00000  Uiso   1.00
C410   C     0.61738   0.75035   0.49879   0.00000  Uiso   1.00
C411   C     0.88424   0.75002   0.49505   0.00000  Uiso   1.00
C412   C     0.52537   0.75260   0.49772   0.00000  Uiso   1.00
C413   C     0.97722   0.75202   0.49661   0.00000  Uiso   1.00
C414   C     0.77297   0.60386   0.53624   0.00000  Uiso   1.00
C415   C     0.72552   0.89581   0.46488   0.00000  Uiso   1.00
C416   C     0.72047   0.60502   0.46980   0.00000  Uiso   1.00
C417   C     0.78010   0.89523   0.52920   0.00000  Uiso   1.00
C418   C     0.76869   0.55362   0.54030   0.00000  Uiso   1.00
C419   C     0.73001   0.94588   0.45970   0.00000  Uiso   1.00
C420   C     0.71596   0.55474   0.47355   0.00000  Uiso   1.00
Cl421  Cl    0.80676   0.63268   0.58105   0.00000  Uiso   1.00
Cl422  Cl    0.72308   0.96959   0.39926   0.00000  Uiso   1.00
Cl423  Cl    0.66277   0.53116   0.45929   0.00000  Uiso   1.00
Cl424  Cl    0.83733   0.96972   0.53926   0.00000  Uiso   1.00
Cl425  Cl    0.68839   0.86665   0.42394   0.00000  Uiso   1.00
Cl426  Cl    0.68492   0.63575   0.42740   0.00000  Uiso   1.00
Cl427  Cl    0.81543   0.86496   0.57215   0.00000  Uiso   1.00
Cl428  Cl    0.61950   0.77273   0.39940   0.00000  Uiso   1.00
Cl429  Cl    0.88720   0.64953   0.50727   0.00000  Uiso   1.00
Cl430  Cl    0.88107   0.84745   0.46659   0.00000  Uiso   1.00
Cl431  Cl    0.62421   0.72341   0.59711   0.00000  Uiso   1.00
Cl432  Cl    0.77485   0.52842   0.60022   0.00000  Uiso   1.00
Cu433  Cu    0.75000   0.79821   0.50000   0.00000  Uiso   1.00
Cu434  Cu    0.75000   0.70178   0.50000   0.00000  Uiso   1.00
H435   H     0.52876   0.77288   0.42129   0.00000  Uiso   1.00
H436   H     0.97446   0.67657   0.51098   0.00000  Uiso   1.00
H437   H     0.97044   0.82648   0.47773   0.00000  Uiso   1.00
H438   H     0.53208   0.73051   0.57386   0.00000  Uiso   1.00
N439   N     0.75000   0.62934   0.50000   0.00000  Uiso   1.00
N440   N     0.75000   0.87065   0.50000   0.00000  Uiso   1.00
O441   O     0.68573   0.79071   0.50000   0.00000  Uiso   1.00
O442   O     0.81427   0.70928   0.50000   0.00000  Uiso   1.00
O443   O     0.81427   0.79071   0.50000   0.00000  Uiso   1.00
O444   O     0.68573   0.70928   0.50000   0.00000  Uiso   1.00
O445   O     0.75000   0.79071   0.42946   0.00000  Uiso   1.00
O446   O     0.75000   0.70929   0.57054   0.00000  Uiso   1.00
O447   O     0.75000   0.79071   0.57054   0.00000  Uiso   1.00
O448   O     0.75000   0.70929   0.42946   0.00000  Uiso   1.00
C449   C     0.16528   0.25008   0.83289   0.00000  Uiso   1.00
C450   C     0.28443   0.44548   0.85823   0.00000  Uiso   1.00
C451   C     0.24986   0.25009   0.74026   0.00000  Uiso   1.00
C452   C     0.25003   0.24991   0.92640   0.00000  Uiso   1.00
C453   C     0.24720   0.02736   0.83540   0.00000  Uiso   1.00
C454   C     0.25267   0.47258   0.83011   0.00000  Uiso   1.00
C455   C     0.24985   0.25013   0.68852   0.00000  Uiso   1.00
C456   C     0.24992   0.24988   0.97813   0.00000  Uiso   1.00
C457   C     0.04738   0.26399   0.78832   0.00000  Uiso   1.00
C458   C     0.45546   0.20914   0.83784   0.00000  Uiso   1.00
C459   C     0.45321   0.29354   0.81886   0.00000  Uiso   1.00
C460   C     0.33528   0.24992   0.83153   0.00000  Uiso   1.00
C461   C     0.04926   0.23962   0.87421   0.00000  Uiso   1.00
C462   C     0.09331   0.26231   0.78846   0.00000  Uiso   1.00
C463   C     0.40956   0.20733   0.83592   0.00000  Uiso   1.00
C464   C     0.40718   0.29311   0.81786   0.00000  Uiso   1.00
C465   C     0.09525   0.23874   0.87506   0.00000  Uiso   1.00
C466   C     0.11738   0.25035   0.83212   0.00000  Uiso   1.00
C467   C     0.38424   0.25002   0.82839   0.00000  Uiso   1.00
C468   C     0.02537   0.25260   0.83105   0.00000  Uiso   1.00
C469   C     0.47722   0.25202   0.82994   0.00000  Uiso   1.00
C470   C     0.27297   0.10386   0.86957   0.00000  Uiso   1.00
C471   C     0.22552   0.39581   0.79821   0.00000  Uiso   1.00
C472   C     0.22047   0.10502   0.80314   0.00000  Uiso   1.00
C473   C     0.28010   0.39523   0.86254   0.00000  Uiso   1.00
C474   C     0.26869   0.05362   0.87364   0.00000  Uiso   1.00
C475   C     0.23001   0.44588   0.79303   0.00000  Uiso   1.00
C476   C     0.21596   0.05474   0.80688   0.00000  Uiso   1.00
Cl477  Cl    0.30676   0.13268   0.91439   0.00000  Uiso   1.00
Cl478  Cl    0.22308   0.46959   0.73260   0.00000  Uiso   1.00
Cl479  Cl    0.16277   0.03116   0.79262   0.00000  Uiso   1.00
Cl480  Cl    0.33733   0.46972   0.87259   0.00000  Uiso   1.00
Cl481  Cl    0.18839   0.36665   0.75728   0.00000  Uiso   1.00
Cl482  Cl    0.18492   0.13575   0.76073   0.00000  Uiso   1.00
Cl483  Cl    0.31543   0.36496   0.90549   0.00000  Uiso   1.00
Cl484  Cl    0.11950   0.27273   0.73273   0.00000  Uiso   1.00
Cl485  Cl    0.38720   0.14953   0.84060   0.00000  Uiso   1.00
Cl486  Cl    0.38107   0.34745   0.79992   0.00000  Uiso   1.00
Cl487  Cl    0.12421   0.22341   0.93044   0.00000  Uiso   1.00
Cl488  Cl    0.27485   0.02842   0.93355   0.00000  Uiso   1.00
Cu489  Cu    0.25000   0.29821   0.83333   0.00000  Uiso   1.00
Cu490  Cu    0.25000   0.20178   0.83333   0.00000  Uiso   1.00
H491   H     0.02876   0.27288   0.75462   0.00000  Uiso   1.00
H492   H     0.47446   0.17657   0.84432   0.00000  Uiso   1.00
H493   H     0.47044   0.32648   0.81107   0.00000  Uiso   1.00
H494   H     0.03208   0.23051   0.90719   0.00000  Uiso   1.00
N495   N     0.25000   0.12934   0.83333   0.00000  Uiso   1.00
N496   N     0.25000   0.37065   0.83333   0.00000  Uiso   1.00
O497   O     0.18573   0.29071   0.83334   0.00000  Uiso   1.00
O498   O     0.31427   0.20928   0.83333   0.00000  Uiso   1.00
O499   O     0.31427   0.29071   0.83333   0.00000  Uiso   1.00
O500   O     0.18573   0.20928   0.83334   0.00000  Uiso   1.00
O501   O     0.25000   0.29071   0.76280   0.00000  Uiso   1.00
O502   O     0.25000   0.20929   0.90387   0.00000  Uiso   1.00
O503   O     0.25000   0.29071   0.90387   0.00000  Uiso   1.00
O504   O     0.25000   0.20929   0.76280   0.00000  Uiso   1.00
C505   C     0.66528   0.25008   0.83289   0.00000  Uiso   1.00
C506   C     0.78443   0.44548   0.85823   0.00000  Uiso   1.00
C507   C     0.74986   0.25009   0.74026   0.00000  Uiso   1.00
C508   C     0.75003   0.24991   0.92640   0.00000  Uiso   1.00
C509   C     0.74720   0.02736   0.83540   0.00000  Uiso   1.00
C510   C     0.75267   0.47258   0.83011   0.00000  Uiso   1.00
C511   C     0.74985   0.25013   0.68852   0.00000  Uiso   1.00
C512   C     0.74992   0.24988   0.97813   0.00000  Uiso   1.00
C513   C     0.54738   0.26399   0.78832   0.00000  Uiso   1.00
C514   C     0.95546   0.20914   0.83784   0.00000  Uiso   1.00
C515   C     0.95321   0.29354   0.81886   0.00000  Uiso   1.00
C516   C     0.83528   0.24992   0.83153   0.00000  Uiso   1.00
C517   C     0.54926   0.23962   0.87421   0.00000  Uiso   1.00
C518   C     0.59331   0.26231   0.78846   0.00000  Uiso   1.00
C519   C     0.90956   0.20733   0.83592   0.00000  Uiso   1.00
C520   C     0.90718   0.29311   0.81786   0.00000  Uiso   1.00
C521   C     0.59525   0.23874   0.87506   0.00000  Uiso   1.00
C522   C     0.61738   0.25035   0.83212   0.00000  Uiso   1.00
C523   C     0.88424   0.25002   0.82839   0.00000  Uiso   1.00
C524   C     0.52537   0.25260   0.83105   0.00000  Uiso   1.00
C525   C     0.97722   0.25202   0.82994   0.00000  Uiso   1.00
C526   C     0.77297   0.10386   0.86957   0.00000  Uiso   1.00
C527   C     0.72552   0.39581   0.79821   0.00000  Uiso   1.00
C528   C     0.72047   0.10502   0.80314   0.00000  Uiso   1.00
C529   C     0.78010   0.39523   0.86254   0.00000  Uiso   1.00
C530   C     0.76869   0.05362   0.87364   0.00000  Uiso   1.00
C531   C     0.73001   0.44588   0.79303   0.00000  Uiso   1.00
C532   C     0.71596   0.05474   0.80688   0.00000  Uiso   1.00
Cl533  Cl    0.80676   0.13268   0.91439   0.00000  Uiso   1.00
Cl534  Cl    0.72308   0.46959   0.73260   0.00000  Uiso   1.00
Cl535  Cl    0.66277   0.03116   0.79262   0.00000  Uiso   1.00
Cl536  Cl    0.83733   0.46972   0.87259   0.00000  Uiso   1.00
Cl537  Cl    0.68839   0.36665   0.75728   0.00000  Uiso   1.00
Cl538  Cl    0.68492   0.13575   0.76073   0.00000  Uiso   1.00
Cl539  Cl    0.81543   0.36496   0.90549   0.00000  Uiso   1.00
Cl540  Cl    0.61950   0.27273   0.73273   0.00000  Uiso   1.00
Cl541  Cl    0.88720   0.14953   0.84060   0.00000  Uiso   1.00
Cl542  Cl    0.88107   0.34745   0.79992   0.00000  Uiso   1.00
Cl543  Cl    0.62421   0.22341   0.93044   0.00000  Uiso   1.00
Cl544  Cl    0.77485   0.02842   0.93355   0.00000  Uiso   1.00
Cu545  Cu    0.75000   0.29821   0.83333   0.00000  Uiso   1.00
Cu546  Cu    0.75000   0.20178   0.83333   0.00000  Uiso   1.00
H547   H     0.52876   0.27288   0.75462   0.00000  Uiso   1.00
H548   H     0.97446   0.17657   0.84432   0.00000  Uiso   1.00
H549   H     0.97044   0.32648   0.81107   0.00000  Uiso   1.00
H550   H     0.53208   0.23051   0.90719   0.00000  Uiso   1.00
N551   N     0.75000   0.12934   0.83333   0.00000  Uiso   1.00
N552   N     0.75000   0.37065   0.83333   0.00000  Uiso   1.00
O553   O     0.68573   0.29071   0.83334   0.00000  Uiso   1.00
O554   O     0.81427   0.20928   0.83333   0.00000  Uiso   1.00
O555   O     0.81427   0.29071   0.83333   0.00000  Uiso   1.00
O556   O     0.68573   0.20928   0.83334   0.00000  Uiso   1.00
O557   O     0.75000   0.29071   0.76280   0.00000  Uiso   1.00
O558   O     0.75000   0.20929   0.90387   0.00000  Uiso   1.00
O559   O     0.75000   0.29071   0.90387   0.00000  Uiso   1.00
O560   O     0.75000   0.20929   0.76280   0.00000  Uiso   1.00
C561   C     0.16528   0.75008   0.83289   0.00000  Uiso   1.00
C562   C     0.28443   0.94548   0.85823   0.00000  Uiso   1.00
C563   C     0.24986   0.75009   0.74026   0.00000  Uiso   1.00
C564   C     0.25003   0.74991   0.92640   0.00000  Uiso   1.00
C565   C     0.24720   0.52736   0.83540   0.00000  Uiso   1.00
C566   C     0.25267   0.97258   0.83011   0.00000  Uiso   1.00
C567   C     0.24985   0.75013   0.68852   0.00000  Uiso   1.00
C568   C     0.24992   0.74988   0.97813   0.00000  Uiso   1.00
C569   C     0.04738   0.76399   0.78832   0.00000  Uiso   1.00
C570   C     0.45546   0.70914   0.83784   0.00000  Uiso   1.00
C571   C     0.45321   0.79354   0.81886   0.00000  Uiso   1.00
C572   C     0.33528   0.74992   0.83153   0.00000  Uiso   1.00
C573   C     0.04926   0.73962   0.87421   0.00000  Uiso   1.00
C574   C     0.09331   0.76231   0.78846   0.00000  Uiso   1.00
C575   C     0.40956   0.70733   0.83592   0.00000  Uiso   1.00
C576   C     0.40718   0.79311   0.81786   0.00000  Uiso   1.00
C577   C     0.09525   0.73874   0.87506   0.00000  Uiso   1.00
C578   C     0.11738   0.75035   0.83212   0.00000  Uiso   1.00
C579   C     0.38424   0.75002   0.82839   0.00000  Uiso   1.00
C580   C     0.02537   0.75260   0.83105   0.00000  Uiso   1.00
C581   C     0.47722   0.75202   0.82994   0.00000  Uiso   1.00
C582   C     0.27297   0.60386   0.86957   0.00000  Uiso   1.00
C583   C     0.22552   0.89581   0.79821   0.00000  Uiso   1.00
C584   C     0.22047   0.60502   0.80314   0.00000  Uiso   1.00
C585   C     0.28010   0.89523   0.86254   0.00000  Uiso   1.00
C586   C     0.26869   0.55362   0.87364   0.00000  Uiso   1.00
C587   C     0.23001   0.94588   0.79303   0.00000  Uiso   1.00
C588   C     0.21596   0.55474   0.80688   0.00000  Uiso   1.00
Cl589  Cl    0.30676   0.63268   0.91439   0.00000  Uiso   1.00
Cl590  Cl    0.22308   0.96959   0.73260   0.00000  Uiso   1.00
Cl591  Cl    0.16277   0.53116   0.79262   0.00000  Uiso   1.00
Cl592  Cl    0.33733   0.96972   0.87259   0.00000  Uiso   1.00
Cl593  Cl    0.18839   0.86665   0.75728   0.00000  Uiso   1.00
Cl594  Cl    0.18492   0.63575   0.76073   0.00000  Uiso   1.00
Cl595  Cl    0.31543   0.86496   0.90549   0.00000  Uiso   1.00
Cl596  Cl    0.11950   0.77273   0.73273   0.00000  Uiso   1.00
Cl597  Cl    0.38720   0.64953   0.84060   0.00000  Uiso   1.00
Cl598  Cl    0.38107   0.84745   0.79992   0.00000  Uiso   1.00
Cl599  Cl    0.12421   0.72341   0.93044   0.00000  Uiso   1.00
Cl600  Cl    0.27485   0.52842   0.93355   0.00000  Uiso   1.00
Cu601  Cu    0.25000   0.79821   0.83333   0.00000  Uiso   1.00
Cu602  Cu    0.25000   0.70178   0.83333   0.00000  Uiso   1.00
H603   H     0.02876   0.77288   0.75462   0.00000  Uiso   1.00
H604   H     0.47446   0.67657   0.84432   0.00000  Uiso   1.00
H605   H     0.47044   0.82648   0.81107   0.00000  Uiso   1.00
H606   H     0.03208   0.73051   0.90719   0.00000  Uiso   1.00
N607   N     0.25000   0.62934   0.83333   0.00000  Uiso   1.00
N608   N     0.25000   0.87065   0.83333   0.00000  Uiso   1.00
O609   O     0.18573   0.79071   0.83334   0.00000  Uiso   1.00
O610   O     0.31427   0.70928   0.83333   0.00000  Uiso   1.00
O611   O     0.31427   0.79071   0.83333   0.00000  Uiso   1.00
O612   O     0.18573   0.70928   0.83334   0.00000  Uiso   1.00
O613   O     0.25000   0.79071   0.76280   0.00000  Uiso   1.00
O614   O     0.25000   0.70929   0.90387   0.00000  Uiso   1.00
O615   O     0.25000   0.79071   0.90387   0.00000  Uiso   1.00
O616   O     0.25000   0.70929   0.76280   0.00000  Uiso   1.00
C617   C     0.66528   0.75008   0.83289   0.00000  Uiso   1.00
C618   C     0.78443   0.94548   0.85823   0.00000  Uiso   1.00
C619   C     0.74986   0.75009   0.74026   0.00000  Uiso   1.00
C620   C     0.75003   0.74991   0.92640   0.00000  Uiso   1.00
C621   C     0.74720   0.52736   0.83540   0.00000  Uiso   1.00
C622   C     0.75267   0.97258   0.83011   0.00000  Uiso   1.00
C623   C     0.74985   0.75013   0.68852   0.00000  Uiso   1.00
C624   C     0.74992   0.74988   0.97813   0.00000  Uiso   1.00
C625   C     0.54738   0.76399   0.78832   0.00000  Uiso   1.00
C626   C     0.95546   0.70914   0.83784   0.00000  Uiso   1.00
C627   C     0.95321   0.79354   0.81886   0.00000  Uiso   1.00
C628   C     0.83528   0.74992   0.83153   0.00000  Uiso   1.00
C629   C     0.54926   0.73962   0.87421   0.00000  Uiso   1.00
C630   C     0.59331   0.76231   0.78846   0.00000  Uiso   1.00
C631   C     0.90956   0.70733   0.83592   0.00000  Uiso   1.00
C632   C     0.90718   0.79311   0.81786   0.00000  Uiso   1.00
C633   C     0.59525   0.73874   0.87506   0.00000  Uiso   1.00
C634   C     0.61738   0.75035   0.83212   0.00000  Uiso   1.00
C635   C     0.88424   0.75002   0.82839   0.00000  Uiso   1.00
C636   C     0.52537   0.75260   0.83105   0.00000  Uiso   1.00
C637   C     0.97722   0.75202   0.82994   0.00000  Uiso   1.00
C638   C     0.77297   0.60386   0.86957   0.00000  Uiso   1.00
C639   C     0.72552   0.89581   0.79821   0.00000  Uiso   1.00
C640   C     0.72047   0.60502   0.80314   0.00000  Uiso   1.00
C641   C     0.78010   0.89523   0.86254   0.00000  Uiso   1.00
C642   C     0.76869   0.55362   0.87364   0.00000  Uiso   1.00
C643   C     0.73001   0.94588   0.79303   0.00000  Uiso   1.00
C644   C     0.71596   0.55474   0.80688   0.00000  Uiso   1.00
Cl645  Cl    0.80676   0.63268   0.91439   0.00000  Uiso   1.00
Cl646  Cl    0.72308   0.96959   0.73260   0.00000  Uiso   1.00
Cl647  Cl    0.66277   0.53116   0.79262   0.00000  Uiso   1.00
Cl648  Cl    0.83733   0.96972   0.87259   0.00000  Uiso   1.00
Cl649  Cl    0.68839   0.86665   0.75728   0.00000  Uiso   1.00
Cl650  Cl    0.68492   0.63575   0.76073   0.00000  Uiso   1.00
Cl651  Cl    0.81543   0.86496   0.90549   0.00000  Uiso   1.00
Cl652  Cl    0.61950   0.77273   0.73273   0.00000  Uiso   1.00
Cl653  Cl    0.88720   0.64953   0.84060   0.00000  Uiso   1.00
Cl654  Cl    0.88107   0.84745   0.79992   0.00000  Uiso   1.00
Cl655  Cl    0.62421   0.72341   0.93044   0.00000  Uiso   1.00
Cl656  Cl    0.77485   0.52842   0.93355   0.00000  Uiso   1.00
Cu657  Cu    0.75000   0.79821   0.83333   0.00000  Uiso   1.00
Cu658  Cu    0.75000   0.70178   0.83333   0.00000  Uiso   1.00
H659   H     0.52876   0.77288   0.75462   0.00000  Uiso   1.00
H660   H     0.97446   0.67657   0.84432   0.00000  Uiso   1.00
H661   H     0.97044   0.82648   0.81107   0.00000  Uiso   1.00
H662   H     0.53208   0.73051   0.90719   0.00000  Uiso   1.00
N663   N     0.75000   0.62934   0.83333   0.00000  Uiso   1.00
N664   N     0.75000   0.87065   0.83333   0.00000  Uiso   1.00
O665   O     0.68573   0.79071   0.83334   0.00000  Uiso   1.00
O666   O     0.81427   0.70928   0.83333   0.00000  Uiso   1.00
O667   O     0.81427   0.79071   0.83333   0.00000  Uiso   1.00
O668   O     0.68573   0.70928   0.83334   0.00000  Uiso   1.00
O669   O     0.75000   0.79071   0.76280   0.00000  Uiso   1.00
O670   O     0.75000   0.70929   0.90387   0.00000  Uiso   1.00
O671   O     0.75000   0.79071   0.90387   0.00000  Uiso   1.00
O672   O     0.75000   0.70929   0.76280   0.00000  Uiso   1.00
loop_
_geom_bond_atom_site_label_1
_geom_bond_atom_site_label_2
_geom_bond_distance
_geom_bond_site_symmetry_2
_ccdc_geom_bond_type
C1     C18     1.450   .     S
C1     O52     1.295   .     A
C1     O49     1.296   .     A
C2     C6      1.418   .     A
C2     C25     1.416   .     A
C2     Cl32    1.773   .     S
C3     O56     1.291   .     A
C3     O53     1.293   .     A
C3     C7      1.407   .     S
C4     C8      1.407   .     S
C4     O55     1.291   .     A
C4     O54     1.293   .     A
C5     C28     1.418   .     A
C5     C26     1.416   .     A
C5     C118    1.548   1_545 S
C6     C27     1.416   .     A
C6     C117    1.548   .     S
C7     C456    1.189   1_554 S
C8     C231    1.189   .     S
C9     C14     1.391   .     A
C9     C20     1.398   .     A
C9     H43     1.084   .     S
C10    C21     1.390   .     A
C10    H44     1.084   .     S
C10    C15     1.390   .     A
C11    C16     1.393   .     A
C11    H45     1.084   .     S
C11    C21     1.392   .     A
C12    O50     1.306   .     A
C12    C19     1.488   .     S
C12    O51     1.305   .     A
C13    C17     1.392   .     A
C13    H46     1.084   .     S
C13    C20     1.399   .     A
C14    C18     1.406   .     A
C14    Cl36    1.761   .     S
C15    C19     1.425   .     A
C15    Cl37    1.760   .     S
C16    C19     1.426   .     A
C16    Cl38    1.766   .     S
C17    C18     1.406   .     A
C17    Cl39    1.762   .     S
C20    C77     1.457   1_455 S
C21    C76     1.457   .     S
C22    Cl29    1.761   .     S
C22    N47     1.377   .     A
C22    C26     1.415   .     A
C23    C27     1.413   .     A
C23    N48     1.374   .     A
C23    Cl33    1.758   .     S
C24    N47     1.375   .     A
C24    Cl34    1.763   .     S
C24    C28     1.416   .     A
C25    N48     1.374   .     A
C25    Cl35    1.762   .     S
C26    Cl40    1.774   .     S
C27    Cl30    1.773   .     S
C28    Cl31    1.773   .     S
Cu41   O53     1.931   .     S
Cu41   O55     1.928   .     S
Cu41   O49     1.958   .     S
Cu41   N48     2.025   .     S
Cu41   Cu42    2.695   .     S
Cu41   O51     1.956   .     S
Cu42   O54     1.931   .     S
Cu42   O50     1.958   .     S
Cu42   N47     2.025   .     S
Cu42   O56     1.928   .     S
Cu42   O52     1.956   .     S
C57    C74     1.450   .     S
C57    O108    1.295   .     A
C57    O105    1.296   .     A
C58    C62     1.418   .     A
C58    C81     1.416   .     A
C58    Cl88    1.773   .     S
C59    O112    1.291   .     A
C59    O109    1.293   .     A
C59    C63     1.407   .     S
C60    C64     1.407   .     S
C60    O111    1.291   .     A
C60    O110    1.293   .     A
C61    C84     1.418   .     A
C61    C82     1.416   .     A
C61    C174    1.548   1_545 S
C62    C83     1.416   .     A
C62    C173    1.548   .     S
C63    C512    1.189   1_554 S
C64    C287    1.189   .     S
C65    C70     1.391   .     A
C65    C76     1.398   .     A
C65    H99     1.084   .     S
C66    C77     1.390   .     A
C66    H100    1.084   .     S
C66    C71     1.390   .     A
C67    C72     1.393   .     A
C67    H101    1.084   .     S
C67    C77     1.392   .     A
C68    O106    1.306   .     A
C68    C75     1.488   .     S
C68    O107    1.305   .     A
C69    C73     1.392   .     A
C69    H102    1.084   .     S
C69    C76     1.399   .     A
C70    C74     1.406   .     A
C70    Cl92    1.761   .     S
C71    C75     1.425   .     A
C71    Cl93    1.760   .     S
C72    C75     1.426   .     A
C72    Cl94    1.766   .     S
C73    C74     1.406   .     A
C73    Cl95    1.762   .     S
C77    C20     1.457   1_655 S
C78    Cl85    1.761   .     S
C78    N103    1.377   .     A
C78    C82     1.415   .     A
C79    C83     1.413   .     A
C79    N104    1.374   .     A
C79    Cl89    1.758   .     S
C80    N103    1.375   .     A
C80    Cl90    1.763   .     S
C80    C84     1.416   .     A
C81    N104    1.374   .     A
C81    Cl91    1.762   .     S
C82    Cl96    1.774   .     S
C83    Cl86    1.773   .     S
C84    Cl87    1.773   .     S
Cu97   O109    1.931   .     S
Cu97   O111    1.928   .     S
Cu97   O105    1.958   .     S
Cu97   N104    2.025   .     S
Cu97   Cu98    2.695   .     S
Cu97   O107    1.956   .     S
Cu98   O110    1.931   .     S
Cu98   O106    1.958   .     S
Cu98   N103    2.025   .     S
Cu98   O112    1.928   .     S
Cu98   O108    1.956   .     S
C113   C130    1.450   .     S
C113   O164    1.295   .     A
C113   O161    1.296   .     A
C114   C118    1.418   .     A
C114   C137    1.416   .     A
C114   Cl144   1.773   .     S
C115   O168    1.291   .     A
C115   O165    1.293   .     A
C115   C119    1.407   .     S
C116   C120    1.407   .     S
C116   O167    1.291   .     A
C116   O166    1.293   .     A
C117   C140    1.418   .     A
C117   C138    1.416   .     A
C118   C139    1.416   .     A
C118   C5      1.548   1_565 S
C119   C568    1.189   1_554 S
C120   C343    1.189   .     S
C121   C126    1.391   .     A
C121   C132    1.398   .     A
C121   H155    1.084   .     S
C122   C133    1.390   .     A
C122   H156    1.084   .     S
C122   C127    1.390   .     A
C123   C128    1.393   .     A
C123   H157    1.084   .     S
C123   C133    1.392   .     A
C124   O162    1.306   .     A
C124   C131    1.488   .     S
C124   O163    1.305   .     A
C125   C129    1.392   .     A
C125   H158    1.084   .     S
C125   C132    1.399   .     A
C126   C130    1.406   .     A
C126   Cl148   1.761   .     S
C127   C131    1.425   .     A
C127   Cl149   1.760   .     S
C128   C131    1.426   .     A
C128   Cl150   1.766   .     S
C129   C130    1.406   .     A
C129   Cl151   1.762   .     S
C132   C189    1.457   1_455 S
C133   C188    1.457   .     S
C134   Cl141   1.761   .     S
C134   N159    1.377   .     A
C134   C138    1.415   .     A
C135   C139    1.413   .     A
C135   N160    1.374   .     A
C135   Cl145   1.758   .     S
C136   N159    1.375   .     A
C136   Cl146   1.763   .     S
C136   C140    1.416   .     A
C137   N160    1.374   .     A
C137   Cl147   1.762   .     S
C138   Cl152   1.774   .     S
C139   Cl142   1.773   .     S
C140   Cl143   1.773   .     S
Cu153  O165    1.931   .     S
Cu153  O167    1.928   .     S
Cu153  O161    1.958   .     S
Cu153  N160    2.025   .     S
Cu153  Cu154   2.695   .     S
Cu153  O163    1.956   .     S
Cu154  O166    1.931   .     S
Cu154  O162    1.958   .     S
Cu154  N159    2.025   .     S
Cu154  O168    1.928   .     S
Cu154  O164    1.956   .     S
C169   C186    1.450   .     S
C169   O220    1.295   .     A
C169   O217    1.296   .     A
C170   C174    1.418   .     A
C170   C193    1.416   .     A
C170   Cl200   1.773   .     S
C171   O224    1.291   .     A
C171   O221    1.293   .     A
C171   C175    1.407   .     S
C172   C176    1.407   .     S
C172   O223    1.291   .     A
C172   O222    1.293   .     A
C173   C196    1.418   .     A
C173   C194    1.416   .     A
C174   C195    1.416   .     A
C174   C61     1.548   1_565 S
C175   C624    1.189   1_554 S
C176   C399    1.189   .     S
C177   C182    1.391   .     A
C177   C188    1.398   .     A
C177   H211    1.084   .     S
C178   C189    1.390   .     A
C178   H212    1.084   .     S
C178   C183    1.390   .     A
C179   C184    1.393   .     A
C179   H213    1.084   .     S
C179   C189    1.392   .     A
C180   O218    1.306   .     A
C180   C187    1.488   .     S
C180   O219    1.305   .     A
C181   C185    1.392   .     A
C181   H214    1.084   .     S
C181   C188    1.399   .     A
C182   C186    1.406   .     A
C182   Cl204   1.761   .     S
C183   C187    1.425   .     A
C183   Cl205   1.760   .     S
C184   C187    1.426   .     A
C184   Cl206   1.766   .     S
C185   C186    1.406   .     A
C185   Cl207   1.762   .     S
C189   C132    1.457   1_655 S
C190   Cl197   1.761   .     S
C190   N215    1.377   .     A
C190   C194    1.415   .     A
C191   C195    1.413   .     A
C191   N216    1.374   .     A
C191   Cl201   1.758   .     S
C192   N215    1.375   .     A
C192   Cl202   1.763   .     S
C192   C196    1.416   .     A
C193   N216    1.374   .     A
C193   Cl203   1.762   .     S
C194   Cl208   1.774   .     S
C195   Cl198   1.773   .     S
C196   Cl199   1.773   .     S
Cu209  O221    1.931   .     S
Cu209  O223    1.928   .     S
Cu209  O217    1.958   .     S
Cu209  N216    2.025   .     S
Cu209  Cu210   2.695   .     S
Cu209  O219    1.956   .     S
Cu210  O222    1.931   .     S
Cu210  O218    1.958   .     S
Cu210  N215    2.025   .     S
Cu210  O224    1.928   .     S
Cu210  O220    1.956   .     S
C225   C242    1.450   .     S
C225   O276    1.295   .     A
C225   O273    1.296   .     A
C226   C230    1.418   .     A
C226   C249    1.416   .     A
C226   Cl256   1.773   .     S
C227   O280    1.291   .     A
C227   O277    1.293   .     A
C227   C231    1.407   .     S
C228   C232    1.407   .     S
C228   O279    1.291   .     A
C228   O278    1.293   .     A
C229   C252    1.418   .     A
C229   C250    1.416   .     A
C229   C342    1.548   1_545 S
C230   C251    1.416   .     A
C230   C341    1.548   .     S
C232   C455    1.189   .     S
C233   C238    1.391   .     A
C233   C244    1.398   .     A
C233   H267    1.084   .     S
C234   C245    1.390   .     A
C234   H268    1.084   .     S
C234   C239    1.390   .     A
C235   C240    1.393   .     A
C235   H269    1.084   .     S
C235   C245    1.392   .     A
C236   O274    1.306   .     A
C236   C243    1.488   .     S
C236   O275    1.305   .     A
C237   C241    1.392   .     A
C237   H270    1.084   .     S
C237   C244    1.399   .     A
C238   C242    1.406   .     A
C238   Cl260   1.761   .     S
C239   C243    1.425   .     A
C239   Cl261   1.760   .     S
C240   C243    1.426   .     A
C240   Cl262   1.766   .     S
C241   C242    1.406   .     A
C241   Cl263   1.762   .     S
C244   C301    1.457   1_455 S
C245   C300    1.457   .     S
C246   Cl253   1.761   .     S
C246   N271    1.377   .     A
C246   C250    1.415   .     A
C247   C251    1.413   .     A
C247   N272    1.374   .     A
C247   Cl257   1.758   .     S
C248   N271    1.375   .     A
C248   Cl258   1.763   .     S
C248   C252    1.416   .     A
C249   N272    1.374   .     A
C249   Cl259   1.762   .     S
C250   Cl264   1.774   .     S
C251   Cl254   1.773   .     S
C252   Cl255   1.773   .     S
Cu265  O277    1.931   .     S
Cu265  O279    1.928   .     S
Cu265  O273    1.958   .     S
Cu265  N272    2.025   .     S
Cu265  Cu266   2.695   .     S
Cu265  O275    1.956   .     S
Cu266  O278    1.931   .     S
Cu266  O274    1.958   .     S
Cu266  N271    2.025   .     S
Cu266  O280    1.928   .     S
Cu266  O276    1.956   .     S
C281   C298    1.450   .     S
C281   O332    1.295   .     A
C281   O329    1.296   .     A
C282   C286    1.418   .     A
C282   C305    1.416   .     A
C282   Cl312   1.773   .     S
C283   O336    1.291   .     A
C283   O333    1.293   .     A
C283   C287    1.407   .     S
C284   C288    1.407   .     S
C284   O335    1.291   .     A
C284   O334    1.293   .     A
C285   C308    1.418   .     A
C285   C306    1.416   .     A
C285   C398    1.548   1_545 S
C286   C307    1.416   .     A
C286   C397    1.548   .     S
C288   C511    1.189   .     S
C289   C294    1.391   .     A
C289   C300    1.398   .     A
C289   H323    1.084   .     S
C290   C301    1.390   .     A
C290   H324    1.084   .     S
C290   C295    1.390   .     A
C291   C296    1.393   .     A
C291   H325    1.084   .     S
C291   C301    1.392   .     A
C292   O330    1.306   .     A
C292   C299    1.488   .     S
C292   O331    1.305   .     A
C293   C297    1.392   .     A
C293   H326    1.084   .     S
C293   C300    1.399   .     A
C294   C298    1.406   .     A
C294   Cl316   1.761   .     S
C295   C299    1.425   .     A
C295   Cl317   1.760   .     S
C296   C299    1.426   .     A
C296   Cl318   1.766   .     S
C297   C298    1.406   .     A
C297   Cl319   1.762   .     S
C301   C244    1.457   1_655 S
C302   Cl309   1.761   .     S
C302   N327    1.377   .     A
C302   C306    1.415   .     A
C303   C307    1.413   .     A
C303   N328    1.374   .     A
C303   Cl313   1.758   .     S
C304   N327    1.375   .     A
C304   Cl314   1.763   .     S
C304   C308    1.416   .     A
C305   N328    1.374   .     A
C305   Cl315   1.762   .     S
C306   Cl320   1.774   .     S
C307   Cl310   1.773   .     S
C308   Cl311   1.773   .     S
Cu321  O333    1.931   .     S
Cu321  O335    1.928   .     S
Cu321  O329    1.958   .     S
Cu321  N328    2.025   .     S
Cu321  Cu322   2.695   .     S
Cu321  O331    1.956   .     S
Cu322  O334    1.931   .     S
Cu322  O330    1.958   .     S
Cu322  N327    2.025   .     S
Cu322  O336    1.928   .     S
Cu322  O332    1.956   .     S
C337   C354    1.450   .     S
C337   O388    1.295   .     A
C337   O385    1.296   .     A
C338   C342    1.418   .     A
C338   C361    1.416   .     A
C338   Cl368   1.773   .     S
C339   O392    1.291   .     A
C339   O389    1.293   .     A
C339   C343    1.407   .     S
C340   C344    1.407   .     S
C340   O391    1.291   .     A
C340   O390    1.293   .     A
C341   C364    1.418   .     A
C341   C362    1.416   .     A
C342   C363    1.416   .     A
C342   C229    1.548   1_565 S
C344   C567    1.189   .     S
C345   C350    1.391   .     A
C345   C356    1.398   .     A
C345   H379    1.084   .     S
C346   C357    1.390   .     A
C346   H380    1.084   .     S
C346   C351    1.390   .     A
C347   C352    1.393   .     A
C347   H381    1.084   .     S
C347   C357    1.392   .     A
C348   O386    1.306   .     A
C348   C355    1.488   .     S
C348   O387    1.305   .     A
C349   C353    1.392   .     A
C349   H382    1.084   .     S
C349   C356    1.399   .     A
C350   C354    1.406   .     A
C350   Cl372   1.761   .     S
C351   C355    1.425   .     A
C351   Cl373   1.760   .     S
C352   C355    1.426   .     A
C352   Cl374   1.766   .     S
C353   C354    1.406   .     A
C353   Cl375   1.762   .     S
C356   C413    1.457   1_455 S
C357   C412    1.457   .     S
C358   Cl365   1.761   .     S
C358   N383    1.377   .     A
C358   C362    1.415   .     A
C359   C363    1.413   .     A
C359   N384    1.374   .     A
C359   Cl369   1.758   .     S
C360   N383    1.375   .     A
C360   Cl370   1.763   .     S
C360   C364    1.416   .     A
C361   N384    1.374   .     A
C361   Cl371   1.762   .     S
C362   Cl376   1.774   .     S
C363   Cl366   1.773   .     S
C364   Cl367   1.773   .     S
Cu377  O389    1.931   .     S
Cu377  O391    1.928   .     S
Cu377  O385    1.958   .     S
Cu377  N384    2.025   .     S
Cu377  Cu378   2.695   .     S
Cu377  O387    1.956   .     S
Cu378  O390    1.931   .     S
Cu378  O386    1.958   .     S
Cu378  N383    2.025   .     S
Cu378  O392    1.928   .     S
Cu378  O388    1.956   .     S
C393   C410    1.450   .     S
C393   O444    1.295   .     A
C393   O441    1.296   .     A
C394   C398    1.418   .     A
C394   C417    1.416   .     A
C394   Cl424   1.773   .     S
C395   O448    1.291   .     A
C395   O445    1.293   .     A
C395   C399    1.407   .     S
C396   C400    1.407   .     S
C396   O447    1.291   .     A
C396   O446    1.293   .     A
C397   C420    1.418   .     A
C397   C418    1.416   .     A
C398   C419    1.416   .     A
C398   C285    1.548   1_565 S
C400   C623    1.189   .     S
C401   C406    1.391   .     A
C401   C412    1.398   .     A
C401   H435    1.084   .     S
C402   C413    1.390   .     A
C402   H436    1.084   .     S
C402   C407    1.390   .     A
C403   C408    1.393   .     A
C403   H437    1.084   .     S
C403   C413    1.392   .     A
C404   O442    1.306   .     A
C404   C411    1.488   .     S
C404   O443    1.305   .     A
C405   C409    1.392   .     A
C405   H438    1.084   .     S
C405   C412    1.399   .     A
C406   C410    1.406   .     A
C406   Cl428   1.761   .     S
C407   C411    1.425   .     A
C407   Cl429   1.760   .     S
C408   C411    1.426   .     A
C408   Cl430   1.766   .     S
C409   C410    1.406   .     A
C409   Cl431   1.762   .     S
C413   C356    1.457   1_655 S
C414   Cl421   1.761   .     S
C414   N439    1.377   .     A
C414   C418    1.415   .     A
C415   C419    1.413   .     A
C415   N440    1.374   .     A
C415   Cl425   1.758   .     S
C416   N439    1.375   .     A
C416   Cl426   1.763   .     S
C416   C420    1.416   .     A
C417   N440    1.374   .     A
C417   Cl427   1.762   .     S
C418   Cl432   1.774   .     S
C419   Cl422   1.773   .     S
C420   Cl423   1.773   .     S
Cu433  O445    1.931   .     S
Cu433  O447    1.928   .     S
Cu433  O441    1.958   .     S
Cu433  N440    2.025   .     S
Cu433  Cu434   2.695   .     S
Cu433  O443    1.956   .     S
Cu434  O446    1.931   .     S
Cu434  O442    1.958   .     S
Cu434  N439    2.025   .     S
Cu434  O448    1.928   .     S
Cu434  O444    1.956   .     S
C449   C466    1.450   .     S
C449   O500    1.295   .     A
C449   O497    1.296   .     A
C450   C454    1.418   .     A
C450   C473    1.416   .     A
C450   Cl480   1.773   .     S
C451   O504    1.291   .     A
C451   O501    1.293   .     A
C451   C455    1.407   .     S
C452   C456    1.407   .     S
C452   O503    1.291   .     A
C452   O502    1.293   .     A
C453   C476    1.418   .     A
C453   C474    1.416   .     A
C453   C566    1.548   1_545 S
C454   C475    1.416   .     A
C454   C565    1.548   .     S
C456   C7      1.189   1_556 S
C457   C462    1.391   .     A
C457   C468    1.398   .     A
C457   H491    1.084   .     S
C458   C469    1.390   .     A
C458   H492    1.084   .     S
C458   C463    1.390   .     A
C459   C464    1.393   .     A
C459   H493    1.084   .     S
C459   C469    1.392   .     A
C460   O498    1.306   .     A
C460   C467    1.488   .     S
C460   O499    1.305   .     A
C461   C465    1.392   .     A
C461   H494    1.084   .     S
C461   C468    1.399   .     A
C462   C466    1.406   .     A
C462   Cl484   1.761   .     S
C463   C467    1.425   .     A
C463   Cl485   1.760   .     S
C464   C467    1.426   .     A
C464   Cl486   1.766   .     S
C465   C466    1.406   .     A
C465   Cl487   1.762   .     S
C468   C525    1.457   1_455 S
C469   C524    1.457   .     S
C470   Cl477   1.761   .     S
C470   N495    1.377   .     A
C470   C474    1.415   .     A
C471   C475    1.413   .     A
C471   N496    1.374   .     A
C471   Cl481   1.758   .     S
C472   N495    1.375   .     A
C472   Cl482   1.763   .     S
C472   C476    1.416   .     A
C473   N496    1.374   .     A
C473   Cl483   1.762   .     S
C474   Cl488   1.774   .     S
C475   Cl478   1.773   .     S
C476   Cl479   1.773   .     S
Cu489  O501    1.931   .     S
Cu489  O503    1.928   .     S
Cu489  O497    1.958   .     S
Cu489  N496    2.025   .     S
Cu489  Cu490   2.695   .     S
Cu489  O499    1.956   .     S
Cu490  O502    1.931   .     S
Cu490  O498    1.958   .     S
Cu490  N495    2.025   .     S
Cu490  O504    1.928   .     S
Cu490  O500    1.956   .     S
C505   C522    1.450   .     S
C505   O556    1.295   .     A
C505   O553    1.296   .     A
C506   C510    1.418   .     A
C506   C529    1.416   .     A
C506   Cl536   1.773   .     S
C507   O560    1.291   .     A
C507   O557    1.293   .     A
C507   C511    1.407   .     S
C508   C512    1.407   .     S
C508   O559    1.291   .     A
C508   O558    1.293   .     A
C509   C532    1.418   .     A
C509   C530    1.416   .     A
C509   C622    1.548   1_545 S
C510   C531    1.416   .     A
C510   C621    1.548   .     S
C512   C63     1.189   1_556 S
C513   C518    1.391   .     A
C513   C524    1.398   .     A
C513   H547    1.084   .     S
C514   C525    1.390   .     A
C514   H548    1.084   .     S
C514   C519    1.390   .     A
C515   C520    1.393   .     A
C515   H549    1.084   .     S
C515   C525    1.392   .     A
C516   O554    1.306   .     A
C516   C523    1.488   .     S
C516   O555    1.305   .     A
C517   C521    1.392   .     A
C517   H550    1.084   .     S
C517   C524    1.399   .     A
C518   C522    1.406   .     A
C518   Cl540   1.761   .     S
C519   C523    1.425   .     A
C519   Cl541   1.760   .     S
C520   C523    1.426   .     A
C520   Cl542   1.766   .     S
C521   C522    1.406   .     A
C521   Cl543   1.762   .     S
C525   C468    1.457   1_655 S
C526   Cl533   1.761   .     S
C526   N551    1.377   .     A
C526   C530    1.415   .     A
C527   C531    1.413   .     A
C527   N552    1.374   .     A
C527   Cl537   1.758   .     S
C528   N551    1.375   .     A
C528   Cl538   1.763   .     S
C528   C532    1.416   .     A
C529   N552    1.374   .     A
C529   Cl539   1.762   .     S
C530   Cl544   1.774   .     S
C531   Cl534   1.773   .     S
C532   Cl535   1.773   .     S
Cu545  O557    1.931   .     S
Cu545  O559    1.928   .     S
Cu545  O553    1.958   .     S
Cu545  N552    2.025   .     S
Cu545  Cu546   2.695   .     S
Cu545  O555    1.956   .     S
Cu546  O558    1.931   .     S
Cu546  O554    1.958   .     S
Cu546  N551    2.025   .     S
Cu546  O560    1.928   .     S
Cu546  O556    1.956   .     S
C561   C578    1.450   .     S
C561   O612    1.295   .     A
C561   O609    1.296   .     A
C562   C566    1.418   .     A
C562   C585    1.416   .     A
C562   Cl592   1.773   .     S
C563   O616    1.291   .     A
C563   O613    1.293   .     A
C563   C567    1.407   .     S
C564   C568    1.407   .     S
C564   O615    1.291   .     A
C564   O614    1.293   .     A
C565   C588    1.418   .     A
C565   C586    1.416   .     A
C566   C587    1.416   .     A
C566   C453    1.548   1_565 S
C568   C119    1.189   1_556 S
C569   C574    1.391   .     A
C569   C580    1.398   .     A
C569   H603    1.084   .     S
C570   C581    1.390   .     A
C570   H604    1.084   .     S
C570   C575    1.390   .     A
C571   C576    1.393   .     A
C571   H605    1.084   .     S
C571   C581    1.392   .     A
C572   O610    1.306   .     A
C572   C579    1.488   .     S
C572   O611    1.305   .     A
C573   C577    1.392   .     A
C573   H606    1.084   .     S
C573   C580    1.399   .     A
C574   C578    1.406   .     A
C574   Cl596   1.761   .     S
C575   C579    1.425   .     A
C575   Cl597   1.760   .     S
C576   C579    1.426   .     A
C576   Cl598   1.766   .     S
C577   C578    1.406   .     A
C577   Cl599   1.762   .     S
C580   C637    1.457   1_455 S
C581   C636    1.457   .     S
C582   Cl589   1.761   .     S
C582   N607    1.377   .     A
C582   C586    1.415   .     A
C583   C587    1.413   .     A
C583   N608    1.374   .     A
C583   Cl593   1.758   .     S
C584   N607    1.375   .     A
C584   Cl594   1.763   .     S
C584   C588    1.416   .     A
C585   N608    1.374   .     A
C585   Cl595   1.762   .     S
C586   Cl600   1.774   .     S
C587   Cl590   1.773   .     S
C588   Cl591   1.773   .     S
Cu601  O613    1.931   .     S
Cu601  O615    1.928   .     S
Cu601  O609    1.958   .     S
Cu601  N608    2.025   .     S
Cu601  Cu602   2.695   .     S
Cu601  O611    1.956   .     S
Cu602  O614    1.931   .     S
Cu602  O610    1.958   .     S
Cu602  N607    2.025   .     S
Cu602  O616    1.928   .     S
Cu602  O612    1.956   .     S
C617   C634    1.450   .     S
C617   O668    1.295   .     A
C617   O665    1.296   .     A
C618   C622    1.418   .     A
C618   C641    1.416   .     A
C618   Cl648   1.773   .     S
C619   O672    1.291   .     A
C619   O669    1.293   .     A
C619   C623    1.407   .     S
C620   C624    1.407   .     S
C620   O671    1.291   .     A
C620   O670    1.293   .     A
C621   C644    1.418   .     A
C621   C642    1.416   .     A
C622   C643    1.416   .     A
C622   C509    1.548   1_565 S
C624   C175    1.189   1_556 S
C625   C630    1.391   .     A
C625   C636    1.398   .     A
C625   H659    1.084   .     S
C626   C637    1.390   .     A
C626   H660    1.084   .     S
C626   C631    1.390   .     A
C627   C632    1.393   .     A
C627   H661    1.084   .     S
C627   C637    1.392   .     A
C628   O666    1.306   .     A
C628   C635    1.488   .     S
C628   O667    1.305   .     A
C629   C633    1.392   .     A
C629   H662    1.084   .     S
C629   C636    1.399   .     A
C630   C634    1.406   .     A
C630   Cl652   1.761   .     S
C631   C635    1.425   .     A
C631   Cl653   1.760   .     S
C632   C635    1.426   .     A
C632   Cl654   1.766   .     S
C633   C634    1.406   .     A
C633   Cl655   1.762   .     S
C637   C580    1.457   1_655 S
C638   Cl645   1.761   .     S
C638   N663    1.377   .     A
C638   C642    1.415   .     A
C639   C643    1.413   .     A
C639   N664    1.374   .     A
C639   Cl649   1.758   .     S
C640   N663    1.375   .     A
C640   Cl650   1.763   .     S
C640   C644    1.416   .     A
C641   N664    1.374   .     A
C641   Cl651   1.762   .     S
C642   Cl656   1.774   .     S
C643   Cl646   1.773   .     S
C644   Cl647   1.773   .     S
Cu657  O669    1.931   .     S
Cu657  O671    1.928   .     S
Cu657  O665    1.958   .     S
Cu657  N664    2.025   .     S
Cu657  Cu658   2.695   .     S
Cu657  O667    1.956   .     S
Cu658  O670    1.931   .     S
Cu658  O666    1.958   .     S
Cu658  N663    2.025   .     S
Cu658  O672    1.928   .     S
Cu658  O668    1.956   .     S
