data_str_m1_o1_o1_pcu_sym.4
_audit_creation_date              2020-01-03
_audit_creation_method            'Materials Studio'
_symmetry_space_group_name_H-M    'P1'
_symmetry_Int_Tables_number       1
_symmetry_cell_setting            triclinic
loop_
_symmetry_equiv_pos_as_xyz
  x,y,z
_cell_length_a                    25.9274
_cell_length_b                    25.9270
_cell_length_c                    25.9255
_cell_angle_alpha                 90.0007
_cell_angle_beta                  90.0011
_cell_angle_gamma                 90.0009
loop_
_atom_site_label
_atom_site_type_symbol
_atom_site_fract_x
_atom_site_fract_y
_atom_site_fract_z
_atom_site_U_iso_or_equiv
_atom_site_adp_type
_atom_site_occupancy
C1     C     0.39000   0.25000   0.25000   0.00000  Uiso   1.00
C2     C     0.60985   0.25000   0.25000   0.00000  Uiso   1.00
C3     C     0.97310   0.76356   0.20470   0.00000  Uiso   1.00
C4     C     0.02742   0.74110   0.70355   0.00000  Uiso   1.00
C5     C     0.97331   0.27622   0.28922   0.00000  Uiso   1.00
C6     C     0.02720   0.76382   0.20478   0.00000  Uiso   1.00
C7     C     0.97225   0.29725   0.75132   0.00000  Uiso   1.00
C8     C     0.72567   0.70956   0.02736   0.00000  Uiso   1.00
C9     C     0.25816   0.29658   0.97338   0.00000  Uiso   1.00
C10    C     0.70291   0.24429   0.02597   0.00000  Uiso   1.00
C11    C     0.23634   0.79527   0.97310   0.00000  Uiso   1.00
C12    C     0.25930   0.29636   0.02742   0.00000  Uiso   1.00
C13    C     0.25000   0.75000   0.39005   0.00000  Uiso   1.00
C14    C     0.72378   0.71078   0.97331   0.00000  Uiso   1.00
C15    C     0.23609   0.79520   0.02720   0.00000  Uiso   1.00
C16    C     0.70275   0.24881   0.97225   0.00000  Uiso   1.00
C17    C     0.26365   0.70473   0.97310   0.00000  Uiso   1.00
C18    C     0.79710   0.25571   0.02597   0.00000  Uiso   1.00
C19    C     0.24181   0.20339   0.97337   0.00000  Uiso   1.00
C20    C     0.77433   0.79044   0.02736   0.00000  Uiso   1.00
C21    C     0.79725   0.25120   0.97225   0.00000  Uiso   1.00
C22    C     0.26390   0.70480   0.02720   0.00000  Uiso   1.00
C23    C     0.77622   0.78922   0.97331   0.00000  Uiso   1.00
C24    C     0.75000   0.25000   0.61009   0.00000  Uiso   1.00
C25    C     0.24070   0.20362   0.02741   0.00000  Uiso   1.00
C26    C     0.74880   0.47225   0.70275   0.00000  Uiso   1.00
C27    C     0.29522   0.52720   0.23618   0.00000  Uiso   1.00
C28    C     0.70333   0.47338   0.24226   0.00000  Uiso   1.00
C29    C     0.29050   0.52737   0.77422   0.00000  Uiso   1.00
C30    C     0.29530   0.47310   0.23645   0.00000  Uiso   1.00
C31    C     0.74429   0.52597   0.70290   0.00000  Uiso   1.00
C32    C     0.28929   0.47332   0.77610   0.00000  Uiso   1.00
C33    C     0.70356   0.52742   0.24108   0.00000  Uiso   1.00
C34    C     0.47264   0.22568   0.29045   0.00000  Uiso   1.00
C35    C     0.60989   0.75000   0.25000   0.00000  Uiso   1.00
C36    C     0.52662   0.75772   0.70333   0.00000  Uiso   1.00
C37    C     0.47280   0.76381   0.29522   0.00000  Uiso   1.00
C38    C     0.52775   0.29724   0.74868   0.00000  Uiso   1.00
C39    C     0.47258   0.75889   0.70355   0.00000  Uiso   1.00
C40    C     0.52669   0.22378   0.28922   0.00000  Uiso   1.00
C41    C     0.47403   0.29707   0.74415   0.00000  Uiso   1.00
C42    C     0.52690   0.76355   0.29530   0.00000  Uiso   1.00
C43    C     0.23636   0.70473   0.52690   0.00000  Uiso   1.00
C44    C     0.70291   0.25571   0.47403   0.00000  Uiso   1.00
C45    C     0.77622   0.71078   0.52669   0.00000  Uiso   1.00
C46    C     0.39031   0.24999   0.75000   0.00000  Uiso   1.00
C47    C     0.24097   0.29643   0.47258   0.00000  Uiso   1.00
C48    C     0.70275   0.25120   0.52775   0.00000  Uiso   1.00
C49    C     0.23610   0.70480   0.47280   0.00000  Uiso   1.00
C50    C     0.24215   0.29665   0.52662   0.00000  Uiso   1.00
C51    C     0.77433   0.70956   0.47264   0.00000  Uiso   1.00
C52    C     0.25000   0.55388   0.25000   0.00000  Uiso   1.00
C53    C     0.75000   0.44568   0.75000   0.00000  Uiso   1.00
C54    C     0.24999   0.55401   0.74999   0.00000  Uiso   1.00
C55    C     0.75000   0.44647   0.25000   0.00000  Uiso   1.00
C56    C     0.75000   0.55323   0.75000   0.00000  Uiso   1.00
C57    C     0.75000   0.75000   0.60985   0.00000  Uiso   1.00
C58    C     0.25000   0.44631   0.25000   0.00000  Uiso   1.00
C59    C     0.75000   0.55404   0.25000   0.00000  Uiso   1.00
C60    C     0.25000   0.44642   0.74999   0.00000  Uiso   1.00
C61    C     0.55353   0.75000   0.75000   0.00000  Uiso   1.00
C62    C     0.44599   0.25000   0.25000   0.00000  Uiso   1.00
C63    C     0.55432   0.24999   0.74999   0.00000  Uiso   1.00
C64    C     0.44612   0.75000   0.25000   0.00000  Uiso   1.00
C65    C     0.55358   0.25000   0.25000   0.00000  Uiso   1.00
C66    C     0.44596   0.75000   0.75000   0.00000  Uiso   1.00
C67    C     0.55369   0.75000   0.25000   0.00000  Uiso   1.00
C68    C     0.25000   0.25000   0.38999   0.00000  Uiso   1.00
C69    C     0.44677   0.24999   0.74999   0.00000  Uiso   1.00
C70    C     0.75000   0.25000   0.44677   0.00000  Uiso   1.00
C71    C     0.25000   0.75000   0.55369   0.00000  Uiso   1.00
C72    C     0.25000   0.25000   0.44596   0.00000  Uiso   1.00
C73    C     0.75000   0.75000   0.55358   0.00000  Uiso   1.00
C74    C     0.25000   0.75000   0.44612   0.00000  Uiso   1.00
C75    C     0.75000   0.25000   0.55432   0.00000  Uiso   1.00
C76    C     0.75000   0.75000   0.44599   0.00000  Uiso   1.00
C77    C     0.25001   0.25000   0.55353   0.00000  Uiso   1.00
C78    C     0.75000   0.05353   0.25000   0.00000  Uiso   1.00
C79    C     0.25000   0.39015   0.75000   0.00000  Uiso   1.00
C80    C     0.25000   0.94599   0.75000   0.00000  Uiso   1.00
C81    C     0.25000   0.05369   0.25000   0.00000  Uiso   1.00
C82    C     0.75000   0.94677   0.75000   0.00000  Uiso   1.00
C83    C     0.24999   0.05358   0.74999   0.00000  Uiso   1.00
C84    C     0.75000   0.94596   0.25000   0.00000  Uiso   1.00
C85    C     0.75000   0.05432   0.75000   0.00000  Uiso   1.00
C86    C     0.25000   0.94612   0.25000   0.00000  Uiso   1.00
C87    C     0.05388   0.75000   0.25000   0.00000  Uiso   1.00
C88    C     0.94568   0.25000   0.75001   0.00000  Uiso   1.00
C89    C     0.05404   0.75000   0.75000   0.00000  Uiso   1.00
C90    C     0.75000   0.61001   0.25000   0.00000  Uiso   1.00
C91    C     0.94642   0.25000   0.25000   0.00000  Uiso   1.00
C92    C     0.05323   0.25000   0.74997   0.00000  Uiso   1.00
C93    C     0.94631   0.75000   0.25000   0.00000  Uiso   1.00
C94    C     0.05401   0.25000   0.25000   0.00000  Uiso   1.00
C95    C     0.94647   0.75000   0.75000   0.00000  Uiso   1.00
C96    C     0.75000   0.75000   0.94642   0.00000  Uiso   1.00
C97    C     0.24999   0.24999   0.05404   0.00000  Uiso   1.00
C98    C     0.75000   0.25000   0.94568   0.00000  Uiso   1.00
C99    C     0.25000   0.75000   0.05388   0.00000  Uiso   1.00
C100   C     0.24998   0.25000   0.94647   0.00000  Uiso   1.00
C101   C     0.25000   0.60995   0.25000   0.00000  Uiso   1.00
C102   C     0.75000   0.75000   0.05401   0.00000  Uiso   1.00
C103   C     0.25000   0.75000   0.94631   0.00000  Uiso   1.00
C104   C     0.75000   0.25000   0.05323   0.00000  Uiso   1.00
C105   C     0.60982   0.75000   0.75000   0.00000  Uiso   1.00
C106   C     0.75000   0.38991   0.75000   0.00000  Uiso   1.00
C107   C     0.75000   0.60969   0.75000   0.00000  Uiso   1.00
C108   C     0.25000   0.39011   0.25000   0.00000  Uiso   1.00
C109   C     0.75000   0.39018   0.25000   0.00000  Uiso   1.00
C110   C     0.24999   0.61000   0.74999   0.00000  Uiso   1.00
C111   C     0.89012   0.75000   0.25000   0.00000  Uiso   1.00
C112   C     0.10969   0.25000   0.75000   0.00000  Uiso   1.00
C113   C     0.25000   0.75000   0.10995   0.00000  Uiso   1.00
C114   C     0.75000   0.25000   0.88991   0.00000  Uiso   1.00
C115   C     0.11001   0.75000   0.75000   0.00000  Uiso   1.00
C116   C     0.25000   0.25000   0.60982   0.00000  Uiso   1.00
C117   C     0.89015   0.25000   0.25000   0.00000  Uiso   1.00
C118   C     0.75000   0.75000   0.89015   0.00000  Uiso   1.00
C119   C     0.24999   0.24999   0.11001   0.00000  Uiso   1.00
C120   C     0.88991   0.25000   0.75000   0.00000  Uiso   1.00
C121   C     0.10995   0.75000   0.25000   0.00000  Uiso   1.00
C122   C     0.24999   0.25000   0.89017   0.00000  Uiso   1.00
C123   C     0.75000   0.75000   0.11000   0.00000  Uiso   1.00
C124   C     0.11000   0.25000   0.25000   0.00000  Uiso   1.00
C125   C     0.89018   0.75000   0.75000   0.00000  Uiso   1.00
C126   C     0.75000   0.25000   0.10969   0.00000  Uiso   1.00
C127   C     0.75000   0.75000   0.39000   0.00000  Uiso   1.00
C128   C     0.25000   0.75000   0.89011   0.00000  Uiso   1.00
C129   C     0.75000   0.89031   0.75000   0.00000  Uiso   1.00
C130   C     0.25000   0.10989   0.25000   0.00000  Uiso   1.00
C131   C     0.75000   0.10982   0.25000   0.00000  Uiso   1.00
C132   C     0.25000   0.89000   0.75000   0.00000  Uiso   1.00
C133   C     0.25000   0.10985   0.75000   0.00000  Uiso   1.00
C134   C     0.75000   0.88999   0.25000   0.00000  Uiso   1.00
C135   C     0.25000   0.89005   0.25000   0.00000  Uiso   1.00
C136   C     0.75000   0.11009   0.75000   0.00000  Uiso   1.00
C137   C     0.20471   0.47310   0.26356   0.00000  Uiso   1.00
C138   C     0.61009   0.25000   0.75000   0.00000  Uiso   1.00
C139   C     0.75571   0.52597   0.79710   0.00000  Uiso   1.00
C140   C     0.21072   0.47331   0.72386   0.00000  Uiso   1.00
C141   C     0.79644   0.52742   0.25892   0.00000  Uiso   1.00
C142   C     0.75120   0.47225   0.79725   0.00000  Uiso   1.00
C143   C     0.20478   0.52720   0.26382   0.00000  Uiso   1.00
C144   C     0.79667   0.47338   0.25774   0.00000  Uiso   1.00
C145   C     0.20950   0.52735   0.72574   0.00000  Uiso   1.00
C146   C     0.47258   0.74110   0.79645   0.00000  Uiso   1.00
C147   C     0.52669   0.27622   0.21078   0.00000  Uiso   1.00
C148   C     0.47404   0.20291   0.75586   0.00000  Uiso   1.00
C149   C     0.39005   0.75000   0.25000   0.00000  Uiso   1.00
C150   C     0.52690   0.73645   0.20470   0.00000  Uiso   1.00
C151   C     0.47264   0.27433   0.20955   0.00000  Uiso   1.00
C152   C     0.52662   0.74228   0.79667   0.00000  Uiso   1.00
C153   C     0.47280   0.73619   0.20477   0.00000  Uiso   1.00
C154   C     0.52775   0.20275   0.75130   0.00000  Uiso   1.00
C155   C     0.79725   0.24880   0.52775   0.00000  Uiso   1.00
C156   C     0.26391   0.79520   0.47280   0.00000  Uiso   1.00
C157   C     0.25788   0.20334   0.52663   0.00000  Uiso   1.00
C158   C     0.72567   0.79044   0.47264   0.00000  Uiso   1.00
C159   C     0.26366   0.79526   0.52690   0.00000  Uiso   1.00
C160   C     0.75000   0.25000   0.39031   0.00000  Uiso   1.00
C161   C     0.79709   0.24429   0.47403   0.00000  Uiso   1.00
C162   C     0.72378   0.78922   0.52669   0.00000  Uiso   1.00
C163   C     0.25905   0.20357   0.47259   0.00000  Uiso   1.00
C164   C     0.70356   0.97258   0.25892   0.00000  Uiso   1.00
C165   C     0.21064   0.02669   0.77602   0.00000  Uiso   1.00
C166   C     0.20478   0.97280   0.23618   0.00000  Uiso   1.00
C167   C     0.75120   0.02775   0.70275   0.00000  Uiso   1.00
C168   C     0.20945   0.97264   0.77417   0.00000  Uiso   1.00
C169   C     0.70333   0.02662   0.25774   0.00000  Uiso   1.00
C170   C     0.75571   0.97403   0.70290   0.00000  Uiso   1.00
C171   C     0.25000   0.75000   0.60989   0.00000  Uiso   1.00
C172   C     0.20471   0.02690   0.23644   0.00000  Uiso   1.00
C173   C     0.74880   0.02775   0.79725   0.00000  Uiso   1.00
C174   C     0.29522   0.97280   0.26382   0.00000  Uiso   1.00
C175   C     0.28933   0.02670   0.72393   0.00000  Uiso   1.00
C176   C     0.79645   0.97258   0.24108   0.00000  Uiso   1.00
C177   C     0.29529   0.02690   0.26356   0.00000  Uiso   1.00
C178   C     0.74429   0.97403   0.79710   0.00000  Uiso   1.00
C179   C     0.79667   0.02662   0.24226   0.00000  Uiso   1.00
C180   C     0.29054   0.97265   0.72581   0.00000  Uiso   1.00
C181   C     0.97310   0.73645   0.29530   0.00000  Uiso   1.00
C182   C     0.39000   0.75000   0.75000   0.00000  Uiso   1.00
C183   C     0.02596   0.20292   0.74406   0.00000  Uiso   1.00
C184   C     0.97338   0.75772   0.79667   0.00000  Uiso   1.00
C185   C     0.02736   0.22568   0.20955   0.00000  Uiso   1.00
C186   C     0.97225   0.20276   0.74866   0.00000  Uiso   1.00
C187   C     0.02720   0.73618   0.29522   0.00000  Uiso   1.00
C188   C     0.97331   0.22378   0.21078   0.00000  Uiso   1.00
C189   C     0.02742   0.75890   0.79645   0.00000  Uiso   1.00
C190   C     0.02736   0.27432   0.29045   0.00000  Uiso   1.00
C191   C     0.97338   0.74228   0.70333   0.00000  Uiso   1.00
C192   C     0.02597   0.29708   0.75585   0.00000  Uiso   1.00
I1     I     0.13699   0.43143   0.28598   0.00000  Uiso   1.00
I2     I     0.56775   0.32106   0.15534   0.00000  Uiso   1.00
I3     I     0.43661   0.13082   0.77210   0.00000  Uiso   1.00
I4     I     0.56856   0.71404   0.13697   0.00000  Uiso   1.00
I5     I     0.43045   0.30812   0.14700   0.00000  Uiso   1.00
I6     I     0.56742   0.73019   0.86742   0.00000  Uiso   1.00
I7     I     0.43072   0.71231   0.13757   0.00000  Uiso   1.00
I8     I     0.56858   0.13088   0.74144   0.00000  Uiso   1.00
I9     I     0.86909   0.25877   0.56860   0.00000  Uiso   1.00
I10    I     0.28788   0.86237   0.43073   0.00000  Uiso   1.00
I11    I     0.27019   0.13262   0.56747   0.00000  Uiso   1.00
I12    I     0.77154   0.56346   0.86923   0.00000  Uiso   1.00
I13    I     0.69188   0.85299   0.43045   0.00000  Uiso   1.00
I14    I     0.28634   0.86288   0.56859   0.00000  Uiso   1.00
I15    I     0.86922   0.22845   0.43655   0.00000  Uiso   1.00
I16    I     0.67893   0.84464   0.56776   0.00000  Uiso   1.00
I17    I     0.27790   0.13453   0.43063   0.00000  Uiso   1.00
I18    I     0.63448   0.93063   0.27764   0.00000  Uiso   1.00
I19    I     0.15494   0.06777   0.82053   0.00000  Uiso   1.00
I20    I     0.13758   0.93072   0.21229   0.00000  Uiso   1.00
I21    I     0.74125   0.06859   0.63090   0.00000  Uiso   1.00
I22    I     0.14685   0.93043   0.80785   0.00000  Uiso   1.00
I23    I     0.15521   0.43223   0.67912   0.00000  Uiso   1.00
I24    I     0.63260   0.06742   0.26986   0.00000  Uiso   1.00
I25    I     0.77154   0.93654   0.63077   0.00000  Uiso   1.00
I26    I     0.13699   0.06856   0.21402   0.00000  Uiso   1.00
I27    I     0.75875   0.06860   0.86910   0.00000  Uiso   1.00
I28    I     0.36242   0.93073   0.28771   0.00000  Uiso   1.00
I29    I     0.34489   0.06778   0.67923   0.00000  Uiso   1.00
I30    I     0.86552   0.93064   0.22237   0.00000  Uiso   1.00
I31    I     0.36301   0.06857   0.28599   0.00000  Uiso   1.00
I32    I     0.72846   0.93654   0.86923   0.00000  Uiso   1.00
I33    I     0.86740   0.06742   0.23014   0.00000  Uiso   1.00
I34    I     0.86552   0.56937   0.27763   0.00000  Uiso   1.00
I35    I     0.35316   0.93045   0.69213   0.00000  Uiso   1.00
I36    I     0.93144   0.71402   0.36302   0.00000  Uiso   1.00
I37    I     0.06335   0.13083   0.72762   0.00000  Uiso   1.00
I38    I     0.93258   0.76983   0.86741   0.00000  Uiso   1.00
I39    I     0.06954   0.19189   0.14699   0.00000  Uiso   1.00
I40    I     0.93143   0.13088   0.75854   0.00000  Uiso   1.00
I41    I     0.06928   0.71229   0.36242   0.00000  Uiso   1.00
I42    I     0.93224   0.17894   0.15534   0.00000  Uiso   1.00
I43    I     0.06936   0.77759   0.86554   0.00000  Uiso   1.00
I44    I     0.06955   0.30811   0.35300   0.00000  Uiso   1.00
I45    I     0.74126   0.43141   0.86910   0.00000  Uiso   1.00
I46    I     0.93258   0.73018   0.63259   0.00000  Uiso   1.00
I47    I     0.06344   0.36916   0.77188   0.00000  Uiso   1.00
I48    I     0.93144   0.78598   0.13698   0.00000  Uiso   1.00
I49    I     0.06936   0.72240   0.63446   0.00000  Uiso   1.00
I50    I     0.93225   0.32106   0.34466   0.00000  Uiso   1.00
I51    I     0.06927   0.78770   0.13757   0.00000  Uiso   1.00
I52    I     0.93143   0.36912   0.74151   0.00000  Uiso   1.00
I53    I     0.69187   0.64701   0.06955   0.00000  Uiso   1.00
I54    I     0.27094   0.36712   0.93255   0.00000  Uiso   1.00
I55    I     0.63078   0.22846   0.06345   0.00000  Uiso   1.00
I56    I     0.13758   0.56927   0.28770   0.00000  Uiso   1.00
I57    I     0.21371   0.86290   0.93141   0.00000  Uiso   1.00
I58    I     0.27846   0.36529   0.06939   0.00000  Uiso   1.00
I59    I     0.67893   0.65536   0.93224   0.00000  Uiso   1.00
I60    I     0.21211   0.86237   0.06927   0.00000  Uiso   1.00
I61    I     0.63091   0.25877   0.93140   0.00000  Uiso   1.00
I62    I     0.28622   0.63706   0.93142   0.00000  Uiso   1.00
I63    I     0.86922   0.27154   0.06346   0.00000  Uiso   1.00
I64    I     0.22897   0.13278   0.93248   0.00000  Uiso   1.00
I65    I     0.80813   0.85299   0.06955   0.00000  Uiso   1.00
I66    I     0.86909   0.24123   0.93140   0.00000  Uiso   1.00
I67    I     0.86740   0.43258   0.26987   0.00000  Uiso   1.00
I68    I     0.28787   0.63764   0.06928   0.00000  Uiso   1.00
I69    I     0.82107   0.84464   0.93224   0.00000  Uiso   1.00
I70    I     0.22162   0.13467   0.06938   0.00000  Uiso   1.00
I71    I     0.75875   0.43141   0.63090   0.00000  Uiso   1.00
I72    I     0.36242   0.56928   0.21230   0.00000  Uiso   1.00
I73    I     0.63260   0.43258   0.23013   0.00000  Uiso   1.00
I74    I     0.35310   0.56957   0.80792   0.00000  Uiso   1.00
I75    I     0.36302   0.43144   0.21403   0.00000  Uiso   1.00
I76    I     0.72846   0.56346   0.63077   0.00000  Uiso   1.00
I77    I     0.34486   0.43227   0.82078   0.00000  Uiso   1.00
I78    I     0.14690   0.56954   0.69203   0.00000  Uiso   1.00
I79    I     0.63448   0.56936   0.22236   0.00000  Uiso   1.00
I80    I     0.43046   0.19189   0.35300   0.00000  Uiso   1.00
I81    I     0.56742   0.76981   0.63258   0.00000  Uiso   1.00
I82    I     0.43073   0.78769   0.36243   0.00000  Uiso   1.00
I83    I     0.56857   0.36911   0.75852   0.00000  Uiso   1.00
I84    I     0.43064   0.77758   0.63446   0.00000  Uiso   1.00
I85    I     0.56776   0.17894   0.34465   0.00000  Uiso   1.00
I86    I     0.43658   0.36915   0.72811   0.00000  Uiso   1.00
I87    I     0.56857   0.78597   0.36302   0.00000  Uiso   1.00
I88    I     0.21380   0.63705   0.56857   0.00000  Uiso   1.00
I89    I     0.43064   0.72241   0.86554   0.00000  Uiso   1.00
I90    I     0.63078   0.27155   0.43654   0.00000  Uiso   1.00
I91    I     0.82106   0.65536   0.56776   0.00000  Uiso   1.00
I92    I     0.22210   0.36546   0.43063   0.00000  Uiso   1.00
I93    I     0.63091   0.24123   0.56859   0.00000  Uiso   1.00
I94    I     0.21213   0.63763   0.43072   0.00000  Uiso   1.00
I95    I     0.22998   0.36738   0.56744   0.00000  Uiso   1.00
I96    I     0.80813   0.64701   0.43045   0.00000  Uiso   1.00
O1     O     0.25000   0.25000   0.25000   0.00000  Uiso   1.00
O2     O     0.63420   0.71971   0.71971   0.00000  Uiso   1.00
O3     O     0.21971   0.36580   0.21971   0.00000  Uiso   1.00
O4     O     0.21971   0.63420   0.21971   0.00000  Uiso   1.00
O5     O     0.78029   0.36580   0.78029   0.00000  Uiso   1.00
O6     O     0.21971   0.36580   0.78029   0.00000  Uiso   1.00
O7     O     0.78029   0.63420   0.21971   0.00000  Uiso   1.00
O8     O     0.28029   0.28029   0.63420   0.00000  Uiso   1.00
O9     O     0.71971   0.71971   0.36580   0.00000  Uiso   1.00
O10    O     0.63420   0.28029   0.71971   0.00000  Uiso   1.00
O11    O     0.36580   0.71971   0.28029   0.00000  Uiso   1.00
O12    O     0.71971   0.28029   0.36580   0.00000  Uiso   1.00
O13    O     0.28029   0.71971   0.63420   0.00000  Uiso   1.00
O14    O     0.36580   0.71971   0.71971   0.00000  Uiso   1.00
O15    O     0.63420   0.28029   0.28029   0.00000  Uiso   1.00
O16    O     0.28029   0.71971   0.36580   0.00000  Uiso   1.00
O17    O     0.75000   0.75000   0.75000   0.00000  Uiso   1.00
O18    O     0.71971   0.28029   0.63420   0.00000  Uiso   1.00
O19    O     0.63420   0.71971   0.28029   0.00000  Uiso   1.00
O20    O     0.36580   0.28029   0.71971   0.00000  Uiso   1.00
O21    O     0.71971   0.71971   0.63420   0.00000  Uiso   1.00
O22    O     0.28029   0.28029   0.36580   0.00000  Uiso   1.00
O23    O     0.28029   0.36580   0.71971   0.00000  Uiso   1.00
O24    O     0.71971   0.63420   0.28029   0.00000  Uiso   1.00
O25    O     0.28029   0.63420   0.28029   0.00000  Uiso   1.00
O26    O     0.71971   0.36580   0.71971   0.00000  Uiso   1.00
O27    O     0.71971   0.63420   0.71971   0.00000  Uiso   1.00
O28    O     0.25000   0.25000   0.75000   0.00000  Uiso   1.00
O29    O     0.28029   0.36580   0.28029   0.00000  Uiso   1.00
O30    O     0.71971   0.36580   0.28029   0.00000  Uiso   1.00
O31    O     0.28029   0.63420   0.71971   0.00000  Uiso   1.00
O32    O     0.86580   0.78029   0.28029   0.00000  Uiso   1.00
O33    O     0.13420   0.21971   0.71971   0.00000  Uiso   1.00
O34    O     0.28029   0.78029   0.13420   0.00000  Uiso   1.00
O35    O     0.71971   0.21971   0.86580   0.00000  Uiso   1.00
O36    O     0.13420   0.78029   0.71971   0.00000  Uiso   1.00
O37    O     0.86580   0.21971   0.28029   0.00000  Uiso   1.00
O38    O     0.71971   0.78029   0.86580   0.00000  Uiso   1.00
O39    O     0.75000   0.75000   0.25000   0.00000  Uiso   1.00
O40    O     0.28029   0.21971   0.13420   0.00000  Uiso   1.00
O41    O     0.86580   0.21971   0.71971   0.00000  Uiso   1.00
O42    O     0.13420   0.78029   0.28029   0.00000  Uiso   1.00
O43    O     0.28029   0.21971   0.86580   0.00000  Uiso   1.00
O44    O     0.71971   0.78029   0.13420   0.00000  Uiso   1.00
O45    O     0.13420   0.21971   0.28029   0.00000  Uiso   1.00
O46    O     0.86580   0.78029   0.71971   0.00000  Uiso   1.00
O47    O     0.71971   0.21971   0.13420   0.00000  Uiso   1.00
O48    O     0.28029   0.78029   0.86580   0.00000  Uiso   1.00
O49    O     0.78029   0.71971   0.13420   0.00000  Uiso   1.00
O50    O     0.75000   0.25000   0.75000   0.00000  Uiso   1.00
O51    O     0.21971   0.28029   0.86580   0.00000  Uiso   1.00
O52    O     0.78029   0.86580   0.71971   0.00000  Uiso   1.00
O53    O     0.21971   0.13420   0.28029   0.00000  Uiso   1.00
O54    O     0.78029   0.28029   0.86580   0.00000  Uiso   1.00
O55    O     0.21971   0.71971   0.13420   0.00000  Uiso   1.00
O56    O     0.78029   0.13420   0.28029   0.00000  Uiso   1.00
O57    O     0.21971   0.86580   0.71971   0.00000  Uiso   1.00
O58    O     0.21971   0.28029   0.13420   0.00000  Uiso   1.00
O59    O     0.78029   0.71971   0.86580   0.00000  Uiso   1.00
O60    O     0.21971   0.13420   0.71971   0.00000  Uiso   1.00
O61    O     0.25000   0.75000   0.25000   0.00000  Uiso   1.00
O62    O     0.78029   0.86580   0.28029   0.00000  Uiso   1.00
O63    O     0.21971   0.71971   0.86580   0.00000  Uiso   1.00
O64    O     0.78029   0.28029   0.13420   0.00000  Uiso   1.00
O65    O     0.21971   0.86580   0.28029   0.00000  Uiso   1.00
O66    O     0.78029   0.13420   0.71971   0.00000  Uiso   1.00
O67    O     0.71971   0.86580   0.21971   0.00000  Uiso   1.00
O68    O     0.28029   0.13420   0.78029   0.00000  Uiso   1.00
O69    O     0.86580   0.28029   0.21971   0.00000  Uiso   1.00
O70    O     0.13420   0.71971   0.78029   0.00000  Uiso   1.00
O71    O     0.28029   0.13420   0.21971   0.00000  Uiso   1.00
O72    O     0.75000   0.25000   0.25000   0.00000  Uiso   1.00
O73    O     0.71971   0.86580   0.78029   0.00000  Uiso   1.00
O74    O     0.13420   0.71971   0.21971   0.00000  Uiso   1.00
O75    O     0.86580   0.28029   0.78029   0.00000  Uiso   1.00
O76    O     0.28029   0.86580   0.78029   0.00000  Uiso   1.00
O77    O     0.71971   0.13420   0.21971   0.00000  Uiso   1.00
O78    O     0.13420   0.28029   0.78029   0.00000  Uiso   1.00
O79    O     0.86580   0.71971   0.21971   0.00000  Uiso   1.00
O80    O     0.71971   0.13420   0.78029   0.00000  Uiso   1.00
O81    O     0.28029   0.86580   0.21971   0.00000  Uiso   1.00
O82    O     0.86580   0.71971   0.78029   0.00000  Uiso   1.00
O83    O     0.25000   0.75000   0.75000   0.00000  Uiso   1.00
O84    O     0.13420   0.28029   0.21971   0.00000  Uiso   1.00
O85    O     0.36580   0.78029   0.78029   0.00000  Uiso   1.00
O86    O     0.63420   0.21971   0.21971   0.00000  Uiso   1.00
O87    O     0.78029   0.78029   0.63420   0.00000  Uiso   1.00
O88    O     0.21971   0.21971   0.36580   0.00000  Uiso   1.00
O89    O     0.63420   0.78029   0.21971   0.00000  Uiso   1.00
O90    O     0.36580   0.21971   0.78029   0.00000  Uiso   1.00
O91    O     0.21971   0.78029   0.36580   0.00000  Uiso   1.00
O92    O     0.78029   0.21971   0.63420   0.00000  Uiso   1.00
O93    O     0.36580   0.21971   0.21971   0.00000  Uiso   1.00
O94    O     0.36580   0.28029   0.28029   0.00000  Uiso   1.00
O95    O     0.63420   0.78029   0.78029   0.00000  Uiso   1.00
O96    O     0.78029   0.21971   0.36580   0.00000  Uiso   1.00
O97    O     0.21971   0.78029   0.63420   0.00000  Uiso   1.00
O98    O     0.63420   0.21971   0.78029   0.00000  Uiso   1.00
O99    O     0.36580   0.78029   0.21971   0.00000  Uiso   1.00
O100   O     0.21971   0.21971   0.63420   0.00000  Uiso   1.00
O101   O     0.78029   0.78029   0.36580   0.00000  Uiso   1.00
O102   O     0.78029   0.36580   0.21971   0.00000  Uiso   1.00
O103   O     0.21971   0.63420   0.78029   0.00000  Uiso   1.00
O104   O     0.78029   0.63420   0.78029   0.00000  Uiso   1.00
Zn1    Zn    0.20660   0.29340   0.20660   0.00000  Uiso   1.00
Zn2    Zn    0.70660   0.20660   0.20660   0.00000  Uiso   1.00
Zn3    Zn    0.29340   0.20660   0.79340   0.00000  Uiso   1.00
Zn4    Zn    0.70660   0.79340   0.20660   0.00000  Uiso   1.00
Zn5    Zn    0.29340   0.20660   0.20660   0.00000  Uiso   1.00
Zn6    Zn    0.70660   0.79340   0.79340   0.00000  Uiso   1.00
Zn7    Zn    0.29340   0.79340   0.20660   0.00000  Uiso   1.00
Zn8    Zn    0.70660   0.20660   0.79340   0.00000  Uiso   1.00
Zn9    Zn    0.79340   0.20660   0.70660   0.00000  Uiso   1.00
Zn10   Zn    0.20660   0.79340   0.29340   0.00000  Uiso   1.00
Zn11   Zn    0.20660   0.20660   0.70660   0.00000  Uiso   1.00
Zn12   Zn    0.79340   0.70660   0.79340   0.00000  Uiso   1.00
Zn13   Zn    0.79340   0.79340   0.29340   0.00000  Uiso   1.00
Zn14   Zn    0.20660   0.79340   0.70660   0.00000  Uiso   1.00
Zn15   Zn    0.79340   0.20660   0.29340   0.00000  Uiso   1.00
Zn16   Zn    0.79340   0.79340   0.70660   0.00000  Uiso   1.00
Zn17   Zn    0.20660   0.20660   0.29340   0.00000  Uiso   1.00
Zn18   Zn    0.70660   0.29340   0.70660   0.00000  Uiso   1.00
Zn19   Zn    0.29340   0.70660   0.29340   0.00000  Uiso   1.00
Zn20   Zn    0.70660   0.29340   0.29340   0.00000  Uiso   1.00
Zn21   Zn    0.29340   0.70660   0.70660   0.00000  Uiso   1.00
Zn22   Zn    0.29340   0.29340   0.29340   0.00000  Uiso   1.00
Zn23   Zn    0.20660   0.29340   0.79340   0.00000  Uiso   1.00
Zn24   Zn    0.70660   0.70660   0.70660   0.00000  Uiso   1.00
Zn25   Zn    0.29340   0.29340   0.70660   0.00000  Uiso   1.00
Zn26   Zn    0.70660   0.70660   0.29340   0.00000  Uiso   1.00
Zn27   Zn    0.79340   0.70660   0.20660   0.00000  Uiso   1.00
Zn28   Zn    0.79340   0.29340   0.79340   0.00000  Uiso   1.00
Zn29   Zn    0.20660   0.70660   0.20660   0.00000  Uiso   1.00
Zn30   Zn    0.79340   0.29340   0.20660   0.00000  Uiso   1.00
Zn31   Zn    0.20660   0.70660   0.79340   0.00000  Uiso   1.00
Zn32   Zn    0.29340   0.79340   0.79340   0.00000  Uiso   1.00
loop_
_geom_bond_atom_site_label_1
_geom_bond_atom_site_label_2
_geom_bond_distance
_geom_bond_site_symmetry_2
_ccdc_geom_bond_type
C1     O93     1.276   .     A
C1     C62     1.452   .     S
C1     O94     1.276   .     A
C2     C65     1.459   .     S
C2     O15     1.278   .     A
C2     O86     1.277   .     A
C3     I48     2.142   .     S
C3     C93     1.409   .     A
C3     C6      1.403   1_655 S
C4     C89     1.407   .     A
C4     I49     2.151   .     S
C4     C191    1.401   1_455 S
C5     C91     1.408   .     A
C5     I50     2.133   .     S
C5     C190    1.403   1_655 S
C6     C87     1.408   .     A
C6     I51     2.147   .     S
C6     C3      1.403   1_455 S
C7     C88     1.406   .     A
C7     I52     2.158   .     S
C7     C192    1.398   1_655 S
C8     I53     2.143   .     S
C8     C102    1.405   .     A
C8     C14     1.403   1_554 S
C9     I54     2.139   .     S
C9     C100    1.411   .     A
C9     C12     1.401   1_556 S
C10    I55     2.147   .     S
C10    C104    1.419   .     A
C10    C16     1.398   1_554 S
C11    I57     2.142   .     S
C11    C103    1.409   .     A
C11    C15     1.403   1_556 S
C12    C97     1.407   .     A
C12    I58     2.151   .     S
C12    C9      1.401   1_554 S
C13    O91     1.276   .     A
C13    C74     1.454   .     S
C13    O16     1.276   .     A
C14    I59     2.133   .     S
C14    C96     1.408   .     A
C14    C8      1.403   1_556 S
C15    I60     2.147   .     S
C15    C99     1.408   .     A
C15    C11     1.403   1_554 S
C16    C98     1.406   .     A
C16    I61     2.158   .     S
C16    C10     1.398   1_556 S
C17    I62     2.142   .     S
C17    C103    1.409   .     A
C17    C22     1.403   1_556 S
C18    C104    1.419   .     A
C18    I63     2.147   .     S
C18    C21     1.398   1_554 S
C19    C100    1.411   .     A
C19    I64     2.142   .     S
C19    C25     1.401   1_556 S
C20    C102    1.405   .     A
C20    I65     2.143   .     S
C20    C23     1.403   1_554 S
C21    C98     1.406   .     A
C21    I66     2.158   .     S
C21    C18     1.398   1_556 S
C22    I68     2.147   .     S
C22    C99     1.408   .     A
C22    C17     1.403   1_554 S
C23    I69     2.133   .     S
C23    C96     1.408   .     A
C23    C20     1.403   1_556 S
C24    O92     1.274   .     A
C24    C75     1.446   .     S
C24    O18     1.274   .     A
C25    I70     2.150   .     S
C25    C97     1.407   .     A
C25    C19     1.401   1_554 S
C26    I71     2.158   .     S
C26    C31     1.398   .     A
C26    C53     1.406   .     A
C27    I72     2.147   .     S
C27    C30     1.403   .     A
C27    C52     1.408   .     A
C28    I73     2.140   .     S
C28    C33     1.401   .     A
C28    C55     1.411   .     A
C29    I74     2.143   .     S
C29    C32     1.403   .     A
C29    C54     1.405   .     A
C30    I75     2.142   .     S
C30    C58     1.409   .     A
C31    C56     1.419   .     A
C31    I76     2.147   .     S
C32    I77     2.133   .     S
C32    C60     1.408   .     A
C33    C59     1.407   .     A
C33    I79     2.151   .     S
C34    I80     2.143   .     S
C34    C62     1.405   .     A
C34    C40     1.403   .     A
C35    C67     1.457   .     S
C35    O19     1.277   .     A
C35    O89     1.277   .     A
C36    C39     1.401   .     A
C36    C61     1.411   .     A
C36    I81     2.140   .     S
C37    C42     1.403   .     A
C37    I82     2.147   .     S
C37    C64     1.408   .     A
C38    C41     1.398   .     A
C38    I83     2.158   .     S
C38    C63     1.406   .     A
C39    I84     2.151   .     S
C39    C66     1.407   .     A
C40    C65     1.408   .     A
C40    I85     2.133   .     S
C41    I86     2.147   .     S
C41    C69     1.419   .     A
C42    C67     1.409   .     A
C42    I87     2.142   .     S
C43    C71     1.409   .     A
C43    I88     2.142   .     S
C43    C49     1.403   .     A
C44    C70     1.419   .     A
C44    C48     1.398   .     A
C44    I90     2.147   .     S
C45    I91     2.133   .     S
C45    C51     1.403   .     A
C45    C73     1.408   .     A
C46    O90     1.279   .     A
C46    O20     1.280   .     A
C46    C69     1.464   .     S
C47    C50     1.401   .     A
C47    C72     1.407   .     A
C47    I92     2.151   .     S
C48    I93     2.158   .     S
C48    C75     1.406   .     A
C49    I94     2.147   .     S
C49    C74     1.408   .     A
C50    C77     1.411   .     A
C50    I95     2.141   .     S
C51    C76     1.405   .     A
C51    I96     2.143   .     S
C52    C101    1.454   .     S
C52    C143    1.408   .     A
C53    C106    1.446   .     S
C53    C142    1.406   .     A
C54    C145    1.405   .     A
C54    C110    1.452   .     S
C55    C109    1.460   .     S
C55    C144    1.411   .     A
C56    C139    1.419   .     A
C56    C107    1.464   .     S
C57    O21     1.278   .     A
C57    C73     1.459   .     S
C57    O87     1.277   .     A
C58    C108    1.457   .     S
C58    C137    1.409   .     A
C59    C141    1.407   .     A
C59    C90     1.451   .     S
C60    C79     1.459   .     S
C60    C140    1.408   .     A
C61    C105    1.460   .     S
C61    C152    1.411   .     A
C62    C151    1.405   .     A
C63    C154    1.406   .     A
C63    C138    1.446   .     S
C64    C153    1.408   .     A
C64    C149    1.454   .     S
C65    C147    1.408   .     A
C66    C182    1.451   .     S
C66    C146    1.407   .     A
C67    C150    1.409   .     A
C68    C72     1.451   .     S
C68    O22     1.276   .     A
C68    O88     1.276   .     A
C69    C148    1.419   .     A
C70    C160    1.464   .     S
C70    C161    1.419   .     A
C71    C171    1.457   .     S
C71    C159    1.409   .     A
C72    C163    1.407   .     A
C73    C162    1.408   .     A
C74    C156    1.408   .     A
C75    C155    1.406   .     A
C76    C127    1.452   .     S
C76    C158    1.405   .     A
C77    C116    1.459   .     S
C77    C157    1.411   .     A
C78    C179    1.411   .     A
C78    C169    1.411   .     A
C78    C131    1.460   .     S
C79    O23     1.277   .     A
C79    O6      1.278   .     A
C80    C132    1.452   .     S
C80    C168    1.405   .     A
C80    C180    1.405   .     A
C81    C177    1.409   .     A
C81    C130    1.457   .     S
C81    C172    1.409   .     A
C82    C178    1.419   .     A
C82    C129    1.464   .     S
C82    C170    1.419   .     A
C83    C165    1.408   .     A
C83    C175    1.408   .     A
C83    C133    1.459   .     S
C84    C134    1.451   .     S
C84    C176    1.407   .     A
C84    C164    1.407   .     A
C85    C167    1.406   .     A
C85    C136    1.446   .     S
C85    C173    1.406   .     A
C86    C174    1.408   .     A
C86    C135    1.454   .     S
C86    C166    1.408   .     A
C87    C187    1.408   .     A
C87    C121    1.454   .     S
C88    C120    1.446   .     S
C88    C186    1.406   .     A
C89    C115    1.451   .     S
C89    C189    1.407   .     A
C90    O24     1.276   .     A
C90    O7      1.276   .     A
C91    C188    1.408   .     A
C91    C117    1.459   .     S
C92    C112    1.464   .     S
C92    C192    1.419   .     A
C92    C183    1.419   .     A
C93    C181    1.409   .     A
C93    C111    1.457   .     S
C94    C190    1.405   .     A
C94    C185    1.405   .     A
C94    C124    1.452   .     S
C95    C184    1.411   .     A
C95    C191    1.411   .     A
C95    C125    1.460   .     S
C96    C118    1.459   .     S
C97    C119    1.451   .     S
C98    C114    1.446   .     S
C99    C113    1.454   .     S
C100   C122    1.459   .     S
C101   O25     1.276   .     A
C101   O4      1.276   .     A
C102   C123    1.452   .     S
C103   C128    1.457   .     S
C104   C126    1.464   .     S
C105   O2      1.278   .     A
C105   O95     1.278   .     A
C106   O5      1.274   .     A
C106   O26     1.274   .     A
C107   O27     1.279   .     A
C107   O104    1.280   .     A
C108   O3      1.277   .     A
C108   O29     1.277   .     A
C109   O102    1.278   .     A
C109   O30     1.278   .     A
C110   O31     1.276   .     A
C110   O103    1.276   .     A
C111   O79     1.277   .     A
C111   O32     1.277   .     A
C112   O78     1.280   .     A
C112   O33     1.279   .     A
C113   O34     1.276   .     A
C113   O55     1.276   .     A
C114   O54     1.274   .     A
C114   O35     1.274   .     A
C115   O70     1.276   .     A
C115   O36     1.276   .     A
C116   O100    1.278   .     A
C116   O8      1.278   .     A
C117   O69     1.278   .     A
C117   O37     1.278   .     A
C118   O59     1.278   .     A
C118   O38     1.278   .     A
C119   O40     1.276   .     A
C119   O58     1.276   .     A
C120   O41     1.274   .     A
C120   O75     1.274   .     A
C121   O74     1.276   .     A
C121   O42     1.276   .     A
C122   O51     1.278   .     A
C122   O43     1.278   .     A
C123   O44     1.276   .     A
C123   O49     1.276   .     A
C124   O84     1.276   .     A
C124   O45     1.276   .     A
C125   O46     1.278   .     A
C125   O82     1.278   .     A
C126   O64     1.279   .     A
C126   O47     1.280   .     A
C127   O101    1.276   .     A
C127   O9      1.276   .     A
C128   O48     1.277   .     A
C128   O63     1.277   .     A
C129   O73     1.280   .     A
C129   O52     1.280   .     A
C130   O53     1.277   .     A
C130   O71     1.277   .     A
C131   O56     1.278   .     A
C131   O77     1.278   .     A
C132   O76     1.276   .     A
C132   O57     1.276   .     A
C133   O60     1.277   .     A
C133   O68     1.278   .     A
C134   O67     1.275   .     A
C134   O62     1.276   .     A
C135   O81     1.276   .     A
C135   O65     1.276   .     A
C136   O66     1.274   .     A
C136   O80     1.274   .     A
C137   C143    1.403   .     A
C137   I1      2.142   .     S
C138   O98     1.274   .     A
C138   O10     1.274   .     A
C139   C142    1.398   .     A
C139   I12     2.147   .     S
C140   C145    1.403   .     A
C140   I23     2.133   .     S
C141   C144    1.401   .     A
C141   I34     2.151   .     S
C142   I45     2.158   .     S
C143   I56     2.147   .     S
C144   I67     2.140   .     S
C145   I78     2.143   .     S
C146   I89     2.151   .     S
C146   C152    1.401   .     A
C147   C151    1.403   .     A
C147   I2      2.133   .     S
C148   I3      2.148   .     S
C148   C154    1.398   .     A
C149   O11     1.276   .     A
C149   O99     1.276   .     A
C150   C153    1.403   .     A
C150   I4      2.142   .     S
C151   I5      2.143   .     S
C152   I6      2.140   .     S
C153   I7      2.147   .     S
C154   I8      2.158   .     S
C155   I9      2.158   .     S
C155   C161    1.398   .     A
C156   I10     2.147   .     S
C156   C159    1.403   .     A
C157   I11     2.141   .     S
C157   C163    1.401   .     A
C158   I13     2.143   .     S
C158   C162    1.403   .     A
C159   I14     2.142   .     S
C160   O96     1.280   .     A
C160   O12     1.280   .     A
C161   I15     2.147   .     S
C162   I16     2.133   .     S
C163   I17     2.151   .     S
C164   I18     2.151   .     S
C164   C169    1.401   1_565 S
C165   I19     2.133   .     S
C165   C168    1.403   1_545 S
C166   I20     2.147   .     S
C166   C172    1.403   1_565 S
C167   I21     2.158   .     S
C167   C170    1.398   1_545 S
C168   I22     2.144   .     S
C168   C165    1.403   1_565 S
C169   I24     2.140   .     S
C169   C164    1.401   1_545 S
C170   I25     2.147   .     S
C170   C167    1.398   1_565 S
C171   O13     1.277   .     A
C171   O97     1.277   .     A
C172   I26     2.142   .     S
C172   C166    1.403   1_545 S
C173   I27     2.158   .     S
C173   C178    1.398   1_545 S
C174   I28     2.147   .     S
C174   C177    1.403   1_565 S
C175   I29     2.134   .     S
C175   C180    1.403   1_545 S
C176   I30     2.151   .     S
C176   C179    1.401   1_565 S
C177   I31     2.142   .     S
C177   C174    1.403   1_545 S
C178   I32     2.147   .     S
C178   C173    1.398   1_565 S
C179   I33     2.140   .     S
C179   C176    1.401   1_545 S
C180   I35     2.144   .     S
C180   C175    1.403   1_565 S
C181   I36     2.142   .     S
C181   C187    1.403   1_655 S
C182   O14     1.275   .     A
C182   O85     1.276   .     A
C183   I37     2.148   .     S
C183   C186    1.398   1_455 S
C184   I38     2.140   .     S
C184   C189    1.401   1_655 S
C185   I39     2.143   .     S
C185   C188    1.403   1_455 S
C186   I40     2.158   .     S
C186   C183    1.398   1_655 S
C187   I41     2.147   .     S
C187   C181    1.403   1_455 S
C188   I42     2.133   .     S
C188   C185    1.403   1_655 S
C189   I43     2.151   .     S
C189   C184    1.401   1_455 S
C190   I44     2.143   .     S
C190   C5      1.403   1_455 S
C191   I46     2.140   .     S
C191   C4      1.401   1_655 S
C192   I47     2.147   .     S
C192   C7      1.398   1_455 S
O1     Zn1     1.949   .     S
O1     Zn22    1.949   .     S
O1     Zn17    1.949   .     S
O1     Zn5     1.949   .     S
O2     Zn24    1.938   .     S
O3     Zn1     1.938   .     S
O4     Zn29    1.938   .     S
O5     Zn28    1.938   .     S
O6     Zn23    1.938   .     S
O7     Zn27    1.938   .     S
O8     Zn25    1.938   .     S
O9     Zn26    1.938   .     S
O10    Zn18    1.938   .     S
O11    Zn19    1.938   .     S
O12    Zn20    1.938   .     S
O13    Zn21    1.938   .     S
O14    Zn21    1.938   .     S
O15    Zn20    1.938   .     S
O16    Zn19    1.938   .     S
O17    Zn24    1.949   .     S
O17    Zn6     1.949   .     S
O17    Zn12    1.949   .     S
O17    Zn16    1.949   .     S
O18    Zn18    1.938   .     S
O19    Zn26    1.938   .     S
O20    Zn25    1.938   .     S
O21    Zn24    1.938   .     S
O22    Zn22    1.938   .     S
O23    Zn25    1.938   .     S
O24    Zn26    1.938   .     S
O25    Zn19    1.938   .     S
O26    Zn18    1.938   .     S
O27    Zn24    1.938   .     S
O28    Zn23    1.949   .     S
O28    Zn11    1.949   .     S
O28    Zn25    1.949   .     S
O28    Zn3     1.949   .     S
O29    Zn22    1.938   .     S
O30    Zn20    1.938   .     S
O31    Zn21    1.938   .     S
O32    Zn13    1.938   .     S
O33    Zn11    1.938   .     S
O34    Zn7     1.938   .     S
O35    Zn8     1.938   .     S
O36    Zn14    1.938   .     S
O37    Zn15    1.938   .     S
O38    Zn6     1.938   .     S
O39    Zn26    1.949   .     S
O39    Zn27    1.949   .     S
O39    Zn4     1.949   .     S
O39    Zn13    1.949   .     S
O40    Zn5     1.938   .     S
O41    Zn9     1.938   .     S
O42    Zn10    1.938   .     S
O43    Zn3     1.938   .     S
O44    Zn4     1.938   .     S
O45    Zn17    1.938   .     S
O46    Zn16    1.938   .     S
O47    Zn2     1.938   .     S
O48    Zn32    1.938   .     S
O49    Zn27    1.938   .     S
O50    Zn18    1.949   .     S
O50    Zn9     1.949   .     S
O50    Zn28    1.949   .     S
O50    Zn8     1.949   .     S
O51    Zn23    1.938   .     S
O52    Zn16    1.938   .     S
O53    Zn17    1.938   .     S
O54    Zn28    1.938   .     S
O55    Zn29    1.938   .     S
O56    Zn15    1.938   .     S
O57    Zn14    1.938   .     S
O58    Zn1     1.938   .     S
O59    Zn12    1.938   .     S
O60    Zn11    1.938   .     S
O61    Zn7     1.949   .     S
O61    Zn29    1.949   .     S
O61    Zn19    1.949   .     S
O61    Zn10    1.949   .     S
O62    Zn13    1.938   .     S
O63    Zn31    1.938   .     S
O64    Zn30    1.938   .     S
O65    Zn10    1.938   .     S
O66    Zn9     1.938   .     S
O67    Zn4     1.938   .     S
O68    Zn3     1.938   .     S
O69    Zn30    1.938   .     S
O70    Zn31    1.938   .     S
O71    Zn5     1.938   .     S
O72    Zn15    1.949   .     S
O72    Zn20    1.949   .     S
O72    Zn2     1.949   .     S
O72    Zn30    1.949   .     S
O73    Zn6     1.938   .     S
O74    Zn29    1.938   .     S
O75    Zn28    1.938   .     S
O76    Zn32    1.938   .     S
O77    Zn2     1.938   .     S
O78    Zn23    1.938   .     S
O79    Zn27    1.938   .     S
O80    Zn8     1.938   .     S
O81    Zn7     1.938   .     S
O82    Zn12    1.938   .     S
O83    Zn21    1.949   .     S
O83    Zn31    1.949   .     S
O83    Zn14    1.949   .     S
O83    Zn32    1.949   .     S
O84    Zn1     1.938   .     S
O85    Zn32    1.938   .     S
O86    Zn2     1.938   .     S
O87    Zn16    1.938   .     S
O88    Zn17    1.938   .     S
O89    Zn4     1.938   .     S
O90    Zn3     1.938   .     S
O91    Zn10    1.938   .     S
O92    Zn9     1.938   .     S
O93    Zn5     1.938   .     S
O94    Zn22    1.938   .     S
O95    Zn6     1.938   .     S
O96    Zn15    1.938   .     S
O97    Zn14    1.938   .     S
O98    Zn8     1.938   .     S
O99    Zn7     1.938   .     S
O100   Zn11    1.938   .     S
O101   Zn13    1.938   .     S
O102   Zn30    1.938   .     S
O103   Zn31    1.938   .     S
O104   Zn12    1.938   .     S
