data_str_m3_o2_o5_pcu_sym.129
_audit_creation_date              2020-01-03
_audit_creation_method            'Materials Studio'
_symmetry_space_group_name_H-M    'P1'
_symmetry_Int_Tables_number       1
_symmetry_cell_setting            triclinic
loop_
_symmetry_equiv_pos_as_xyz
  x,y,z
_cell_length_a                    30.1176
_cell_length_b                    28.8124
_cell_length_c                    26.7069
_cell_angle_alpha                 90.0125
_cell_angle_beta                  93.9590
_cell_angle_gamma                 90.1571
loop_
_atom_site_label
_atom_site_type_symbol
_atom_site_fract_x
_atom_site_fract_y
_atom_site_fract_z
_atom_site_U_iso_or_equiv
_atom_site_adp_type
_atom_site_occupancy
C1     C     0.16412   0.24998   0.16778   0.00000  Uiso   1.00
C2     C     0.33608   0.25009   0.16679   0.00000  Uiso   1.00
C3     C     0.22582   0.10077   0.13000   0.00000  Uiso   1.00
C4     C     0.27208   0.39857   0.20519   0.00000  Uiso   1.00
C5     C     0.27439   0.10095   0.20324   0.00000  Uiso   1.00
C6     C     0.22796   0.39844   0.12812   0.00000  Uiso   1.00
C7     C     0.21867   0.05277   0.13711   0.00000  Uiso   1.00
C8     C     0.26700   0.44733   0.20839   0.00000  Uiso   1.00
C9     C     0.28137   0.05293   0.19623   0.00000  Uiso   1.00
C10    C     0.23301   0.44724   0.12497   0.00000  Uiso   1.00
C11    C     0.24986   0.25000   0.07302   0.00000  Uiso   1.00
C12    C     0.25019   0.25001   0.26032   0.00000  Uiso   1.00
C13    C     0.24999   0.02650   0.16669   0.00000  Uiso   1.00
C14    C     0.24999   0.47329   0.16669   0.00000  Uiso   1.00
C15    C     0.25001   0.25002   0.02183   0.00000  Uiso   1.00
C16    C     0.25010   0.25003   0.31151   0.00000  Uiso   1.00
C17    C     0.05052   0.28824   0.19774   0.00000  Uiso   1.00
C18    C     0.45382   0.21050   0.18748   0.00000  Uiso   1.00
C19    C     0.45367   0.29240   0.16642   0.00000  Uiso   1.00
C20    C     0.04540   0.21256   0.15777   0.00000  Uiso   1.00
C21    C     0.09614   0.28825   0.19403   0.00000  Uiso   1.00
C22    C     0.40806   0.20940   0.18116   0.00000  Uiso   1.00
C23    C     0.40764   0.29210   0.16210   0.00000  Uiso   1.00
C24    C     0.09089   0.21167   0.15549   0.00000  Uiso   1.00
C25    C     0.11650   0.25005   0.17221   0.00000  Uiso   1.00
C26    C     0.38441   0.25044   0.16947   0.00000  Uiso   1.00
C27    C     0.02499   0.25070   0.17889   0.00000  Uiso   1.00
C28    C     0.47684   0.25161   0.17907   0.00000  Uiso   1.00
H29    H     0.03519   0.31753   0.21515   0.00000  Uiso   1.00
H30    H     0.47131   0.17873   0.19779   0.00000  Uiso   1.00
H31    H     0.47111   0.32419   0.15846   0.00000  Uiso   1.00
H32    H     0.02613   0.18357   0.14210   0.00000  Uiso   1.00
N33    N     0.25000   0.12624   0.16667   0.00000  Uiso   1.00
N34    N     0.25000   0.37377   0.16667   0.00000  Uiso   1.00
O35    O     0.18453   0.28974   0.16667   0.00000  Uiso   1.00
O36    O     0.31547   0.21026   0.16666   0.00000  Uiso   1.00
O37    O     0.31547   0.28974   0.16666   0.00000  Uiso   1.00
O38    O     0.18453   0.21026   0.16667   0.00000  Uiso   1.00
O39    O     0.25000   0.28973   0.09511   0.00000  Uiso   1.00
O40    O     0.25000   0.21027   0.23822   0.00000  Uiso   1.00
O41    O     0.25000   0.28973   0.23822   0.00000  Uiso   1.00
O42    O     0.25000   0.21027   0.09511   0.00000  Uiso   1.00
Zn43   Zn    0.25000   0.30307   0.16667   0.00000  Uiso   1.00
Zn44   Zn    0.25000   0.19693   0.16667   0.00000  Uiso   1.00
C45    C     0.21808   0.11693   0.07604   0.00000  Uiso   1.00
C46    C     0.17352   0.14129   0.06448   0.00000  Uiso   1.00
C47    C     0.16467   0.14955   0.00819   0.00000  Uiso   1.00
H48    H     0.19192   0.17043   0.32682   0.00000  Uiso   1.00
H49    H     0.16202   0.11596   0.32110   0.00000  Uiso   1.00
H50    H     0.13291   0.16870   0.00112   0.00000  Uiso   1.00
H51    H     0.14625   0.11940   0.07769   0.00000  Uiso   1.00
H52    H     0.17353   0.17526   0.08352   0.00000  Uiso   1.00
H53    H     0.24680   0.13705   0.06434   0.00000  Uiso   1.00
H54    H     0.21849   0.08612   0.05084   0.00000  Uiso   1.00
C55    C     0.30688   0.37647   0.24123   0.00000  Uiso   1.00
C56    C     0.29348   0.37378   0.29528   0.00000  Uiso   1.00
C57    C     0.32804   0.34705   0.32845   0.00000  Uiso   1.00
H58    H     0.33127   0.31098   0.31450   0.00000  Uiso   1.00
H59    H     0.36093   0.36462   0.32869   0.00000  Uiso   1.00
H60    H     0.31784   0.34562   0.03424   0.00000  Uiso   1.00
H61    H     0.28992   0.40878   0.31168   0.00000  Uiso   1.00
H62    H     0.26112   0.35583   0.29506   0.00000  Uiso   1.00
H63    H     0.31475   0.34146   0.22927   0.00000  Uiso   1.00
H64    H     0.33837   0.39662   0.24031   0.00000  Uiso   1.00
C65    C     0.28318   0.11748   0.25700   0.00000  Uiso   1.00
C66    C     0.32796   0.14200   0.26758   0.00000  Uiso   1.00
C67    C     0.33758   0.15068   0.32371   0.00000  Uiso   1.00
H68    H     0.31068   0.17175   0.00535   0.00000  Uiso   1.00
H69    H     0.34027   0.11724   0.01105   0.00000  Uiso   1.00
H70    H     0.36953   0.16980   0.33011   0.00000  Uiso   1.00
H71    H     0.35497   0.12009   0.25405   0.00000  Uiso   1.00
H72    H     0.32791   0.17585   0.24837   0.00000  Uiso   1.00
H73    H     0.25474   0.13745   0.26933   0.00000  Uiso   1.00
H74    H     0.28314   0.08679   0.28239   0.00000  Uiso   1.00
C75    C     0.19331   0.37614   0.09188   0.00000  Uiso   1.00
C76    C     0.20695   0.37357   0.03792   0.00000  Uiso   1.00
C77    C     0.17250   0.34671   0.00452   0.00000  Uiso   1.00
H78    H     0.16913   0.31063   0.01841   0.00000  Uiso   1.00
H79    H     0.13964   0.36416   0.00405   0.00000  Uiso   1.00
H80    H     0.18291   0.34532   0.29882   0.00000  Uiso   1.00
H81    H     0.21061   0.40860   0.02160   0.00000  Uiso   1.00
H82    H     0.23933   0.35580   0.03829   0.00000  Uiso   1.00
H83    H     0.18536   0.34107   0.10375   0.00000  Uiso   1.00
H84    H     0.16181   0.39611   0.09264   0.00000  Uiso   1.00
F85    F     0.12022   0.32503   0.21275   0.00000  Uiso   1.00
F86    F     0.38749   0.16788   0.18575   0.00000  Uiso   1.00
F87    F     0.38625   0.33225   0.14920   0.00000  Uiso   1.00
F88    F     0.10933   0.17342   0.13624   0.00000  Uiso   1.00
F89    F     0.18247   0.03280   0.11276   0.00000  Uiso   1.00
F90    F     0.27884   0.46875   0.25249   0.00000  Uiso   1.00
F91    F     0.31761   0.03311   0.22044   0.00000  Uiso   1.00
F92    F     0.22121   0.46859   0.08088   0.00000  Uiso   1.00
C93    C     0.66412   0.24998   0.16778   0.00000  Uiso   1.00
C94    C     0.83608   0.25009   0.16679   0.00000  Uiso   1.00
C95    C     0.72582   0.10077   0.13000   0.00000  Uiso   1.00
C96    C     0.77208   0.39857   0.20519   0.00000  Uiso   1.00
C97    C     0.77439   0.10095   0.20324   0.00000  Uiso   1.00
C98    C     0.72796   0.39844   0.12812   0.00000  Uiso   1.00
C99    C     0.71867   0.05277   0.13711   0.00000  Uiso   1.00
C100   C     0.76700   0.44733   0.20839   0.00000  Uiso   1.00
C101   C     0.78137   0.05293   0.19623   0.00000  Uiso   1.00
C102   C     0.73301   0.44724   0.12497   0.00000  Uiso   1.00
C103   C     0.74986   0.25000   0.07302   0.00000  Uiso   1.00
C104   C     0.75019   0.25001   0.26032   0.00000  Uiso   1.00
C105   C     0.74999   0.02650   0.16669   0.00000  Uiso   1.00
C106   C     0.74999   0.47329   0.16669   0.00000  Uiso   1.00
C107   C     0.75001   0.25002   0.02183   0.00000  Uiso   1.00
C108   C     0.75010   0.25003   0.31151   0.00000  Uiso   1.00
C109   C     0.55052   0.28824   0.19774   0.00000  Uiso   1.00
C110   C     0.95382   0.21050   0.18748   0.00000  Uiso   1.00
C111   C     0.95367   0.29240   0.16642   0.00000  Uiso   1.00
C112   C     0.54540   0.21256   0.15777   0.00000  Uiso   1.00
C113   C     0.59614   0.28825   0.19403   0.00000  Uiso   1.00
C114   C     0.90806   0.20940   0.18116   0.00000  Uiso   1.00
C115   C     0.90764   0.29210   0.16210   0.00000  Uiso   1.00
C116   C     0.59089   0.21167   0.15549   0.00000  Uiso   1.00
C117   C     0.61650   0.25005   0.17221   0.00000  Uiso   1.00
C118   C     0.88441   0.25044   0.16947   0.00000  Uiso   1.00
C119   C     0.52499   0.25070   0.17889   0.00000  Uiso   1.00
C120   C     0.97684   0.25161   0.17907   0.00000  Uiso   1.00
H121   H     0.53519   0.31753   0.21515   0.00000  Uiso   1.00
H122   H     0.97131   0.17873   0.19779   0.00000  Uiso   1.00
H123   H     0.97111   0.32419   0.15846   0.00000  Uiso   1.00
H124   H     0.52613   0.18357   0.14210   0.00000  Uiso   1.00
N125   N     0.75000   0.12624   0.16667   0.00000  Uiso   1.00
N126   N     0.75000   0.37377   0.16667   0.00000  Uiso   1.00
O127   O     0.68453   0.28974   0.16667   0.00000  Uiso   1.00
O128   O     0.81547   0.21026   0.16666   0.00000  Uiso   1.00
O129   O     0.81547   0.28974   0.16666   0.00000  Uiso   1.00
O130   O     0.68453   0.21026   0.16667   0.00000  Uiso   1.00
O131   O     0.75000   0.28973   0.09511   0.00000  Uiso   1.00
O132   O     0.75000   0.21027   0.23822   0.00000  Uiso   1.00
O133   O     0.75000   0.28973   0.23822   0.00000  Uiso   1.00
O134   O     0.75000   0.21027   0.09511   0.00000  Uiso   1.00
Zn135  Zn    0.75000   0.30307   0.16667   0.00000  Uiso   1.00
Zn136  Zn    0.75000   0.19693   0.16667   0.00000  Uiso   1.00
C137   C     0.71808   0.11693   0.07604   0.00000  Uiso   1.00
C138   C     0.67352   0.14129   0.06448   0.00000  Uiso   1.00
C139   C     0.66467   0.14955   0.00819   0.00000  Uiso   1.00
H140   H     0.69192   0.17043   0.32682   0.00000  Uiso   1.00
H141   H     0.66202   0.11596   0.32110   0.00000  Uiso   1.00
H142   H     0.63291   0.16870   0.00112   0.00000  Uiso   1.00
H143   H     0.64625   0.11940   0.07769   0.00000  Uiso   1.00
H144   H     0.67353   0.17526   0.08352   0.00000  Uiso   1.00
H145   H     0.74680   0.13705   0.06434   0.00000  Uiso   1.00
H146   H     0.71849   0.08612   0.05084   0.00000  Uiso   1.00
C147   C     0.80688   0.37647   0.24123   0.00000  Uiso   1.00
C148   C     0.79348   0.37378   0.29528   0.00000  Uiso   1.00
C149   C     0.82804   0.34705   0.32845   0.00000  Uiso   1.00
H150   H     0.83127   0.31098   0.31450   0.00000  Uiso   1.00
H151   H     0.86093   0.36462   0.32869   0.00000  Uiso   1.00
H152   H     0.81784   0.34562   0.03424   0.00000  Uiso   1.00
H153   H     0.78992   0.40878   0.31168   0.00000  Uiso   1.00
H154   H     0.76112   0.35583   0.29506   0.00000  Uiso   1.00
H155   H     0.81475   0.34146   0.22927   0.00000  Uiso   1.00
H156   H     0.83837   0.39662   0.24031   0.00000  Uiso   1.00
C157   C     0.78318   0.11748   0.25700   0.00000  Uiso   1.00
C158   C     0.82796   0.14200   0.26758   0.00000  Uiso   1.00
C159   C     0.83758   0.15068   0.32371   0.00000  Uiso   1.00
H160   H     0.81068   0.17175   0.00535   0.00000  Uiso   1.00
H161   H     0.84027   0.11724   0.01105   0.00000  Uiso   1.00
H162   H     0.86953   0.16980   0.33011   0.00000  Uiso   1.00
H163   H     0.85497   0.12009   0.25405   0.00000  Uiso   1.00
H164   H     0.82791   0.17585   0.24837   0.00000  Uiso   1.00
H165   H     0.75474   0.13745   0.26933   0.00000  Uiso   1.00
H166   H     0.78314   0.08679   0.28239   0.00000  Uiso   1.00
C167   C     0.69331   0.37614   0.09188   0.00000  Uiso   1.00
C168   C     0.70695   0.37357   0.03792   0.00000  Uiso   1.00
C169   C     0.67250   0.34671   0.00452   0.00000  Uiso   1.00
H170   H     0.66913   0.31063   0.01841   0.00000  Uiso   1.00
H171   H     0.63964   0.36416   0.00405   0.00000  Uiso   1.00
H172   H     0.68291   0.34532   0.29882   0.00000  Uiso   1.00
H173   H     0.71061   0.40860   0.02160   0.00000  Uiso   1.00
H174   H     0.73933   0.35580   0.03829   0.00000  Uiso   1.00
H175   H     0.68536   0.34107   0.10375   0.00000  Uiso   1.00
H176   H     0.66181   0.39611   0.09264   0.00000  Uiso   1.00
F177   F     0.62022   0.32503   0.21275   0.00000  Uiso   1.00
F178   F     0.88749   0.16788   0.18575   0.00000  Uiso   1.00
F179   F     0.88625   0.33225   0.14920   0.00000  Uiso   1.00
F180   F     0.60933   0.17342   0.13624   0.00000  Uiso   1.00
F181   F     0.68247   0.03280   0.11276   0.00000  Uiso   1.00
F182   F     0.77884   0.46875   0.25249   0.00000  Uiso   1.00
F183   F     0.81761   0.03311   0.22044   0.00000  Uiso   1.00
F184   F     0.72121   0.46859   0.08088   0.00000  Uiso   1.00
C185   C     0.16412   0.74998   0.16778   0.00000  Uiso   1.00
C186   C     0.33608   0.75009   0.16679   0.00000  Uiso   1.00
C187   C     0.22582   0.60077   0.13000   0.00000  Uiso   1.00
C188   C     0.27208   0.89857   0.20519   0.00000  Uiso   1.00
C189   C     0.27439   0.60095   0.20324   0.00000  Uiso   1.00
C190   C     0.22796   0.89844   0.12812   0.00000  Uiso   1.00
C191   C     0.21867   0.55277   0.13711   0.00000  Uiso   1.00
C192   C     0.26700   0.94733   0.20839   0.00000  Uiso   1.00
C193   C     0.28137   0.55293   0.19623   0.00000  Uiso   1.00
C194   C     0.23301   0.94724   0.12497   0.00000  Uiso   1.00
C195   C     0.24986   0.75000   0.07302   0.00000  Uiso   1.00
C196   C     0.25019   0.75001   0.26032   0.00000  Uiso   1.00
C197   C     0.24999   0.52650   0.16669   0.00000  Uiso   1.00
C198   C     0.24999   0.97329   0.16669   0.00000  Uiso   1.00
C199   C     0.25001   0.75002   0.02183   0.00000  Uiso   1.00
C200   C     0.25010   0.75003   0.31151   0.00000  Uiso   1.00
C201   C     0.05052   0.78824   0.19774   0.00000  Uiso   1.00
C202   C     0.45382   0.71050   0.18748   0.00000  Uiso   1.00
C203   C     0.45367   0.79240   0.16642   0.00000  Uiso   1.00
C204   C     0.04540   0.71256   0.15777   0.00000  Uiso   1.00
C205   C     0.09614   0.78825   0.19403   0.00000  Uiso   1.00
C206   C     0.40806   0.70940   0.18116   0.00000  Uiso   1.00
C207   C     0.40764   0.79210   0.16210   0.00000  Uiso   1.00
C208   C     0.09089   0.71167   0.15549   0.00000  Uiso   1.00
C209   C     0.11650   0.75005   0.17221   0.00000  Uiso   1.00
C210   C     0.38441   0.75044   0.16947   0.00000  Uiso   1.00
C211   C     0.02499   0.75070   0.17889   0.00000  Uiso   1.00
C212   C     0.47684   0.75161   0.17907   0.00000  Uiso   1.00
H213   H     0.03519   0.81753   0.21515   0.00000  Uiso   1.00
H214   H     0.47131   0.67873   0.19779   0.00000  Uiso   1.00
H215   H     0.47111   0.82419   0.15846   0.00000  Uiso   1.00
H216   H     0.02613   0.68357   0.14210   0.00000  Uiso   1.00
N217   N     0.25000   0.62624   0.16667   0.00000  Uiso   1.00
N218   N     0.25000   0.87377   0.16667   0.00000  Uiso   1.00
O219   O     0.18453   0.78974   0.16667   0.00000  Uiso   1.00
O220   O     0.31547   0.71026   0.16666   0.00000  Uiso   1.00
O221   O     0.31547   0.78974   0.16666   0.00000  Uiso   1.00
O222   O     0.18453   0.71026   0.16667   0.00000  Uiso   1.00
O223   O     0.25000   0.78973   0.09511   0.00000  Uiso   1.00
O224   O     0.25000   0.71027   0.23822   0.00000  Uiso   1.00
O225   O     0.25000   0.78973   0.23822   0.00000  Uiso   1.00
O226   O     0.25000   0.71027   0.09511   0.00000  Uiso   1.00
Zn227  Zn    0.25000   0.80307   0.16667   0.00000  Uiso   1.00
Zn228  Zn    0.25000   0.69693   0.16667   0.00000  Uiso   1.00
C229   C     0.21808   0.61693   0.07604   0.00000  Uiso   1.00
C230   C     0.17352   0.64129   0.06448   0.00000  Uiso   1.00
C231   C     0.16467   0.64955   0.00819   0.00000  Uiso   1.00
H232   H     0.19192   0.67043   0.32682   0.00000  Uiso   1.00
H233   H     0.16202   0.61596   0.32110   0.00000  Uiso   1.00
H234   H     0.13291   0.66870   0.00112   0.00000  Uiso   1.00
H235   H     0.14625   0.61940   0.07769   0.00000  Uiso   1.00
H236   H     0.17353   0.67526   0.08352   0.00000  Uiso   1.00
H237   H     0.24680   0.63705   0.06434   0.00000  Uiso   1.00
H238   H     0.21849   0.58612   0.05084   0.00000  Uiso   1.00
C239   C     0.30688   0.87647   0.24123   0.00000  Uiso   1.00
C240   C     0.29348   0.87378   0.29528   0.00000  Uiso   1.00
C241   C     0.32804   0.84705   0.32845   0.00000  Uiso   1.00
H242   H     0.33127   0.81098   0.31450   0.00000  Uiso   1.00
H243   H     0.36093   0.86462   0.32869   0.00000  Uiso   1.00
H244   H     0.31784   0.84562   0.03424   0.00000  Uiso   1.00
H245   H     0.28992   0.90878   0.31168   0.00000  Uiso   1.00
H246   H     0.26112   0.85583   0.29506   0.00000  Uiso   1.00
H247   H     0.31475   0.84146   0.22927   0.00000  Uiso   1.00
H248   H     0.33837   0.89662   0.24031   0.00000  Uiso   1.00
C249   C     0.28318   0.61748   0.25700   0.00000  Uiso   1.00
C250   C     0.32796   0.64200   0.26758   0.00000  Uiso   1.00
C251   C     0.33758   0.65068   0.32371   0.00000  Uiso   1.00
H252   H     0.31068   0.67175   0.00535   0.00000  Uiso   1.00
H253   H     0.34027   0.61724   0.01105   0.00000  Uiso   1.00
H254   H     0.36953   0.66980   0.33011   0.00000  Uiso   1.00
H255   H     0.35497   0.62009   0.25405   0.00000  Uiso   1.00
H256   H     0.32791   0.67585   0.24837   0.00000  Uiso   1.00
H257   H     0.25474   0.63745   0.26933   0.00000  Uiso   1.00
H258   H     0.28314   0.58679   0.28239   0.00000  Uiso   1.00
C259   C     0.19331   0.87614   0.09188   0.00000  Uiso   1.00
C260   C     0.20695   0.87357   0.03792   0.00000  Uiso   1.00
C261   C     0.17250   0.84671   0.00452   0.00000  Uiso   1.00
H262   H     0.16913   0.81063   0.01841   0.00000  Uiso   1.00
H263   H     0.13964   0.86416   0.00405   0.00000  Uiso   1.00
H264   H     0.18291   0.84532   0.29882   0.00000  Uiso   1.00
H265   H     0.21061   0.90860   0.02160   0.00000  Uiso   1.00
H266   H     0.23933   0.85580   0.03829   0.00000  Uiso   1.00
H267   H     0.18536   0.84107   0.10375   0.00000  Uiso   1.00
H268   H     0.16181   0.89611   0.09264   0.00000  Uiso   1.00
F269   F     0.12022   0.82503   0.21275   0.00000  Uiso   1.00
F270   F     0.38749   0.66788   0.18575   0.00000  Uiso   1.00
F271   F     0.38625   0.83225   0.14920   0.00000  Uiso   1.00
F272   F     0.10933   0.67342   0.13624   0.00000  Uiso   1.00
F273   F     0.18247   0.53280   0.11276   0.00000  Uiso   1.00
F274   F     0.27884   0.96875   0.25249   0.00000  Uiso   1.00
F275   F     0.31761   0.53311   0.22044   0.00000  Uiso   1.00
F276   F     0.22121   0.96859   0.08088   0.00000  Uiso   1.00
C277   C     0.66412   0.74998   0.16778   0.00000  Uiso   1.00
C278   C     0.83608   0.75009   0.16679   0.00000  Uiso   1.00
C279   C     0.72582   0.60077   0.13000   0.00000  Uiso   1.00
C280   C     0.77208   0.89857   0.20519   0.00000  Uiso   1.00
C281   C     0.77439   0.60095   0.20324   0.00000  Uiso   1.00
C282   C     0.72796   0.89844   0.12812   0.00000  Uiso   1.00
C283   C     0.71867   0.55277   0.13711   0.00000  Uiso   1.00
C284   C     0.76700   0.94733   0.20839   0.00000  Uiso   1.00
C285   C     0.78137   0.55293   0.19623   0.00000  Uiso   1.00
C286   C     0.73301   0.94724   0.12497   0.00000  Uiso   1.00
C287   C     0.74986   0.75000   0.07302   0.00000  Uiso   1.00
C288   C     0.75019   0.75001   0.26032   0.00000  Uiso   1.00
C289   C     0.74999   0.52650   0.16669   0.00000  Uiso   1.00
C290   C     0.74999   0.97329   0.16669   0.00000  Uiso   1.00
C291   C     0.75001   0.75002   0.02183   0.00000  Uiso   1.00
C292   C     0.75010   0.75003   0.31151   0.00000  Uiso   1.00
C293   C     0.55052   0.78824   0.19774   0.00000  Uiso   1.00
C294   C     0.95382   0.71050   0.18748   0.00000  Uiso   1.00
C295   C     0.95367   0.79240   0.16642   0.00000  Uiso   1.00
C296   C     0.54540   0.71256   0.15777   0.00000  Uiso   1.00
C297   C     0.59614   0.78825   0.19403   0.00000  Uiso   1.00
C298   C     0.90806   0.70940   0.18116   0.00000  Uiso   1.00
C299   C     0.90764   0.79210   0.16210   0.00000  Uiso   1.00
C300   C     0.59089   0.71167   0.15549   0.00000  Uiso   1.00
C301   C     0.61650   0.75005   0.17221   0.00000  Uiso   1.00
C302   C     0.88441   0.75044   0.16947   0.00000  Uiso   1.00
C303   C     0.52499   0.75070   0.17889   0.00000  Uiso   1.00
C304   C     0.97684   0.75161   0.17907   0.00000  Uiso   1.00
H305   H     0.53519   0.81753   0.21515   0.00000  Uiso   1.00
H306   H     0.97131   0.67873   0.19779   0.00000  Uiso   1.00
H307   H     0.97111   0.82419   0.15846   0.00000  Uiso   1.00
H308   H     0.52613   0.68357   0.14210   0.00000  Uiso   1.00
N309   N     0.75000   0.62624   0.16667   0.00000  Uiso   1.00
N310   N     0.75000   0.87377   0.16667   0.00000  Uiso   1.00
O311   O     0.68453   0.78974   0.16667   0.00000  Uiso   1.00
O312   O     0.81547   0.71026   0.16666   0.00000  Uiso   1.00
O313   O     0.81547   0.78974   0.16666   0.00000  Uiso   1.00
O314   O     0.68453   0.71026   0.16667   0.00000  Uiso   1.00
O315   O     0.75000   0.78973   0.09511   0.00000  Uiso   1.00
O316   O     0.75000   0.71027   0.23822   0.00000  Uiso   1.00
O317   O     0.75000   0.78973   0.23822   0.00000  Uiso   1.00
O318   O     0.75000   0.71027   0.09511   0.00000  Uiso   1.00
Zn319  Zn    0.75000   0.80307   0.16667   0.00000  Uiso   1.00
Zn320  Zn    0.75000   0.69693   0.16667   0.00000  Uiso   1.00
C321   C     0.71808   0.61693   0.07604   0.00000  Uiso   1.00
C322   C     0.67352   0.64129   0.06448   0.00000  Uiso   1.00
C323   C     0.66467   0.64955   0.00819   0.00000  Uiso   1.00
H324   H     0.69192   0.67043   0.32682   0.00000  Uiso   1.00
H325   H     0.66202   0.61596   0.32110   0.00000  Uiso   1.00
H326   H     0.63291   0.66870   0.00112   0.00000  Uiso   1.00
H327   H     0.64625   0.61940   0.07769   0.00000  Uiso   1.00
H328   H     0.67353   0.67526   0.08352   0.00000  Uiso   1.00
H329   H     0.74680   0.63705   0.06434   0.00000  Uiso   1.00
H330   H     0.71849   0.58612   0.05084   0.00000  Uiso   1.00
C331   C     0.80688   0.87647   0.24123   0.00000  Uiso   1.00
C332   C     0.79348   0.87378   0.29528   0.00000  Uiso   1.00
C333   C     0.82804   0.84705   0.32845   0.00000  Uiso   1.00
H334   H     0.83127   0.81098   0.31450   0.00000  Uiso   1.00
H335   H     0.86093   0.86462   0.32869   0.00000  Uiso   1.00
H336   H     0.81784   0.84562   0.03424   0.00000  Uiso   1.00
H337   H     0.78992   0.90878   0.31168   0.00000  Uiso   1.00
H338   H     0.76112   0.85583   0.29506   0.00000  Uiso   1.00
H339   H     0.81475   0.84146   0.22927   0.00000  Uiso   1.00
H340   H     0.83837   0.89662   0.24031   0.00000  Uiso   1.00
C341   C     0.78318   0.61748   0.25700   0.00000  Uiso   1.00
C342   C     0.82796   0.64200   0.26758   0.00000  Uiso   1.00
C343   C     0.83758   0.65068   0.32371   0.00000  Uiso   1.00
H344   H     0.81068   0.67175   0.00535   0.00000  Uiso   1.00
H345   H     0.84027   0.61724   0.01105   0.00000  Uiso   1.00
H346   H     0.86953   0.66980   0.33011   0.00000  Uiso   1.00
H347   H     0.85497   0.62009   0.25405   0.00000  Uiso   1.00
H348   H     0.82791   0.67585   0.24837   0.00000  Uiso   1.00
H349   H     0.75474   0.63745   0.26933   0.00000  Uiso   1.00
H350   H     0.78314   0.58679   0.28239   0.00000  Uiso   1.00
C351   C     0.69331   0.87614   0.09188   0.00000  Uiso   1.00
C352   C     0.70695   0.87357   0.03792   0.00000  Uiso   1.00
C353   C     0.67250   0.84671   0.00452   0.00000  Uiso   1.00
H354   H     0.66913   0.81063   0.01841   0.00000  Uiso   1.00
H355   H     0.63964   0.86416   0.00405   0.00000  Uiso   1.00
H356   H     0.68291   0.84532   0.29882   0.00000  Uiso   1.00
H357   H     0.71061   0.90860   0.02160   0.00000  Uiso   1.00
H358   H     0.73933   0.85580   0.03829   0.00000  Uiso   1.00
H359   H     0.68536   0.84107   0.10375   0.00000  Uiso   1.00
H360   H     0.66181   0.89611   0.09264   0.00000  Uiso   1.00
F361   F     0.62022   0.82503   0.21275   0.00000  Uiso   1.00
F362   F     0.88749   0.66788   0.18575   0.00000  Uiso   1.00
F363   F     0.88625   0.83225   0.14920   0.00000  Uiso   1.00
F364   F     0.60933   0.67342   0.13624   0.00000  Uiso   1.00
F365   F     0.68247   0.53280   0.11276   0.00000  Uiso   1.00
F366   F     0.77884   0.96875   0.25249   0.00000  Uiso   1.00
F367   F     0.81761   0.53311   0.22044   0.00000  Uiso   1.00
F368   F     0.72121   0.96859   0.08088   0.00000  Uiso   1.00
C369   C     0.16412   0.24998   0.50111   0.00000  Uiso   1.00
C370   C     0.33608   0.25009   0.50012   0.00000  Uiso   1.00
C371   C     0.22582   0.10077   0.46333   0.00000  Uiso   1.00
C372   C     0.27208   0.39857   0.53852   0.00000  Uiso   1.00
C373   C     0.27439   0.10095   0.53657   0.00000  Uiso   1.00
C374   C     0.22796   0.39844   0.46146   0.00000  Uiso   1.00
C375   C     0.21867   0.05277   0.47044   0.00000  Uiso   1.00
C376   C     0.26700   0.44733   0.54173   0.00000  Uiso   1.00
C377   C     0.28137   0.05293   0.52956   0.00000  Uiso   1.00
C378   C     0.23301   0.44724   0.45830   0.00000  Uiso   1.00
C379   C     0.24986   0.25000   0.40635   0.00000  Uiso   1.00
C380   C     0.25019   0.25001   0.59365   0.00000  Uiso   1.00
C381   C     0.24999   0.02650   0.50003   0.00000  Uiso   1.00
C382   C     0.24999   0.47329   0.50003   0.00000  Uiso   1.00
C383   C     0.25001   0.25002   0.35517   0.00000  Uiso   1.00
C384   C     0.25010   0.25003   0.64484   0.00000  Uiso   1.00
C385   C     0.05052   0.28824   0.53107   0.00000  Uiso   1.00
C386   C     0.45382   0.21050   0.52082   0.00000  Uiso   1.00
C387   C     0.45367   0.29240   0.49975   0.00000  Uiso   1.00
C388   C     0.04540   0.21256   0.49111   0.00000  Uiso   1.00
C389   C     0.09614   0.28825   0.52736   0.00000  Uiso   1.00
C390   C     0.40806   0.20940   0.51450   0.00000  Uiso   1.00
C391   C     0.40764   0.29210   0.49543   0.00000  Uiso   1.00
C392   C     0.09089   0.21167   0.48883   0.00000  Uiso   1.00
C393   C     0.11650   0.25005   0.50554   0.00000  Uiso   1.00
C394   C     0.38441   0.25044   0.50280   0.00000  Uiso   1.00
C395   C     0.02499   0.25070   0.51222   0.00000  Uiso   1.00
C396   C     0.47684   0.25161   0.51241   0.00000  Uiso   1.00
H397   H     0.03519   0.31753   0.54848   0.00000  Uiso   1.00
H398   H     0.47131   0.17873   0.53112   0.00000  Uiso   1.00
H399   H     0.47111   0.32419   0.49179   0.00000  Uiso   1.00
H400   H     0.02613   0.18357   0.47544   0.00000  Uiso   1.00
N401   N     0.25000   0.12624   0.50000   0.00000  Uiso   1.00
N402   N     0.25000   0.37377   0.50000   0.00000  Uiso   1.00
O403   O     0.18453   0.28974   0.50000   0.00000  Uiso   1.00
O404   O     0.31547   0.21026   0.50000   0.00000  Uiso   1.00
O405   O     0.31547   0.28974   0.50000   0.00000  Uiso   1.00
O406   O     0.18453   0.21026   0.50000   0.00000  Uiso   1.00
O407   O     0.25000   0.28973   0.42845   0.00000  Uiso   1.00
O408   O     0.25000   0.21027   0.57155   0.00000  Uiso   1.00
O409   O     0.25000   0.28973   0.57155   0.00000  Uiso   1.00
O410   O     0.25000   0.21027   0.42845   0.00000  Uiso   1.00
Zn411  Zn    0.25000   0.30307   0.50000   0.00000  Uiso   1.00
Zn412  Zn    0.25000   0.19693   0.50000   0.00000  Uiso   1.00
C413   C     0.21808   0.11693   0.40937   0.00000  Uiso   1.00
C414   C     0.17352   0.14129   0.39781   0.00000  Uiso   1.00
C415   C     0.16467   0.14955   0.34152   0.00000  Uiso   1.00
H416   H     0.19192   0.17043   0.66016   0.00000  Uiso   1.00
H417   H     0.16202   0.11596   0.65443   0.00000  Uiso   1.00
H418   H     0.13291   0.16870   0.33445   0.00000  Uiso   1.00
H419   H     0.14625   0.11940   0.41102   0.00000  Uiso   1.00
H420   H     0.17353   0.17526   0.41685   0.00000  Uiso   1.00
H421   H     0.24680   0.13705   0.39768   0.00000  Uiso   1.00
H422   H     0.21849   0.08612   0.38418   0.00000  Uiso   1.00
C423   C     0.30688   0.37647   0.57457   0.00000  Uiso   1.00
C424   C     0.29348   0.37378   0.62861   0.00000  Uiso   1.00
C425   C     0.32804   0.34705   0.66178   0.00000  Uiso   1.00
H426   H     0.33127   0.31098   0.64783   0.00000  Uiso   1.00
H427   H     0.36093   0.36462   0.66202   0.00000  Uiso   1.00
H428   H     0.31784   0.34562   0.36757   0.00000  Uiso   1.00
H429   H     0.28992   0.40878   0.64502   0.00000  Uiso   1.00
H430   H     0.26112   0.35583   0.62840   0.00000  Uiso   1.00
H431   H     0.31475   0.34146   0.56260   0.00000  Uiso   1.00
H432   H     0.33837   0.39662   0.57365   0.00000  Uiso   1.00
C433   C     0.28318   0.11748   0.59033   0.00000  Uiso   1.00
C434   C     0.32796   0.14200   0.60091   0.00000  Uiso   1.00
C435   C     0.33758   0.15068   0.65704   0.00000  Uiso   1.00
H436   H     0.31068   0.17175   0.33868   0.00000  Uiso   1.00
H437   H     0.34027   0.11724   0.34438   0.00000  Uiso   1.00
H438   H     0.36953   0.16980   0.66344   0.00000  Uiso   1.00
H439   H     0.35497   0.12009   0.58738   0.00000  Uiso   1.00
H440   H     0.32791   0.17585   0.58170   0.00000  Uiso   1.00
H441   H     0.25474   0.13745   0.60267   0.00000  Uiso   1.00
H442   H     0.28314   0.08679   0.61572   0.00000  Uiso   1.00
C443   C     0.19331   0.37614   0.42522   0.00000  Uiso   1.00
C444   C     0.20695   0.37357   0.37125   0.00000  Uiso   1.00
C445   C     0.17250   0.34671   0.33785   0.00000  Uiso   1.00
H446   H     0.16913   0.31063   0.35174   0.00000  Uiso   1.00
H447   H     0.13964   0.36416   0.33739   0.00000  Uiso   1.00
H448   H     0.18291   0.34532   0.63215   0.00000  Uiso   1.00
H449   H     0.21061   0.40860   0.35493   0.00000  Uiso   1.00
H450   H     0.23933   0.35580   0.37162   0.00000  Uiso   1.00
H451   H     0.18536   0.34107   0.43708   0.00000  Uiso   1.00
H452   H     0.16181   0.39611   0.42597   0.00000  Uiso   1.00
F453   F     0.12022   0.32503   0.54608   0.00000  Uiso   1.00
F454   F     0.38749   0.16788   0.51908   0.00000  Uiso   1.00
F455   F     0.38625   0.33225   0.48254   0.00000  Uiso   1.00
F456   F     0.10933   0.17342   0.46957   0.00000  Uiso   1.00
F457   F     0.18247   0.03280   0.44610   0.00000  Uiso   1.00
F458   F     0.27884   0.46875   0.58582   0.00000  Uiso   1.00
F459   F     0.31761   0.03311   0.55378   0.00000  Uiso   1.00
F460   F     0.22121   0.46859   0.41421   0.00000  Uiso   1.00
C461   C     0.66412   0.24998   0.50111   0.00000  Uiso   1.00
C462   C     0.83608   0.25009   0.50012   0.00000  Uiso   1.00
C463   C     0.72582   0.10077   0.46333   0.00000  Uiso   1.00
C464   C     0.77208   0.39857   0.53852   0.00000  Uiso   1.00
C465   C     0.77439   0.10095   0.53657   0.00000  Uiso   1.00
C466   C     0.72796   0.39844   0.46146   0.00000  Uiso   1.00
C467   C     0.71867   0.05277   0.47044   0.00000  Uiso   1.00
C468   C     0.76700   0.44733   0.54173   0.00000  Uiso   1.00
C469   C     0.78137   0.05293   0.52956   0.00000  Uiso   1.00
C470   C     0.73301   0.44724   0.45830   0.00000  Uiso   1.00
C471   C     0.74986   0.25000   0.40635   0.00000  Uiso   1.00
C472   C     0.75019   0.25001   0.59365   0.00000  Uiso   1.00
C473   C     0.74999   0.02650   0.50003   0.00000  Uiso   1.00
C474   C     0.74999   0.47329   0.50003   0.00000  Uiso   1.00
C475   C     0.75001   0.25002   0.35517   0.00000  Uiso   1.00
C476   C     0.75010   0.25003   0.64484   0.00000  Uiso   1.00
C477   C     0.55052   0.28824   0.53107   0.00000  Uiso   1.00
C478   C     0.95382   0.21050   0.52082   0.00000  Uiso   1.00
C479   C     0.95367   0.29240   0.49975   0.00000  Uiso   1.00
C480   C     0.54540   0.21256   0.49111   0.00000  Uiso   1.00
C481   C     0.59614   0.28825   0.52736   0.00000  Uiso   1.00
C482   C     0.90806   0.20940   0.51450   0.00000  Uiso   1.00
C483   C     0.90764   0.29210   0.49543   0.00000  Uiso   1.00
C484   C     0.59089   0.21167   0.48883   0.00000  Uiso   1.00
C485   C     0.61650   0.25005   0.50554   0.00000  Uiso   1.00
C486   C     0.88441   0.25044   0.50280   0.00000  Uiso   1.00
C487   C     0.52499   0.25070   0.51222   0.00000  Uiso   1.00
C488   C     0.97684   0.25161   0.51241   0.00000  Uiso   1.00
H489   H     0.53519   0.31753   0.54848   0.00000  Uiso   1.00
H490   H     0.97131   0.17873   0.53112   0.00000  Uiso   1.00
H491   H     0.97111   0.32419   0.49179   0.00000  Uiso   1.00
H492   H     0.52613   0.18357   0.47544   0.00000  Uiso   1.00
N493   N     0.75000   0.12624   0.50000   0.00000  Uiso   1.00
N494   N     0.75000   0.37377   0.50000   0.00000  Uiso   1.00
O495   O     0.68453   0.28974   0.50000   0.00000  Uiso   1.00
O496   O     0.81547   0.21026   0.50000   0.00000  Uiso   1.00
O497   O     0.81547   0.28974   0.50000   0.00000  Uiso   1.00
O498   O     0.68453   0.21026   0.50000   0.00000  Uiso   1.00
O499   O     0.75000   0.28973   0.42845   0.00000  Uiso   1.00
O500   O     0.75000   0.21027   0.57155   0.00000  Uiso   1.00
O501   O     0.75000   0.28973   0.57155   0.00000  Uiso   1.00
O502   O     0.75000   0.21027   0.42845   0.00000  Uiso   1.00
Zn503  Zn    0.75000   0.30307   0.50000   0.00000  Uiso   1.00
Zn504  Zn    0.75000   0.19693   0.50000   0.00000  Uiso   1.00
C505   C     0.71808   0.11693   0.40937   0.00000  Uiso   1.00
C506   C     0.67352   0.14129   0.39781   0.00000  Uiso   1.00
C507   C     0.66467   0.14955   0.34152   0.00000  Uiso   1.00
H508   H     0.69192   0.17043   0.66016   0.00000  Uiso   1.00
H509   H     0.66202   0.11596   0.65443   0.00000  Uiso   1.00
H510   H     0.63291   0.16870   0.33445   0.00000  Uiso   1.00
H511   H     0.64625   0.11940   0.41102   0.00000  Uiso   1.00
H512   H     0.67353   0.17526   0.41685   0.00000  Uiso   1.00
H513   H     0.74680   0.13705   0.39768   0.00000  Uiso   1.00
H514   H     0.71849   0.08612   0.38418   0.00000  Uiso   1.00
C515   C     0.80688   0.37647   0.57457   0.00000  Uiso   1.00
C516   C     0.79348   0.37378   0.62861   0.00000  Uiso   1.00
C517   C     0.82804   0.34705   0.66178   0.00000  Uiso   1.00
H518   H     0.83127   0.31098   0.64783   0.00000  Uiso   1.00
H519   H     0.86093   0.36462   0.66202   0.00000  Uiso   1.00
H520   H     0.81784   0.34562   0.36757   0.00000  Uiso   1.00
H521   H     0.78992   0.40878   0.64502   0.00000  Uiso   1.00
H522   H     0.76112   0.35583   0.62840   0.00000  Uiso   1.00
H523   H     0.81475   0.34146   0.56260   0.00000  Uiso   1.00
H524   H     0.83837   0.39662   0.57365   0.00000  Uiso   1.00
C525   C     0.78318   0.11748   0.59033   0.00000  Uiso   1.00
C526   C     0.82796   0.14200   0.60091   0.00000  Uiso   1.00
C527   C     0.83758   0.15068   0.65704   0.00000  Uiso   1.00
H528   H     0.81068   0.17175   0.33868   0.00000  Uiso   1.00
H529   H     0.84027   0.11724   0.34438   0.00000  Uiso   1.00
H530   H     0.86953   0.16980   0.66344   0.00000  Uiso   1.00
H531   H     0.85497   0.12009   0.58738   0.00000  Uiso   1.00
H532   H     0.82791   0.17585   0.58170   0.00000  Uiso   1.00
H533   H     0.75474   0.13745   0.60267   0.00000  Uiso   1.00
H534   H     0.78314   0.08679   0.61572   0.00000  Uiso   1.00
C535   C     0.69331   0.37614   0.42522   0.00000  Uiso   1.00
C536   C     0.70695   0.37357   0.37125   0.00000  Uiso   1.00
C537   C     0.67250   0.34671   0.33785   0.00000  Uiso   1.00
H538   H     0.66913   0.31063   0.35174   0.00000  Uiso   1.00
H539   H     0.63964   0.36416   0.33739   0.00000  Uiso   1.00
H540   H     0.68291   0.34532   0.63215   0.00000  Uiso   1.00
H541   H     0.71061   0.40860   0.35493   0.00000  Uiso   1.00
H542   H     0.73933   0.35580   0.37162   0.00000  Uiso   1.00
H543   H     0.68536   0.34107   0.43708   0.00000  Uiso   1.00
H544   H     0.66181   0.39611   0.42597   0.00000  Uiso   1.00
F545   F     0.62022   0.32503   0.54608   0.00000  Uiso   1.00
F546   F     0.88749   0.16788   0.51908   0.00000  Uiso   1.00
F547   F     0.88625   0.33225   0.48254   0.00000  Uiso   1.00
F548   F     0.60933   0.17342   0.46957   0.00000  Uiso   1.00
F549   F     0.68247   0.03280   0.44610   0.00000  Uiso   1.00
F550   F     0.77884   0.46875   0.58582   0.00000  Uiso   1.00
F551   F     0.81761   0.03311   0.55378   0.00000  Uiso   1.00
F552   F     0.72121   0.46859   0.41421   0.00000  Uiso   1.00
C553   C     0.16412   0.74998   0.50111   0.00000  Uiso   1.00
C554   C     0.33608   0.75009   0.50012   0.00000  Uiso   1.00
C555   C     0.22582   0.60077   0.46333   0.00000  Uiso   1.00
C556   C     0.27208   0.89857   0.53852   0.00000  Uiso   1.00
C557   C     0.27439   0.60095   0.53657   0.00000  Uiso   1.00
C558   C     0.22796   0.89844   0.46146   0.00000  Uiso   1.00
C559   C     0.21867   0.55277   0.47044   0.00000  Uiso   1.00
C560   C     0.26700   0.94733   0.54173   0.00000  Uiso   1.00
C561   C     0.28137   0.55293   0.52956   0.00000  Uiso   1.00
C562   C     0.23301   0.94724   0.45830   0.00000  Uiso   1.00
C563   C     0.24986   0.75000   0.40635   0.00000  Uiso   1.00
C564   C     0.25019   0.75001   0.59365   0.00000  Uiso   1.00
C565   C     0.24999   0.52650   0.50003   0.00000  Uiso   1.00
C566   C     0.24999   0.97329   0.50003   0.00000  Uiso   1.00
C567   C     0.25001   0.75002   0.35517   0.00000  Uiso   1.00
C568   C     0.25010   0.75003   0.64484   0.00000  Uiso   1.00
C569   C     0.05052   0.78824   0.53107   0.00000  Uiso   1.00
C570   C     0.45382   0.71050   0.52082   0.00000  Uiso   1.00
C571   C     0.45367   0.79240   0.49975   0.00000  Uiso   1.00
C572   C     0.04540   0.71256   0.49111   0.00000  Uiso   1.00
C573   C     0.09614   0.78825   0.52736   0.00000  Uiso   1.00
C574   C     0.40806   0.70940   0.51450   0.00000  Uiso   1.00
C575   C     0.40764   0.79210   0.49543   0.00000  Uiso   1.00
C576   C     0.09089   0.71167   0.48883   0.00000  Uiso   1.00
C577   C     0.11650   0.75005   0.50554   0.00000  Uiso   1.00
C578   C     0.38441   0.75044   0.50280   0.00000  Uiso   1.00
C579   C     0.02499   0.75070   0.51222   0.00000  Uiso   1.00
C580   C     0.47684   0.75161   0.51241   0.00000  Uiso   1.00
H581   H     0.03519   0.81753   0.54848   0.00000  Uiso   1.00
H582   H     0.47131   0.67873   0.53112   0.00000  Uiso   1.00
H583   H     0.47111   0.82419   0.49179   0.00000  Uiso   1.00
H584   H     0.02613   0.68357   0.47544   0.00000  Uiso   1.00
N585   N     0.25000   0.62624   0.50000   0.00000  Uiso   1.00
N586   N     0.25000   0.87377   0.50000   0.00000  Uiso   1.00
O587   O     0.18453   0.78974   0.50000   0.00000  Uiso   1.00
O588   O     0.31547   0.71026   0.50000   0.00000  Uiso   1.00
O589   O     0.31547   0.78974   0.50000   0.00000  Uiso   1.00
O590   O     0.18453   0.71026   0.50000   0.00000  Uiso   1.00
O591   O     0.25000   0.78973   0.42845   0.00000  Uiso   1.00
O592   O     0.25000   0.71027   0.57155   0.00000  Uiso   1.00
O593   O     0.25000   0.78973   0.57155   0.00000  Uiso   1.00
O594   O     0.25000   0.71027   0.42845   0.00000  Uiso   1.00
Zn595  Zn    0.25000   0.80307   0.50000   0.00000  Uiso   1.00
Zn596  Zn    0.25000   0.69693   0.50000   0.00000  Uiso   1.00
C597   C     0.21808   0.61693   0.40937   0.00000  Uiso   1.00
C598   C     0.17352   0.64129   0.39781   0.00000  Uiso   1.00
C599   C     0.16467   0.64955   0.34152   0.00000  Uiso   1.00
H600   H     0.19192   0.67043   0.66016   0.00000  Uiso   1.00
H601   H     0.16202   0.61596   0.65443   0.00000  Uiso   1.00
H602   H     0.13291   0.66870   0.33445   0.00000  Uiso   1.00
H603   H     0.14625   0.61940   0.41102   0.00000  Uiso   1.00
H604   H     0.17353   0.67526   0.41685   0.00000  Uiso   1.00
H605   H     0.24680   0.63705   0.39768   0.00000  Uiso   1.00
H606   H     0.21849   0.58612   0.38418   0.00000  Uiso   1.00
C607   C     0.30688   0.87647   0.57457   0.00000  Uiso   1.00
C608   C     0.29348   0.87378   0.62861   0.00000  Uiso   1.00
C609   C     0.32804   0.84705   0.66178   0.00000  Uiso   1.00
H610   H     0.33127   0.81098   0.64783   0.00000  Uiso   1.00
H611   H     0.36093   0.86462   0.66202   0.00000  Uiso   1.00
H612   H     0.31784   0.84562   0.36757   0.00000  Uiso   1.00
H613   H     0.28992   0.90878   0.64502   0.00000  Uiso   1.00
H614   H     0.26112   0.85583   0.62840   0.00000  Uiso   1.00
H615   H     0.31475   0.84146   0.56260   0.00000  Uiso   1.00
H616   H     0.33837   0.89662   0.57365   0.00000  Uiso   1.00
C617   C     0.28318   0.61748   0.59033   0.00000  Uiso   1.00
C618   C     0.32796   0.64200   0.60091   0.00000  Uiso   1.00
C619   C     0.33758   0.65068   0.65704   0.00000  Uiso   1.00
H620   H     0.31068   0.67175   0.33868   0.00000  Uiso   1.00
H621   H     0.34027   0.61724   0.34438   0.00000  Uiso   1.00
H622   H     0.36953   0.66980   0.66344   0.00000  Uiso   1.00
H623   H     0.35497   0.62009   0.58738   0.00000  Uiso   1.00
H624   H     0.32791   0.67585   0.58170   0.00000  Uiso   1.00
H625   H     0.25474   0.63745   0.60267   0.00000  Uiso   1.00
H626   H     0.28314   0.58679   0.61572   0.00000  Uiso   1.00
C627   C     0.19331   0.87614   0.42522   0.00000  Uiso   1.00
C628   C     0.20695   0.87357   0.37125   0.00000  Uiso   1.00
C629   C     0.17250   0.84671   0.33785   0.00000  Uiso   1.00
H630   H     0.16913   0.81063   0.35174   0.00000  Uiso   1.00
H631   H     0.13964   0.86416   0.33739   0.00000  Uiso   1.00
H632   H     0.18291   0.84532   0.63215   0.00000  Uiso   1.00
H633   H     0.21061   0.90860   0.35493   0.00000  Uiso   1.00
H634   H     0.23933   0.85580   0.37162   0.00000  Uiso   1.00
H635   H     0.18536   0.84107   0.43708   0.00000  Uiso   1.00
H636   H     0.16181   0.89611   0.42597   0.00000  Uiso   1.00
F637   F     0.12022   0.82503   0.54608   0.00000  Uiso   1.00
F638   F     0.38749   0.66788   0.51908   0.00000  Uiso   1.00
F639   F     0.38625   0.83225   0.48254   0.00000  Uiso   1.00
F640   F     0.10933   0.67342   0.46957   0.00000  Uiso   1.00
F641   F     0.18247   0.53280   0.44610   0.00000  Uiso   1.00
F642   F     0.27884   0.96875   0.58582   0.00000  Uiso   1.00
F643   F     0.31761   0.53311   0.55378   0.00000  Uiso   1.00
F644   F     0.22121   0.96859   0.41421   0.00000  Uiso   1.00
C645   C     0.66412   0.74998   0.50111   0.00000  Uiso   1.00
C646   C     0.83608   0.75009   0.50012   0.00000  Uiso   1.00
C647   C     0.72582   0.60077   0.46333   0.00000  Uiso   1.00
C648   C     0.77208   0.89857   0.53852   0.00000  Uiso   1.00
C649   C     0.77439   0.60095   0.53657   0.00000  Uiso   1.00
C650   C     0.72796   0.89844   0.46146   0.00000  Uiso   1.00
C651   C     0.71867   0.55277   0.47044   0.00000  Uiso   1.00
C652   C     0.76700   0.94733   0.54173   0.00000  Uiso   1.00
C653   C     0.78137   0.55293   0.52956   0.00000  Uiso   1.00
C654   C     0.73301   0.94724   0.45830   0.00000  Uiso   1.00
C655   C     0.74986   0.75000   0.40635   0.00000  Uiso   1.00
C656   C     0.75019   0.75001   0.59365   0.00000  Uiso   1.00
C657   C     0.74999   0.52650   0.50003   0.00000  Uiso   1.00
C658   C     0.74999   0.97329   0.50003   0.00000  Uiso   1.00
C659   C     0.75001   0.75002   0.35517   0.00000  Uiso   1.00
C660   C     0.75010   0.75003   0.64484   0.00000  Uiso   1.00
C661   C     0.55052   0.78824   0.53107   0.00000  Uiso   1.00
C662   C     0.95382   0.71050   0.52082   0.00000  Uiso   1.00
C663   C     0.95367   0.79240   0.49975   0.00000  Uiso   1.00
C664   C     0.54540   0.71256   0.49111   0.00000  Uiso   1.00
C665   C     0.59614   0.78825   0.52736   0.00000  Uiso   1.00
C666   C     0.90806   0.70940   0.51450   0.00000  Uiso   1.00
C667   C     0.90764   0.79210   0.49543   0.00000  Uiso   1.00
C668   C     0.59089   0.71167   0.48883   0.00000  Uiso   1.00
C669   C     0.61650   0.75005   0.50554   0.00000  Uiso   1.00
C670   C     0.88441   0.75044   0.50280   0.00000  Uiso   1.00
C671   C     0.52499   0.75070   0.51222   0.00000  Uiso   1.00
C672   C     0.97684   0.75161   0.51241   0.00000  Uiso   1.00
H673   H     0.53519   0.81753   0.54848   0.00000  Uiso   1.00
H674   H     0.97131   0.67873   0.53112   0.00000  Uiso   1.00
H675   H     0.97111   0.82419   0.49179   0.00000  Uiso   1.00
H676   H     0.52613   0.68357   0.47544   0.00000  Uiso   1.00
N677   N     0.75000   0.62624   0.50000   0.00000  Uiso   1.00
N678   N     0.75000   0.87377   0.50000   0.00000  Uiso   1.00
O679   O     0.68453   0.78974   0.50000   0.00000  Uiso   1.00
O680   O     0.81547   0.71026   0.50000   0.00000  Uiso   1.00
O681   O     0.81547   0.78974   0.50000   0.00000  Uiso   1.00
O682   O     0.68453   0.71026   0.50000   0.00000  Uiso   1.00
O683   O     0.75000   0.78973   0.42845   0.00000  Uiso   1.00
O684   O     0.75000   0.71027   0.57155   0.00000  Uiso   1.00
O685   O     0.75000   0.78973   0.57155   0.00000  Uiso   1.00
O686   O     0.75000   0.71027   0.42845   0.00000  Uiso   1.00
Zn687  Zn    0.75000   0.80307   0.50000   0.00000  Uiso   1.00
Zn688  Zn    0.75000   0.69693   0.50000   0.00000  Uiso   1.00
C689   C     0.71808   0.61693   0.40937   0.00000  Uiso   1.00
C690   C     0.67352   0.64129   0.39781   0.00000  Uiso   1.00
C691   C     0.66467   0.64955   0.34152   0.00000  Uiso   1.00
H692   H     0.69192   0.67043   0.66016   0.00000  Uiso   1.00
H693   H     0.66202   0.61596   0.65443   0.00000  Uiso   1.00
H694   H     0.63291   0.66870   0.33445   0.00000  Uiso   1.00
H695   H     0.64625   0.61940   0.41102   0.00000  Uiso   1.00
H696   H     0.67353   0.67526   0.41685   0.00000  Uiso   1.00
H697   H     0.74680   0.63705   0.39768   0.00000  Uiso   1.00
H698   H     0.71849   0.58612   0.38418   0.00000  Uiso   1.00
C699   C     0.80688   0.87647   0.57457   0.00000  Uiso   1.00
C700   C     0.79348   0.87378   0.62861   0.00000  Uiso   1.00
C701   C     0.82804   0.84705   0.66178   0.00000  Uiso   1.00
H702   H     0.83127   0.81098   0.64783   0.00000  Uiso   1.00
H703   H     0.86093   0.86462   0.66202   0.00000  Uiso   1.00
H704   H     0.81784   0.84562   0.36757   0.00000  Uiso   1.00
H705   H     0.78992   0.90878   0.64502   0.00000  Uiso   1.00
H706   H     0.76112   0.85583   0.62840   0.00000  Uiso   1.00
H707   H     0.81475   0.84146   0.56260   0.00000  Uiso   1.00
H708   H     0.83837   0.89662   0.57365   0.00000  Uiso   1.00
C709   C     0.78318   0.61748   0.59033   0.00000  Uiso   1.00
C710   C     0.82796   0.64200   0.60091   0.00000  Uiso   1.00
C711   C     0.83758   0.65068   0.65704   0.00000  Uiso   1.00
H712   H     0.81068   0.67175   0.33868   0.00000  Uiso   1.00
H713   H     0.84027   0.61724   0.34438   0.00000  Uiso   1.00
H714   H     0.86953   0.66980   0.66344   0.00000  Uiso   1.00
H715   H     0.85497   0.62009   0.58738   0.00000  Uiso   1.00
H716   H     0.82791   0.67585   0.58170   0.00000  Uiso   1.00
H717   H     0.75474   0.63745   0.60267   0.00000  Uiso   1.00
H718   H     0.78314   0.58679   0.61572   0.00000  Uiso   1.00
C719   C     0.69331   0.87614   0.42522   0.00000  Uiso   1.00
C720   C     0.70695   0.87357   0.37125   0.00000  Uiso   1.00
C721   C     0.67250   0.84671   0.33785   0.00000  Uiso   1.00
H722   H     0.66913   0.81063   0.35174   0.00000  Uiso   1.00
H723   H     0.63964   0.86416   0.33739   0.00000  Uiso   1.00
H724   H     0.68291   0.84532   0.63215   0.00000  Uiso   1.00
H725   H     0.71061   0.90860   0.35493   0.00000  Uiso   1.00
H726   H     0.73933   0.85580   0.37162   0.00000  Uiso   1.00
H727   H     0.68536   0.84107   0.43708   0.00000  Uiso   1.00
H728   H     0.66181   0.89611   0.42597   0.00000  Uiso   1.00
F729   F     0.62022   0.82503   0.54608   0.00000  Uiso   1.00
F730   F     0.88749   0.66788   0.51908   0.00000  Uiso   1.00
F731   F     0.88625   0.83225   0.48254   0.00000  Uiso   1.00
F732   F     0.60933   0.67342   0.46957   0.00000  Uiso   1.00
F733   F     0.68247   0.53280   0.44610   0.00000  Uiso   1.00
F734   F     0.77884   0.96875   0.58582   0.00000  Uiso   1.00
F735   F     0.81761   0.53311   0.55378   0.00000  Uiso   1.00
F736   F     0.72121   0.96859   0.41421   0.00000  Uiso   1.00
C737   C     0.16412   0.24998   0.83445   0.00000  Uiso   1.00
C738   C     0.33608   0.25009   0.83345   0.00000  Uiso   1.00
C739   C     0.22582   0.10077   0.79666   0.00000  Uiso   1.00
C740   C     0.27208   0.39857   0.87186   0.00000  Uiso   1.00
C741   C     0.27439   0.10095   0.86990   0.00000  Uiso   1.00
C742   C     0.22796   0.39844   0.79479   0.00000  Uiso   1.00
C743   C     0.21867   0.05277   0.80377   0.00000  Uiso   1.00
C744   C     0.26700   0.44733   0.87506   0.00000  Uiso   1.00
C745   C     0.28137   0.05293   0.86289   0.00000  Uiso   1.00
C746   C     0.23301   0.44724   0.79163   0.00000  Uiso   1.00
C747   C     0.24986   0.25000   0.73969   0.00000  Uiso   1.00
C748   C     0.25019   0.25001   0.92698   0.00000  Uiso   1.00
C749   C     0.24999   0.02650   0.83336   0.00000  Uiso   1.00
C750   C     0.24999   0.47329   0.83336   0.00000  Uiso   1.00
C751   C     0.25001   0.25002   0.68850   0.00000  Uiso   1.00
C752   C     0.25010   0.25003   0.97817   0.00000  Uiso   1.00
C753   C     0.05052   0.28824   0.86441   0.00000  Uiso   1.00
C754   C     0.45382   0.21050   0.85415   0.00000  Uiso   1.00
C755   C     0.45367   0.29240   0.83308   0.00000  Uiso   1.00
C756   C     0.04540   0.21256   0.82444   0.00000  Uiso   1.00
C757   C     0.09614   0.28825   0.86069   0.00000  Uiso   1.00
C758   C     0.40806   0.20940   0.84783   0.00000  Uiso   1.00
C759   C     0.40764   0.29210   0.82876   0.00000  Uiso   1.00
C760   C     0.09089   0.21167   0.82216   0.00000  Uiso   1.00
C761   C     0.11650   0.25005   0.83888   0.00000  Uiso   1.00
C762   C     0.38441   0.25044   0.83613   0.00000  Uiso   1.00
C763   C     0.02499   0.25070   0.84556   0.00000  Uiso   1.00
C764   C     0.47684   0.25161   0.84574   0.00000  Uiso   1.00
H765   H     0.03519   0.31753   0.88182   0.00000  Uiso   1.00
H766   H     0.47131   0.17873   0.86445   0.00000  Uiso   1.00
H767   H     0.47111   0.32419   0.82512   0.00000  Uiso   1.00
H768   H     0.02613   0.18357   0.80877   0.00000  Uiso   1.00
N769   N     0.25000   0.12624   0.83333   0.00000  Uiso   1.00
N770   N     0.25000   0.37377   0.83333   0.00000  Uiso   1.00
O771   O     0.18453   0.28974   0.83334   0.00000  Uiso   1.00
O772   O     0.31547   0.21026   0.83333   0.00000  Uiso   1.00
O773   O     0.31547   0.28974   0.83333   0.00000  Uiso   1.00
O774   O     0.18453   0.21026   0.83334   0.00000  Uiso   1.00
O775   O     0.25000   0.28973   0.76178   0.00000  Uiso   1.00
O776   O     0.25000   0.21027   0.90489   0.00000  Uiso   1.00
O777   O     0.25000   0.28973   0.90489   0.00000  Uiso   1.00
O778   O     0.25000   0.21027   0.76178   0.00000  Uiso   1.00
Zn779  Zn    0.25000   0.30307   0.83333   0.00000  Uiso   1.00
Zn780  Zn    0.25000   0.19693   0.83333   0.00000  Uiso   1.00
C781   C     0.21808   0.11693   0.74270   0.00000  Uiso   1.00
C782   C     0.17352   0.14129   0.73114   0.00000  Uiso   1.00
C783   C     0.16467   0.14955   0.67486   0.00000  Uiso   1.00
H784   H     0.19192   0.17043   0.99349   0.00000  Uiso   1.00
H785   H     0.16202   0.11596   0.98777   0.00000  Uiso   1.00
H786   H     0.13291   0.16870   0.66778   0.00000  Uiso   1.00
H787   H     0.14625   0.11940   0.74436   0.00000  Uiso   1.00
H788   H     0.17353   0.17526   0.75018   0.00000  Uiso   1.00
H789   H     0.24680   0.13705   0.73101   0.00000  Uiso   1.00
H790   H     0.21849   0.08612   0.71751   0.00000  Uiso   1.00
C791   C     0.30688   0.37647   0.90790   0.00000  Uiso   1.00
C792   C     0.29348   0.37378   0.96195   0.00000  Uiso   1.00
C793   C     0.32804   0.34705   0.99512   0.00000  Uiso   1.00
H794   H     0.33127   0.31098   0.98116   0.00000  Uiso   1.00
H795   H     0.36093   0.36462   0.99535   0.00000  Uiso   1.00
H796   H     0.31784   0.34562   0.70090   0.00000  Uiso   1.00
H797   H     0.28992   0.40878   0.97835   0.00000  Uiso   1.00
H798   H     0.26112   0.35583   0.96173   0.00000  Uiso   1.00
H799   H     0.31475   0.34146   0.89593   0.00000  Uiso   1.00
H800   H     0.33837   0.39662   0.90698   0.00000  Uiso   1.00
C801   C     0.28318   0.11748   0.92366   0.00000  Uiso   1.00
C802   C     0.32796   0.14200   0.93425   0.00000  Uiso   1.00
C803   C     0.33758   0.15068   0.99037   0.00000  Uiso   1.00
H804   H     0.31068   0.17175   0.67202   0.00000  Uiso   1.00
H805   H     0.34027   0.11724   0.67772   0.00000  Uiso   1.00
H806   H     0.36953   0.16980   0.99678   0.00000  Uiso   1.00
H807   H     0.35497   0.12009   0.92072   0.00000  Uiso   1.00
H808   H     0.32791   0.17585   0.91504   0.00000  Uiso   1.00
H809   H     0.25474   0.13745   0.93600   0.00000  Uiso   1.00
H810   H     0.28314   0.08679   0.94905   0.00000  Uiso   1.00
C811   C     0.19331   0.37614   0.75855   0.00000  Uiso   1.00
C812   C     0.20695   0.37357   0.70459   0.00000  Uiso   1.00
C813   C     0.17250   0.34671   0.67118   0.00000  Uiso   1.00
H814   H     0.16913   0.31063   0.68507   0.00000  Uiso   1.00
H815   H     0.13964   0.36416   0.67072   0.00000  Uiso   1.00
H816   H     0.18291   0.34532   0.96549   0.00000  Uiso   1.00
H817   H     0.21061   0.40860   0.68826   0.00000  Uiso   1.00
H818   H     0.23933   0.35580   0.70495   0.00000  Uiso   1.00
H819   H     0.18536   0.34107   0.77041   0.00000  Uiso   1.00
H820   H     0.16181   0.39611   0.75930   0.00000  Uiso   1.00
F821   F     0.12022   0.32503   0.87941   0.00000  Uiso   1.00
F822   F     0.38749   0.16788   0.85241   0.00000  Uiso   1.00
F823   F     0.38625   0.33225   0.81587   0.00000  Uiso   1.00
F824   F     0.10933   0.17342   0.80290   0.00000  Uiso   1.00
F825   F     0.18247   0.03280   0.77943   0.00000  Uiso   1.00
F826   F     0.27884   0.46875   0.91915   0.00000  Uiso   1.00
F827   F     0.31761   0.03311   0.88711   0.00000  Uiso   1.00
F828   F     0.22121   0.46859   0.74754   0.00000  Uiso   1.00
C829   C     0.66412   0.24998   0.83445   0.00000  Uiso   1.00
C830   C     0.83608   0.25009   0.83345   0.00000  Uiso   1.00
C831   C     0.72582   0.10077   0.79666   0.00000  Uiso   1.00
C832   C     0.77208   0.39857   0.87186   0.00000  Uiso   1.00
C833   C     0.77439   0.10095   0.86990   0.00000  Uiso   1.00
C834   C     0.72796   0.39844   0.79479   0.00000  Uiso   1.00
C835   C     0.71867   0.05277   0.80377   0.00000  Uiso   1.00
C836   C     0.76700   0.44733   0.87506   0.00000  Uiso   1.00
C837   C     0.78137   0.05293   0.86289   0.00000  Uiso   1.00
C838   C     0.73301   0.44724   0.79163   0.00000  Uiso   1.00
C839   C     0.74986   0.25000   0.73969   0.00000  Uiso   1.00
C840   C     0.75019   0.25001   0.92698   0.00000  Uiso   1.00
C841   C     0.74999   0.02650   0.83336   0.00000  Uiso   1.00
C842   C     0.74999   0.47329   0.83336   0.00000  Uiso   1.00
C843   C     0.75001   0.25002   0.68850   0.00000  Uiso   1.00
C844   C     0.75010   0.25003   0.97817   0.00000  Uiso   1.00
C845   C     0.55052   0.28824   0.86441   0.00000  Uiso   1.00
C846   C     0.95382   0.21050   0.85415   0.00000  Uiso   1.00
C847   C     0.95367   0.29240   0.83308   0.00000  Uiso   1.00
C848   C     0.54540   0.21256   0.82444   0.00000  Uiso   1.00
C849   C     0.59614   0.28825   0.86069   0.00000  Uiso   1.00
C850   C     0.90806   0.20940   0.84783   0.00000  Uiso   1.00
C851   C     0.90764   0.29210   0.82876   0.00000  Uiso   1.00
C852   C     0.59089   0.21167   0.82216   0.00000  Uiso   1.00
C853   C     0.61650   0.25005   0.83888   0.00000  Uiso   1.00
C854   C     0.88441   0.25044   0.83613   0.00000  Uiso   1.00
C855   C     0.52499   0.25070   0.84556   0.00000  Uiso   1.00
C856   C     0.97684   0.25161   0.84574   0.00000  Uiso   1.00
H857   H     0.53519   0.31753   0.88182   0.00000  Uiso   1.00
H858   H     0.97131   0.17873   0.86445   0.00000  Uiso   1.00
H859   H     0.97111   0.32419   0.82512   0.00000  Uiso   1.00
H860   H     0.52613   0.18357   0.80877   0.00000  Uiso   1.00
N861   N     0.75000   0.12624   0.83333   0.00000  Uiso   1.00
N862   N     0.75000   0.37377   0.83333   0.00000  Uiso   1.00
O863   O     0.68453   0.28974   0.83334   0.00000  Uiso   1.00
O864   O     0.81547   0.21026   0.83333   0.00000  Uiso   1.00
O865   O     0.81547   0.28974   0.83333   0.00000  Uiso   1.00
O866   O     0.68453   0.21026   0.83334   0.00000  Uiso   1.00
O867   O     0.75000   0.28973   0.76178   0.00000  Uiso   1.00
O868   O     0.75000   0.21027   0.90489   0.00000  Uiso   1.00
O869   O     0.75000   0.28973   0.90489   0.00000  Uiso   1.00
O870   O     0.75000   0.21027   0.76178   0.00000  Uiso   1.00
Zn871  Zn    0.75000   0.30307   0.83333   0.00000  Uiso   1.00
Zn872  Zn    0.75000   0.19693   0.83333   0.00000  Uiso   1.00
C873   C     0.71808   0.11693   0.74270   0.00000  Uiso   1.00
C874   C     0.67352   0.14129   0.73114   0.00000  Uiso   1.00
C875   C     0.66467   0.14955   0.67486   0.00000  Uiso   1.00
H876   H     0.69192   0.17043   0.99349   0.00000  Uiso   1.00
H877   H     0.66202   0.11596   0.98777   0.00000  Uiso   1.00
H878   H     0.63291   0.16870   0.66778   0.00000  Uiso   1.00
H879   H     0.64625   0.11940   0.74436   0.00000  Uiso   1.00
H880   H     0.67353   0.17526   0.75018   0.00000  Uiso   1.00
H881   H     0.74680   0.13705   0.73101   0.00000  Uiso   1.00
H882   H     0.71849   0.08612   0.71751   0.00000  Uiso   1.00
C883   C     0.80688   0.37647   0.90790   0.00000  Uiso   1.00
C884   C     0.79348   0.37378   0.96195   0.00000  Uiso   1.00
C885   C     0.82804   0.34705   0.99512   0.00000  Uiso   1.00
H886   H     0.83127   0.31098   0.98116   0.00000  Uiso   1.00
H887   H     0.86093   0.36462   0.99535   0.00000  Uiso   1.00
H888   H     0.81784   0.34562   0.70090   0.00000  Uiso   1.00
H889   H     0.78992   0.40878   0.97835   0.00000  Uiso   1.00
H890   H     0.76112   0.35583   0.96173   0.00000  Uiso   1.00
H891   H     0.81475   0.34146   0.89593   0.00000  Uiso   1.00
H892   H     0.83837   0.39662   0.90698   0.00000  Uiso   1.00
C893   C     0.78318   0.11748   0.92366   0.00000  Uiso   1.00
C894   C     0.82796   0.14200   0.93425   0.00000  Uiso   1.00
C895   C     0.83758   0.15068   0.99037   0.00000  Uiso   1.00
H896   H     0.81068   0.17175   0.67202   0.00000  Uiso   1.00
H897   H     0.84027   0.11724   0.67772   0.00000  Uiso   1.00
H898   H     0.86953   0.16980   0.99678   0.00000  Uiso   1.00
H899   H     0.85497   0.12009   0.92072   0.00000  Uiso   1.00
H900   H     0.82791   0.17585   0.91504   0.00000  Uiso   1.00
H901   H     0.75474   0.13745   0.93600   0.00000  Uiso   1.00
H902   H     0.78314   0.08679   0.94905   0.00000  Uiso   1.00
C903   C     0.69331   0.37614   0.75855   0.00000  Uiso   1.00
C904   C     0.70695   0.37357   0.70459   0.00000  Uiso   1.00
C905   C     0.67250   0.34671   0.67118   0.00000  Uiso   1.00
H906   H     0.66913   0.31063   0.68507   0.00000  Uiso   1.00
H907   H     0.63964   0.36416   0.67072   0.00000  Uiso   1.00
H908   H     0.68291   0.34532   0.96549   0.00000  Uiso   1.00
H909   H     0.71061   0.40860   0.68826   0.00000  Uiso   1.00
H910   H     0.73933   0.35580   0.70495   0.00000  Uiso   1.00
H911   H     0.68536   0.34107   0.77041   0.00000  Uiso   1.00
H912   H     0.66181   0.39611   0.75930   0.00000  Uiso   1.00
F913   F     0.62022   0.32503   0.87941   0.00000  Uiso   1.00
F914   F     0.88749   0.16788   0.85241   0.00000  Uiso   1.00
F915   F     0.88625   0.33225   0.81587   0.00000  Uiso   1.00
F916   F     0.60933   0.17342   0.80290   0.00000  Uiso   1.00
F917   F     0.68247   0.03280   0.77943   0.00000  Uiso   1.00
F918   F     0.77884   0.46875   0.91915   0.00000  Uiso   1.00
F919   F     0.81761   0.03311   0.88711   0.00000  Uiso   1.00
F920   F     0.72121   0.46859   0.74754   0.00000  Uiso   1.00
C921   C     0.16412   0.74998   0.83445   0.00000  Uiso   1.00
C922   C     0.33608   0.75009   0.83345   0.00000  Uiso   1.00
C923   C     0.22582   0.60077   0.79666   0.00000  Uiso   1.00
C924   C     0.27208   0.89857   0.87186   0.00000  Uiso   1.00
C925   C     0.27439   0.60095   0.86990   0.00000  Uiso   1.00
C926   C     0.22796   0.89844   0.79479   0.00000  Uiso   1.00
C927   C     0.21867   0.55277   0.80377   0.00000  Uiso   1.00
C928   C     0.26700   0.94733   0.87506   0.00000  Uiso   1.00
C929   C     0.28137   0.55293   0.86289   0.00000  Uiso   1.00
C930   C     0.23301   0.94724   0.79163   0.00000  Uiso   1.00
C931   C     0.24986   0.75000   0.73969   0.00000  Uiso   1.00
C932   C     0.25019   0.75001   0.92698   0.00000  Uiso   1.00
C933   C     0.24999   0.52650   0.83336   0.00000  Uiso   1.00
C934   C     0.24999   0.97329   0.83336   0.00000  Uiso   1.00
C935   C     0.25001   0.75002   0.68850   0.00000  Uiso   1.00
C936   C     0.25010   0.75003   0.97817   0.00000  Uiso   1.00
C937   C     0.05052   0.78824   0.86441   0.00000  Uiso   1.00
C938   C     0.45382   0.71050   0.85415   0.00000  Uiso   1.00
C939   C     0.45367   0.79240   0.83308   0.00000  Uiso   1.00
C940   C     0.04540   0.71256   0.82444   0.00000  Uiso   1.00
C941   C     0.09614   0.78825   0.86069   0.00000  Uiso   1.00
C942   C     0.40806   0.70940   0.84783   0.00000  Uiso   1.00
C943   C     0.40764   0.79210   0.82876   0.00000  Uiso   1.00
C944   C     0.09089   0.71167   0.82216   0.00000  Uiso   1.00
C945   C     0.11650   0.75005   0.83888   0.00000  Uiso   1.00
C946   C     0.38441   0.75044   0.83613   0.00000  Uiso   1.00
C947   C     0.02499   0.75070   0.84556   0.00000  Uiso   1.00
C948   C     0.47684   0.75161   0.84574   0.00000  Uiso   1.00
H949   H     0.03519   0.81753   0.88182   0.00000  Uiso   1.00
H950   H     0.47131   0.67873   0.86445   0.00000  Uiso   1.00
H951   H     0.47111   0.82419   0.82512   0.00000  Uiso   1.00
H952   H     0.02613   0.68357   0.80877   0.00000  Uiso   1.00
N953   N     0.25000   0.62624   0.83333   0.00000  Uiso   1.00
N954   N     0.25000   0.87377   0.83333   0.00000  Uiso   1.00
O955   O     0.18453   0.78974   0.83334   0.00000  Uiso   1.00
O956   O     0.31547   0.71026   0.83333   0.00000  Uiso   1.00
O957   O     0.31547   0.78974   0.83333   0.00000  Uiso   1.00
O958   O     0.18453   0.71026   0.83334   0.00000  Uiso   1.00
O959   O     0.25000   0.78973   0.76178   0.00000  Uiso   1.00
O960   O     0.25000   0.71027   0.90489   0.00000  Uiso   1.00
O961   O     0.25000   0.78973   0.90489   0.00000  Uiso   1.00
O962   O     0.25000   0.71027   0.76178   0.00000  Uiso   1.00
Zn963  Zn    0.25000   0.80307   0.83333   0.00000  Uiso   1.00
Zn964  Zn    0.25000   0.69693   0.83333   0.00000  Uiso   1.00
C965   C     0.21808   0.61693   0.74270   0.00000  Uiso   1.00
C966   C     0.17352   0.64129   0.73114   0.00000  Uiso   1.00
C967   C     0.16467   0.64955   0.67486   0.00000  Uiso   1.00
H968   H     0.19192   0.67043   0.99349   0.00000  Uiso   1.00
H969   H     0.16202   0.61596   0.98777   0.00000  Uiso   1.00
H970   H     0.13291   0.66870   0.66778   0.00000  Uiso   1.00
H971   H     0.14625   0.61940   0.74436   0.00000  Uiso   1.00
H972   H     0.17353   0.67526   0.75018   0.00000  Uiso   1.00
H973   H     0.24680   0.63705   0.73101   0.00000  Uiso   1.00
H974   H     0.21849   0.58612   0.71751   0.00000  Uiso   1.00
C975   C     0.30688   0.87647   0.90790   0.00000  Uiso   1.00
C976   C     0.29348   0.87378   0.96195   0.00000  Uiso   1.00
C977   C     0.32804   0.84705   0.99512   0.00000  Uiso   1.00
H978   H     0.33127   0.81098   0.98116   0.00000  Uiso   1.00
H979   H     0.36093   0.86462   0.99535   0.00000  Uiso   1.00
H980   H     0.31784   0.84562   0.70090   0.00000  Uiso   1.00
H981   H     0.28992   0.90878   0.97835   0.00000  Uiso   1.00
H982   H     0.26112   0.85583   0.96173   0.00000  Uiso   1.00
H983   H     0.31475   0.84146   0.89593   0.00000  Uiso   1.00
H984   H     0.33837   0.89662   0.90698   0.00000  Uiso   1.00
C985   C     0.28318   0.61748   0.92366   0.00000  Uiso   1.00
C986   C     0.32796   0.64200   0.93425   0.00000  Uiso   1.00
C987   C     0.33758   0.65068   0.99037   0.00000  Uiso   1.00
H988   H     0.31068   0.67175   0.67202   0.00000  Uiso   1.00
H989   H     0.34027   0.61724   0.67772   0.00000  Uiso   1.00
H990   H     0.36953   0.66980   0.99678   0.00000  Uiso   1.00
H991   H     0.35497   0.62009   0.92072   0.00000  Uiso   1.00
H992   H     0.32791   0.67585   0.91504   0.00000  Uiso   1.00
H993   H     0.25474   0.63745   0.93600   0.00000  Uiso   1.00
H994   H     0.28314   0.58679   0.94905   0.00000  Uiso   1.00
C995   C     0.19331   0.87614   0.75855   0.00000  Uiso   1.00
C996   C     0.20695   0.87357   0.70459   0.00000  Uiso   1.00
C997   C     0.17250   0.84671   0.67118   0.00000  Uiso   1.00
H998   H     0.16913   0.81063   0.68507   0.00000  Uiso   1.00
H999   H     0.13964   0.86416   0.67072   0.00000  Uiso   1.00
H1000  H     0.18291   0.84532   0.96549   0.00000  Uiso   1.00
H1001  H     0.21061   0.90860   0.68826   0.00000  Uiso   1.00
H1002  H     0.23933   0.85580   0.70495   0.00000  Uiso   1.00
H1003  H     0.18536   0.84107   0.77041   0.00000  Uiso   1.00
H1004  H     0.16181   0.89611   0.75930   0.00000  Uiso   1.00
F1005  F     0.12022   0.82503   0.87941   0.00000  Uiso   1.00
F1006  F     0.38749   0.66788   0.85241   0.00000  Uiso   1.00
F1007  F     0.38625   0.83225   0.81587   0.00000  Uiso   1.00
F1008  F     0.10933   0.67342   0.80290   0.00000  Uiso   1.00
F1009  F     0.18247   0.53280   0.77943   0.00000  Uiso   1.00
F1010  F     0.27884   0.96875   0.91915   0.00000  Uiso   1.00
F1011  F     0.31761   0.53311   0.88711   0.00000  Uiso   1.00
F1012  F     0.22121   0.96859   0.74754   0.00000  Uiso   1.00
C1013  C     0.66412   0.74998   0.83445   0.00000  Uiso   1.00
C1014  C     0.83608   0.75009   0.83345   0.00000  Uiso   1.00
C1015  C     0.72582   0.60077   0.79666   0.00000  Uiso   1.00
C1016  C     0.77208   0.89857   0.87186   0.00000  Uiso   1.00
C1017  C     0.77439   0.60095   0.86990   0.00000  Uiso   1.00
C1018  C     0.72796   0.89844   0.79479   0.00000  Uiso   1.00
C1019  C     0.71867   0.55277   0.80377   0.00000  Uiso   1.00
C1020  C     0.76700   0.94733   0.87506   0.00000  Uiso   1.00
C1021  C     0.78137   0.55293   0.86289   0.00000  Uiso   1.00
C1022  C     0.73301   0.94724   0.79163   0.00000  Uiso   1.00
C1023  C     0.74986   0.75000   0.73969   0.00000  Uiso   1.00
C1024  C     0.75019   0.75001   0.92698   0.00000  Uiso   1.00
C1025  C     0.74999   0.52650   0.83336   0.00000  Uiso   1.00
C1026  C     0.74999   0.97329   0.83336   0.00000  Uiso   1.00
C1027  C     0.75001   0.75002   0.68850   0.00000  Uiso   1.00
C1028  C     0.75010   0.75003   0.97817   0.00000  Uiso   1.00
C1029  C     0.55052   0.78824   0.86441   0.00000  Uiso   1.00
C1030  C     0.95382   0.71050   0.85415   0.00000  Uiso   1.00
C1031  C     0.95367   0.79240   0.83308   0.00000  Uiso   1.00
C1032  C     0.54540   0.71256   0.82444   0.00000  Uiso   1.00
C1033  C     0.59614   0.78825   0.86069   0.00000  Uiso   1.00
C1034  C     0.90806   0.70940   0.84783   0.00000  Uiso   1.00
C1035  C     0.90764   0.79210   0.82876   0.00000  Uiso   1.00
C1036  C     0.59089   0.71167   0.82216   0.00000  Uiso   1.00
C1037  C     0.61650   0.75005   0.83888   0.00000  Uiso   1.00
C1038  C     0.88441   0.75044   0.83613   0.00000  Uiso   1.00
C1039  C     0.52499   0.75070   0.84556   0.00000  Uiso   1.00
C1040  C     0.97684   0.75161   0.84574   0.00000  Uiso   1.00
H1041  H     0.53519   0.81753   0.88182   0.00000  Uiso   1.00
H1042  H     0.97131   0.67873   0.86445   0.00000  Uiso   1.00
H1043  H     0.97111   0.82419   0.82512   0.00000  Uiso   1.00
H1044  H     0.52613   0.68357   0.80877   0.00000  Uiso   1.00
N1045  N     0.75000   0.62624   0.83333   0.00000  Uiso   1.00
N1046  N     0.75000   0.87377   0.83333   0.00000  Uiso   1.00
O1047  O     0.68453   0.78974   0.83334   0.00000  Uiso   1.00
O1048  O     0.81547   0.71026   0.83333   0.00000  Uiso   1.00
O1049  O     0.81547   0.78974   0.83333   0.00000  Uiso   1.00
O1050  O     0.68453   0.71026   0.83334   0.00000  Uiso   1.00
O1051  O     0.75000   0.78973   0.76178   0.00000  Uiso   1.00
O1052  O     0.75000   0.71027   0.90489   0.00000  Uiso   1.00
O1053  O     0.75000   0.78973   0.90489   0.00000  Uiso   1.00
O1054  O     0.75000   0.71027   0.76178   0.00000  Uiso   1.00
Zn1055 Zn    0.75000   0.80307   0.83333   0.00000  Uiso   1.00
Zn1056 Zn    0.75000   0.69693   0.83333   0.00000  Uiso   1.00
C1057  C     0.71808   0.61693   0.74270   0.00000  Uiso   1.00
C1058  C     0.67352   0.64129   0.73114   0.00000  Uiso   1.00
C1059  C     0.66467   0.64955   0.67486   0.00000  Uiso   1.00
H1060  H     0.69192   0.67043   0.99349   0.00000  Uiso   1.00
H1061  H     0.66202   0.61596   0.98777   0.00000  Uiso   1.00
H1062  H     0.63291   0.66870   0.66778   0.00000  Uiso   1.00
H1063  H     0.64625   0.61940   0.74436   0.00000  Uiso   1.00
H1064  H     0.67353   0.67526   0.75018   0.00000  Uiso   1.00
H1065  H     0.74680   0.63705   0.73101   0.00000  Uiso   1.00
H1066  H     0.71849   0.58612   0.71751   0.00000  Uiso   1.00
C1067  C     0.80688   0.87647   0.90790   0.00000  Uiso   1.00
C1068  C     0.79348   0.87378   0.96195   0.00000  Uiso   1.00
C1069  C     0.82804   0.84705   0.99512   0.00000  Uiso   1.00
H1070  H     0.83127   0.81098   0.98116   0.00000  Uiso   1.00
H1071  H     0.86093   0.86462   0.99535   0.00000  Uiso   1.00
H1072  H     0.81784   0.84562   0.70090   0.00000  Uiso   1.00
H1073  H     0.78992   0.90878   0.97835   0.00000  Uiso   1.00
H1074  H     0.76112   0.85583   0.96173   0.00000  Uiso   1.00
H1075  H     0.81475   0.84146   0.89593   0.00000  Uiso   1.00
H1076  H     0.83837   0.89662   0.90698   0.00000  Uiso   1.00
C1077  C     0.78318   0.61748   0.92366   0.00000  Uiso   1.00
C1078  C     0.82796   0.64200   0.93425   0.00000  Uiso   1.00
C1079  C     0.83758   0.65068   0.99037   0.00000  Uiso   1.00
H1080  H     0.81068   0.67175   0.67202   0.00000  Uiso   1.00
H1081  H     0.84027   0.61724   0.67772   0.00000  Uiso   1.00
H1082  H     0.86953   0.66980   0.99678   0.00000  Uiso   1.00
H1083  H     0.85497   0.62009   0.92072   0.00000  Uiso   1.00
H1084  H     0.82791   0.67585   0.91504   0.00000  Uiso   1.00
H1085  H     0.75474   0.63745   0.93600   0.00000  Uiso   1.00
H1086  H     0.78314   0.58679   0.94905   0.00000  Uiso   1.00
C1087  C     0.69331   0.87614   0.75855   0.00000  Uiso   1.00
C1088  C     0.70695   0.87357   0.70459   0.00000  Uiso   1.00
C1089  C     0.67250   0.84671   0.67118   0.00000  Uiso   1.00
H1090  H     0.66913   0.81063   0.68507   0.00000  Uiso   1.00
H1091  H     0.63964   0.86416   0.67072   0.00000  Uiso   1.00
H1092  H     0.68291   0.84532   0.96549   0.00000  Uiso   1.00
H1093  H     0.71061   0.90860   0.68826   0.00000  Uiso   1.00
H1094  H     0.73933   0.85580   0.70495   0.00000  Uiso   1.00
H1095  H     0.68536   0.84107   0.77041   0.00000  Uiso   1.00
H1096  H     0.66181   0.89611   0.75930   0.00000  Uiso   1.00
F1097  F     0.62022   0.82503   0.87941   0.00000  Uiso   1.00
F1098  F     0.88749   0.66788   0.85241   0.00000  Uiso   1.00
F1099  F     0.88625   0.83225   0.81587   0.00000  Uiso   1.00
F1100  F     0.60933   0.67342   0.80290   0.00000  Uiso   1.00
F1101  F     0.68247   0.53280   0.77943   0.00000  Uiso   1.00
F1102  F     0.77884   0.96875   0.91915   0.00000  Uiso   1.00
F1103  F     0.81761   0.53311   0.88711   0.00000  Uiso   1.00
F1104  F     0.72121   0.96859   0.74754   0.00000  Uiso   1.00
loop_
_geom_bond_atom_site_label_1
_geom_bond_atom_site_label_2
_geom_bond_distance
_geom_bond_site_symmetry_2
_ccdc_geom_bond_type
C1     C25     1.447   .     S
C1     O38     1.302   .     A
C1     O35     1.300   .     A
C2     C26     1.452   .     S
C2     O36     1.303   .     A
C2     O37     1.301   .     A
C3     C7      1.414   .     A
C3     N33     1.388   .     A
C3     C45     1.517   .     S
C4     C8      1.417   .     A
C4     N34     1.383   .     A
C4     C55     1.515   .     S
C5     C65     1.518   .     S
C5     N33     1.389   .     A
C5     C9      1.414   .     A
C6     C75     1.515   .     S
C6     N34     1.384   .     A
C6     C10     1.417   .     A
C7     F89     1.357   .     S
C7     C13     1.410   .     A
C8     F90     1.355   .     S
C8     C14     1.409   .     A
C9     F91     1.357   .     S
C9     C13     1.410   .     A
C10    F92     1.355   .     S
C10    C14     1.409   .     A
C11    O42     1.288   .     A
C11    C15     1.367   .     S
C11    O39     1.288   .     A
C12    O40     1.288   .     A
C12    C16     1.367   .     S
C12    O41     1.288   .     A
C13    C198    1.533   1_545 S
C14    C197    1.533   .     S
C15    C752    1.166   1_554 S
C16    C383    1.166   .     S
C17    H29     1.083   .     S
C17    C27     1.399   .     A
C17    C21     1.384   .     A
C18    H30     1.083   .     S
C18    C28     1.397   .     A
C18    C22     1.377   .     A
C19    H31     1.083   .     S
C19    C23     1.383   .     A
C19    C28     1.398   .     A
C20    C24     1.376   .     A
C20    H32     1.083   .     S
C20    C27     1.398   .     A
C21    F85     1.358   .     S
C21    C25     1.407   .     A
C22    F86     1.355   .     S
C22    C26     1.406   .     A
C23    C26     1.408   .     A
C23    F87     1.358   .     S
C24    C25     1.402   .     A
C24    F88     1.353   .     S
C27    C120    1.451   1_455 S
C28    C119    1.451   .     S
N33    Zn44    2.037   .     S
N34    Zn43    2.037   .     S
O35    Zn43    2.008   .     S
O36    Zn44    2.008   .     S
O37    Zn43    2.010   .     S
O38    Zn44    2.010   .     S
O39    Zn43    1.949   .     S
O40    Zn44    1.949   .     S
O41    Zn43    1.949   .     S
O42    Zn44    1.949   .     S
C45    C46     1.528   .     S
C45    H54     1.114   .     S
C45    H53     1.103   .     S
C46    H52     1.103   .     S
C46    H51     1.111   .     S
C46    C47     1.527   .     S
C47    H50     1.110   .     S
C47    H784    1.110   1_554 S
C47    H785    1.111   1_554 S
H48    C415    1.110   .     S
H49    C415    1.111   .     S
C55    C56     1.527   .     S
C55    H63     1.090   .     S
C55    H64     1.112   .     S
C56    C57     1.529   .     S
C56    H62     1.102   .     S
C56    H61     1.108   .     S
C57    H59     1.111   .     S
C57    H58     1.111   .     S
C57    H428    1.110   .     S
H60    C793    1.110   1_554 S
C65    H73     1.102   .     S
C65    H74     1.114   .     S
C65    C66     1.530   .     S
C66    H72     1.102   .     S
C66    H71     1.111   .     S
C66    C67     1.527   .     S
C67    H70     1.110   .     S
C67    H436    1.110   .     S
C67    H437    1.111   .     S
H68    C803    1.110   1_554 S
H69    C803    1.111   1_554 S
C75    H84     1.112   .     S
C75    C76     1.527   .     S
C75    H83     1.090   .     S
C76    H82     1.102   .     S
C76    C77     1.529   .     S
C76    H81     1.108   .     S
C77    H78     1.111   .     S
C77    H79     1.111   .     S
C77    H816    1.110   1_554 S
H80    C445    1.110   .     S
C93    C117    1.447   .     S
C93    O130    1.302   .     A
C93    O127    1.300   .     A
C94    C118    1.452   .     S
C94    O128    1.303   .     A
C94    O129    1.301   .     A
C95    C99     1.414   .     A
C95    N125    1.388   .     A
C95    C137    1.517   .     S
C96    C100    1.417   .     A
C96    N126    1.383   .     A
C96    C147    1.515   .     S
C97    C157    1.518   .     S
C97    N125    1.389   .     A
C97    C101    1.414   .     A
C98    C167    1.515   .     S
C98    N126    1.384   .     A
C98    C102    1.417   .     A
C99    F181    1.357   .     S
C99    C105    1.410   .     A
C100   F182    1.355   .     S
C100   C106    1.409   .     A
C101   F183    1.357   .     S
C101   C105    1.410   .     A
C102   F184    1.355   .     S
C102   C106    1.409   .     A
C103   O134    1.288   .     A
C103   C107    1.367   .     S
C103   O131    1.288   .     A
C104   O132    1.288   .     A
C104   C108    1.367   .     S
C104   O133    1.288   .     A
C105   C290    1.533   1_545 S
C106   C289    1.533   .     S
C107   C844    1.166   1_554 S
C108   C475    1.166   .     S
C109   H121    1.083   .     S
C109   C119    1.399   .     A
C109   C113    1.384   .     A
C110   H122    1.083   .     S
C110   C120    1.397   .     A
C110   C114    1.377   .     A
C111   H123    1.083   .     S
C111   C115    1.383   .     A
C111   C120    1.398   .     A
C112   C116    1.376   .     A
C112   H124    1.083   .     S
C112   C119    1.398   .     A
C113   F177    1.358   .     S
C113   C117    1.407   .     A
C114   F178    1.355   .     S
C114   C118    1.406   .     A
C115   C118    1.408   .     A
C115   F179    1.358   .     S
C116   C117    1.402   .     A
C116   F180    1.353   .     S
C120   C27     1.451   1_655 S
N125   Zn136   2.037   .     S
N126   Zn135   2.037   .     S
O127   Zn135   2.008   .     S
O128   Zn136   2.008   .     S
O129   Zn135   2.010   .     S
O130   Zn136   2.010   .     S
O131   Zn135   1.949   .     S
O132   Zn136   1.949   .     S
O133   Zn135   1.949   .     S
O134   Zn136   1.949   .     S
C137   C138    1.528   .     S
C137   H146    1.114   .     S
C137   H145    1.103   .     S
C138   H144    1.103   .     S
C138   H143    1.111   .     S
C138   C139    1.527   .     S
C139   H142    1.110   .     S
C139   H876    1.110   1_554 S
C139   H877    1.111   1_554 S
H140   C507    1.110   .     S
H141   C507    1.111   .     S
C147   C148    1.527   .     S
C147   H155    1.090   .     S
C147   H156    1.112   .     S
C148   C149    1.529   .     S
C148   H154    1.102   .     S
C148   H153    1.108   .     S
C149   H151    1.111   .     S
C149   H150    1.111   .     S
C149   H520    1.110   .     S
H152   C885    1.110   1_554 S
C157   H165    1.102   .     S
C157   H166    1.114   .     S
C157   C158    1.530   .     S
C158   H164    1.102   .     S
C158   H163    1.111   .     S
C158   C159    1.527   .     S
C159   H162    1.110   .     S
C159   H528    1.110   .     S
C159   H529    1.111   .     S
H160   C895    1.110   1_554 S
H161   C895    1.111   1_554 S
C167   H176    1.112   .     S
C167   C168    1.527   .     S
C167   H175    1.090   .     S
C168   H174    1.102   .     S
C168   C169    1.529   .     S
C168   H173    1.108   .     S
C169   H170    1.111   .     S
C169   H171    1.111   .     S
C169   H908    1.110   1_554 S
H172   C537    1.110   .     S
C185   C209    1.447   .     S
C185   O222    1.302   .     A
C185   O219    1.300   .     A
C186   C210    1.452   .     S
C186   O220    1.303   .     A
C186   O221    1.301   .     A
C187   C191    1.414   .     A
C187   N217    1.388   .     A
C187   C229    1.517   .     S
C188   C192    1.417   .     A
C188   N218    1.383   .     A
C188   C239    1.515   .     S
C189   C249    1.518   .     S
C189   N217    1.389   .     A
C189   C193    1.414   .     A
C190   C259    1.515   .     S
C190   N218    1.384   .     A
C190   C194    1.417   .     A
C191   F273    1.357   .     S
C191   C197    1.410   .     A
C192   F274    1.355   .     S
C192   C198    1.409   .     A
C193   F275    1.357   .     S
C193   C197    1.410   .     A
C194   F276    1.355   .     S
C194   C198    1.409   .     A
C195   O226    1.288   .     A
C195   C199    1.367   .     S
C195   O223    1.288   .     A
C196   O224    1.288   .     A
C196   C200    1.367   .     S
C196   O225    1.288   .     A
C198   C13     1.533   1_565 S
C199   C936    1.166   1_554 S
C200   C567    1.166   .     S
C201   H213    1.083   .     S
C201   C211    1.399   .     A
C201   C205    1.384   .     A
C202   H214    1.083   .     S
C202   C212    1.397   .     A
C202   C206    1.377   .     A
C203   H215    1.083   .     S
C203   C207    1.383   .     A
C203   C212    1.398   .     A
C204   C208    1.376   .     A
C204   H216    1.083   .     S
C204   C211    1.398   .     A
C205   F269    1.358   .     S
C205   C209    1.407   .     A
C206   F270    1.355   .     S
C206   C210    1.406   .     A
C207   C210    1.408   .     A
C207   F271    1.358   .     S
C208   C209    1.402   .     A
C208   F272    1.353   .     S
C211   C304    1.451   1_455 S
C212   C303    1.451   .     S
N217   Zn228   2.037   .     S
N218   Zn227   2.037   .     S
O219   Zn227   2.008   .     S
O220   Zn228   2.008   .     S
O221   Zn227   2.010   .     S
O222   Zn228   2.010   .     S
O223   Zn227   1.949   .     S
O224   Zn228   1.949   .     S
O225   Zn227   1.949   .     S
O226   Zn228   1.949   .     S
C229   C230    1.528   .     S
C229   H238    1.114   .     S
C229   H237    1.103   .     S
C230   H236    1.103   .     S
C230   H235    1.111   .     S
C230   C231    1.527   .     S
C231   H234    1.110   .     S
C231   H968    1.110   1_554 S
C231   H969    1.111   1_554 S
H232   C599    1.110   .     S
H233   C599    1.111   .     S
C239   C240    1.527   .     S
C239   H247    1.090   .     S
C239   H248    1.112   .     S
C240   C241    1.529   .     S
C240   H246    1.102   .     S
C240   H245    1.108   .     S
C241   H243    1.111   .     S
C241   H242    1.111   .     S
C241   H612    1.110   .     S
H244   C977    1.110   1_554 S
C249   H257    1.102   .     S
C249   H258    1.114   .     S
C249   C250    1.530   .     S
C250   H256    1.102   .     S
C250   H255    1.111   .     S
C250   C251    1.527   .     S
C251   H254    1.110   .     S
C251   H620    1.110   .     S
C251   H621    1.111   .     S
H252   C987    1.110   1_554 S
H253   C987    1.111   1_554 S
C259   H268    1.112   .     S
C259   C260    1.527   .     S
C259   H267    1.090   .     S
C260   H266    1.102   .     S
C260   C261    1.529   .     S
C260   H265    1.108   .     S
C261   H262    1.111   .     S
C261   H263    1.111   .     S
C261   H1000   1.110   1_554 S
H264   C629    1.110   .     S
C277   C301    1.447   .     S
C277   O314    1.302   .     A
C277   O311    1.300   .     A
C278   C302    1.452   .     S
C278   O312    1.303   .     A
C278   O313    1.301   .     A
C279   C283    1.414   .     A
C279   N309    1.388   .     A
C279   C321    1.517   .     S
C280   C284    1.417   .     A
C280   N310    1.383   .     A
C280   C331    1.515   .     S
C281   C341    1.518   .     S
C281   N309    1.389   .     A
C281   C285    1.414   .     A
C282   C351    1.515   .     S
C282   N310    1.384   .     A
C282   C286    1.417   .     A
C283   F365    1.357   .     S
C283   C289    1.410   .     A
C284   F366    1.355   .     S
C284   C290    1.409   .     A
C285   F367    1.357   .     S
C285   C289    1.410   .     A
C286   F368    1.355   .     S
C286   C290    1.409   .     A
C287   O318    1.288   .     A
C287   C291    1.367   .     S
C287   O315    1.288   .     A
C288   O316    1.288   .     A
C288   C292    1.367   .     S
C288   O317    1.288   .     A
C290   C105    1.533   1_565 S
C291   C1028   1.166   1_554 S
C292   C659    1.166   .     S
C293   H305    1.083   .     S
C293   C303    1.399   .     A
C293   C297    1.384   .     A
C294   H306    1.083   .     S
C294   C304    1.397   .     A
C294   C298    1.377   .     A
C295   H307    1.083   .     S
C295   C299    1.383   .     A
C295   C304    1.398   .     A
C296   C300    1.376   .     A
C296   H308    1.083   .     S
C296   C303    1.398   .     A
C297   F361    1.358   .     S
C297   C301    1.407   .     A
C298   F362    1.355   .     S
C298   C302    1.406   .     A
C299   C302    1.408   .     A
C299   F363    1.358   .     S
C300   C301    1.402   .     A
C300   F364    1.353   .     S
C304   C211    1.451   1_655 S
N309   Zn320   2.037   .     S
N310   Zn319   2.037   .     S
O311   Zn319   2.008   .     S
O312   Zn320   2.008   .     S
O313   Zn319   2.010   .     S
O314   Zn320   2.010   .     S
O315   Zn319   1.949   .     S
O316   Zn320   1.949   .     S
O317   Zn319   1.949   .     S
O318   Zn320   1.949   .     S
C321   C322    1.528   .     S
C321   H330    1.114   .     S
C321   H329    1.103   .     S
C322   H328    1.103   .     S
C322   H327    1.111   .     S
C322   C323    1.527   .     S
C323   H326    1.110   .     S
C323   H1060   1.110   1_554 S
C323   H1061   1.111   1_554 S
H324   C691    1.110   .     S
H325   C691    1.111   .     S
C331   C332    1.527   .     S
C331   H339    1.090   .     S
C331   H340    1.112   .     S
C332   C333    1.529   .     S
C332   H338    1.102   .     S
C332   H337    1.108   .     S
C333   H335    1.111   .     S
C333   H334    1.111   .     S
C333   H704    1.110   .     S
H336   C1069   1.110   1_554 S
C341   H349    1.102   .     S
C341   H350    1.114   .     S
C341   C342    1.530   .     S
C342   H348    1.102   .     S
C342   H347    1.111   .     S
C342   C343    1.527   .     S
C343   H346    1.110   .     S
C343   H712    1.110   .     S
C343   H713    1.111   .     S
H344   C1079   1.110   1_554 S
H345   C1079   1.111   1_554 S
C351   H360    1.112   .     S
C351   C352    1.527   .     S
C351   H359    1.090   .     S
C352   H358    1.102   .     S
C352   C353    1.529   .     S
C352   H357    1.108   .     S
C353   H354    1.111   .     S
C353   H355    1.111   .     S
C353   H1092   1.110   1_554 S
H356   C721    1.110   .     S
C369   C393    1.447   .     S
C369   O406    1.302   .     A
C369   O403    1.300   .     A
C370   C394    1.452   .     S
C370   O404    1.303   .     A
C370   O405    1.301   .     A
C371   C375    1.414   .     A
C371   N401    1.388   .     A
C371   C413    1.517   .     S
C372   C376    1.417   .     A
C372   N402    1.383   .     A
C372   C423    1.515   .     S
C373   C433    1.518   .     S
C373   N401    1.389   .     A
C373   C377    1.414   .     A
C374   C443    1.515   .     S
C374   N402    1.384   .     A
C374   C378    1.417   .     A
C375   F457    1.357   .     S
C375   C381    1.410   .     A
C376   F458    1.355   .     S
C376   C382    1.409   .     A
C377   F459    1.357   .     S
C377   C381    1.410   .     A
C378   F460    1.355   .     S
C378   C382    1.409   .     A
C379   O410    1.288   .     A
C379   C383    1.367   .     S
C379   O407    1.288   .     A
C380   O408    1.288   .     A
C380   C384    1.367   .     S
C380   O409    1.288   .     A
C381   C566    1.533   1_545 S
C382   C565    1.533   .     S
C384   C751    1.166   .     S
C385   H397    1.083   .     S
C385   C395    1.399   .     A
C385   C389    1.384   .     A
C386   H398    1.083   .     S
C386   C396    1.397   .     A
C386   C390    1.377   .     A
C387   H399    1.083   .     S
C387   C391    1.383   .     A
C387   C396    1.398   .     A
C388   C392    1.376   .     A
C388   H400    1.083   .     S
C388   C395    1.398   .     A
C389   F453    1.358   .     S
C389   C393    1.407   .     A
C390   F454    1.355   .     S
C390   C394    1.406   .     A
C391   C394    1.408   .     A
C391   F455    1.358   .     S
C392   C393    1.402   .     A
C392   F456    1.353   .     S
C395   C488    1.451   1_455 S
C396   C487    1.451   .     S
N401   Zn412   2.037   .     S
N402   Zn411   2.037   .     S
O403   Zn411   2.008   .     S
O404   Zn412   2.008   .     S
O405   Zn411   2.010   .     S
O406   Zn412   2.010   .     S
O407   Zn411   1.949   .     S
O408   Zn412   1.949   .     S
O409   Zn411   1.949   .     S
O410   Zn412   1.949   .     S
C413   C414    1.528   .     S
C413   H422    1.114   .     S
C413   H421    1.103   .     S
C414   H420    1.103   .     S
C414   H419    1.111   .     S
C414   C415    1.527   .     S
C415   H418    1.110   .     S
H416   C783    1.110   .     S
H417   C783    1.111   .     S
C423   C424    1.527   .     S
C423   H431    1.090   .     S
C423   H432    1.112   .     S
C424   C425    1.529   .     S
C424   H430    1.102   .     S
C424   H429    1.108   .     S
C425   H427    1.111   .     S
C425   H426    1.111   .     S
C425   H796    1.110   .     S
C433   H441    1.102   .     S
C433   H442    1.114   .     S
C433   C434    1.530   .     S
C434   H440    1.102   .     S
C434   H439    1.111   .     S
C434   C435    1.527   .     S
C435   H438    1.110   .     S
C435   H804    1.110   .     S
C435   H805    1.111   .     S
C443   H452    1.112   .     S
C443   C444    1.527   .     S
C443   H451    1.090   .     S
C444   H450    1.102   .     S
C444   C445    1.529   .     S
C444   H449    1.108   .     S
C445   H446    1.111   .     S
C445   H447    1.111   .     S
H448   C813    1.110   .     S
C461   C485    1.447   .     S
C461   O498    1.302   .     A
C461   O495    1.300   .     A
C462   C486    1.452   .     S
C462   O496    1.303   .     A
C462   O497    1.301   .     A
C463   C467    1.414   .     A
C463   N493    1.388   .     A
C463   C505    1.517   .     S
C464   C468    1.417   .     A
C464   N494    1.383   .     A
C464   C515    1.515   .     S
C465   C525    1.518   .     S
C465   N493    1.389   .     A
C465   C469    1.414   .     A
C466   C535    1.515   .     S
C466   N494    1.384   .     A
C466   C470    1.417   .     A
C467   F549    1.357   .     S
C467   C473    1.410   .     A
C468   F550    1.355   .     S
C468   C474    1.409   .     A
C469   F551    1.357   .     S
C469   C473    1.410   .     A
C470   F552    1.355   .     S
C470   C474    1.409   .     A
C471   O502    1.288   .     A
C471   C475    1.367   .     S
C471   O499    1.288   .     A
C472   O500    1.288   .     A
C472   C476    1.367   .     S
C472   O501    1.288   .     A
C473   C658    1.533   1_545 S
C474   C657    1.533   .     S
C476   C843    1.166   .     S
C477   H489    1.083   .     S
C477   C487    1.399   .     A
C477   C481    1.384   .     A
C478   H490    1.083   .     S
C478   C488    1.397   .     A
C478   C482    1.377   .     A
C479   H491    1.083   .     S
C479   C483    1.383   .     A
C479   C488    1.398   .     A
C480   C484    1.376   .     A
C480   H492    1.083   .     S
C480   C487    1.398   .     A
C481   F545    1.358   .     S
C481   C485    1.407   .     A
C482   F546    1.355   .     S
C482   C486    1.406   .     A
C483   C486    1.408   .     A
C483   F547    1.358   .     S
C484   C485    1.402   .     A
C484   F548    1.353   .     S
C488   C395    1.451   1_655 S
N493   Zn504   2.037   .     S
N494   Zn503   2.037   .     S
O495   Zn503   2.008   .     S
O496   Zn504   2.008   .     S
O497   Zn503   2.010   .     S
O498   Zn504   2.010   .     S
O499   Zn503   1.949   .     S
O500   Zn504   1.949   .     S
O501   Zn503   1.949   .     S
O502   Zn504   1.949   .     S
C505   C506    1.528   .     S
C505   H514    1.114   .     S
C505   H513    1.103   .     S
C506   H512    1.103   .     S
C506   H511    1.111   .     S
C506   C507    1.527   .     S
C507   H510    1.110   .     S
H508   C875    1.110   .     S
H509   C875    1.111   .     S
C515   C516    1.527   .     S
C515   H523    1.090   .     S
C515   H524    1.112   .     S
C516   C517    1.529   .     S
C516   H522    1.102   .     S
C516   H521    1.108   .     S
C517   H519    1.111   .     S
C517   H518    1.111   .     S
C517   H888    1.110   .     S
C525   H533    1.102   .     S
C525   H534    1.114   .     S
C525   C526    1.530   .     S
C526   H532    1.102   .     S
C526   H531    1.111   .     S
C526   C527    1.527   .     S
C527   H530    1.110   .     S
C527   H896    1.110   .     S
C527   H897    1.111   .     S
C535   H544    1.112   .     S
C535   C536    1.527   .     S
C535   H543    1.090   .     S
C536   H542    1.102   .     S
C536   C537    1.529   .     S
C536   H541    1.108   .     S
C537   H538    1.111   .     S
C537   H539    1.111   .     S
H540   C905    1.110   .     S
C553   C577    1.447   .     S
C553   O590    1.302   .     A
C553   O587    1.300   .     A
C554   C578    1.452   .     S
C554   O588    1.303   .     A
C554   O589    1.301   .     A
C555   C559    1.414   .     A
C555   N585    1.388   .     A
C555   C597    1.517   .     S
C556   C560    1.417   .     A
C556   N586    1.383   .     A
C556   C607    1.515   .     S
C557   C617    1.518   .     S
C557   N585    1.389   .     A
C557   C561    1.414   .     A
C558   C627    1.515   .     S
C558   N586    1.384   .     A
C558   C562    1.417   .     A
C559   F641    1.357   .     S
C559   C565    1.410   .     A
C560   F642    1.355   .     S
C560   C566    1.409   .     A
C561   F643    1.357   .     S
C561   C565    1.410   .     A
C562   F644    1.355   .     S
C562   C566    1.409   .     A
C563   O594    1.288   .     A
C563   C567    1.367   .     S
C563   O591    1.288   .     A
C564   O592    1.288   .     A
C564   C568    1.367   .     S
C564   O593    1.288   .     A
C566   C381    1.533   1_565 S
C568   C935    1.166   .     S
C569   H581    1.083   .     S
C569   C579    1.399   .     A
C569   C573    1.384   .     A
C570   H582    1.083   .     S
C570   C580    1.397   .     A
C570   C574    1.377   .     A
C571   H583    1.083   .     S
C571   C575    1.383   .     A
C571   C580    1.398   .     A
C572   C576    1.376   .     A
C572   H584    1.083   .     S
C572   C579    1.398   .     A
C573   F637    1.358   .     S
C573   C577    1.407   .     A
C574   F638    1.355   .     S
C574   C578    1.406   .     A
C575   C578    1.408   .     A
C575   F639    1.358   .     S
C576   C577    1.402   .     A
C576   F640    1.353   .     S
C579   C672    1.451   1_455 S
C580   C671    1.451   .     S
N585   Zn596   2.037   .     S
N586   Zn595   2.037   .     S
O587   Zn595   2.008   .     S
O588   Zn596   2.008   .     S
O589   Zn595   2.010   .     S
O590   Zn596   2.010   .     S
O591   Zn595   1.949   .     S
O592   Zn596   1.949   .     S
O593   Zn595   1.949   .     S
O594   Zn596   1.949   .     S
C597   C598    1.528   .     S
C597   H606    1.114   .     S
C597   H605    1.103   .     S
C598   H604    1.103   .     S
C598   H603    1.111   .     S
C598   C599    1.527   .     S
C599   H602    1.110   .     S
H600   C967    1.110   .     S
H601   C967    1.111   .     S
C607   C608    1.527   .     S
C607   H615    1.090   .     S
C607   H616    1.112   .     S
C608   C609    1.529   .     S
C608   H614    1.102   .     S
C608   H613    1.108   .     S
C609   H611    1.111   .     S
C609   H610    1.111   .     S
C609   H980    1.110   .     S
C617   H625    1.102   .     S
C617   H626    1.114   .     S
C617   C618    1.530   .     S
C618   H624    1.102   .     S
C618   H623    1.111   .     S
C618   C619    1.527   .     S
C619   H622    1.110   .     S
C619   H988    1.110   .     S
C619   H989    1.111   .     S
C627   H636    1.112   .     S
C627   C628    1.527   .     S
C627   H635    1.090   .     S
C628   H634    1.102   .     S
C628   C629    1.529   .     S
C628   H633    1.108   .     S
C629   H630    1.111   .     S
C629   H631    1.111   .     S
H632   C997    1.110   .     S
C645   C669    1.447   .     S
C645   O682    1.302   .     A
C645   O679    1.300   .     A
C646   C670    1.452   .     S
C646   O680    1.303   .     A
C646   O681    1.301   .     A
C647   C651    1.414   .     A
C647   N677    1.388   .     A
C647   C689    1.517   .     S
C648   C652    1.417   .     A
C648   N678    1.383   .     A
C648   C699    1.515   .     S
C649   C709    1.518   .     S
C649   N677    1.389   .     A
C649   C653    1.414   .     A
C650   C719    1.515   .     S
C650   N678    1.384   .     A
C650   C654    1.417   .     A
C651   F733    1.357   .     S
C651   C657    1.410   .     A
C652   F734    1.355   .     S
C652   C658    1.409   .     A
C653   F735    1.357   .     S
C653   C657    1.410   .     A
C654   F736    1.355   .     S
C654   C658    1.409   .     A
C655   O686    1.288   .     A
C655   C659    1.367   .     S
C655   O683    1.288   .     A
C656   O684    1.288   .     A
C656   C660    1.367   .     S
C656   O685    1.288   .     A
C658   C473    1.533   1_565 S
C660   C1027   1.166   .     S
C661   H673    1.083   .     S
C661   C671    1.399   .     A
C661   C665    1.384   .     A
C662   H674    1.083   .     S
C662   C672    1.397   .     A
C662   C666    1.377   .     A
C663   H675    1.083   .     S
C663   C667    1.383   .     A
C663   C672    1.398   .     A
C664   C668    1.376   .     A
C664   H676    1.083   .     S
C664   C671    1.398   .     A
C665   F729    1.358   .     S
C665   C669    1.407   .     A
C666   F730    1.355   .     S
C666   C670    1.406   .     A
C667   C670    1.408   .     A
C667   F731    1.358   .     S
C668   C669    1.402   .     A
C668   F732    1.353   .     S
C672   C579    1.451   1_655 S
N677   Zn688   2.037   .     S
N678   Zn687   2.037   .     S
O679   Zn687   2.008   .     S
O680   Zn688   2.008   .     S
O681   Zn687   2.010   .     S
O682   Zn688   2.010   .     S
O683   Zn687   1.949   .     S
O684   Zn688   1.949   .     S
O685   Zn687   1.949   .     S
O686   Zn688   1.949   .     S
C689   C690    1.528   .     S
C689   H698    1.114   .     S
C689   H697    1.103   .     S
C690   H696    1.103   .     S
C690   H695    1.111   .     S
C690   C691    1.527   .     S
C691   H694    1.110   .     S
H692   C1059   1.110   .     S
H693   C1059   1.111   .     S
C699   C700    1.527   .     S
C699   H707    1.090   .     S
C699   H708    1.112   .     S
C700   C701    1.529   .     S
C700   H706    1.102   .     S
C700   H705    1.108   .     S
C701   H703    1.111   .     S
C701   H702    1.111   .     S
C701   H1072   1.110   .     S
C709   H717    1.102   .     S
C709   H718    1.114   .     S
C709   C710    1.530   .     S
C710   H716    1.102   .     S
C710   H715    1.111   .     S
C710   C711    1.527   .     S
C711   H714    1.110   .     S
C711   H1080   1.110   .     S
C711   H1081   1.111   .     S
C719   H728    1.112   .     S
C719   C720    1.527   .     S
C719   H727    1.090   .     S
C720   H726    1.102   .     S
C720   C721    1.529   .     S
C720   H725    1.108   .     S
C721   H722    1.111   .     S
C721   H723    1.111   .     S
H724   C1089   1.110   .     S
C737   C761    1.447   .     S
C737   O774    1.302   .     A
C737   O771    1.300   .     A
C738   C762    1.452   .     S
C738   O772    1.303   .     A
C738   O773    1.301   .     A
C739   C743    1.414   .     A
C739   N769    1.388   .     A
C739   C781    1.517   .     S
C740   C744    1.417   .     A
C740   N770    1.383   .     A
C740   C791    1.515   .     S
C741   C801    1.518   .     S
C741   N769    1.389   .     A
C741   C745    1.414   .     A
C742   C811    1.515   .     S
C742   N770    1.384   .     A
C742   C746    1.417   .     A
C743   F825    1.357   .     S
C743   C749    1.410   .     A
C744   F826    1.355   .     S
C744   C750    1.409   .     A
C745   F827    1.357   .     S
C745   C749    1.410   .     A
C746   F828    1.355   .     S
C746   C750    1.409   .     A
C747   O778    1.288   .     A
C747   C751    1.367   .     S
C747   O775    1.288   .     A
C748   O776    1.288   .     A
C748   C752    1.367   .     S
C748   O777    1.288   .     A
C749   C934    1.533   1_545 S
C750   C933    1.533   .     S
C752   C15     1.166   1_556 S
C753   H765    1.083   .     S
C753   C763    1.399   .     A
C753   C757    1.384   .     A
C754   H766    1.083   .     S
C754   C764    1.397   .     A
C754   C758    1.377   .     A
C755   H767    1.083   .     S
C755   C759    1.383   .     A
C755   C764    1.398   .     A
C756   C760    1.376   .     A
C756   H768    1.083   .     S
C756   C763    1.398   .     A
C757   F821    1.358   .     S
C757   C761    1.407   .     A
C758   F822    1.355   .     S
C758   C762    1.406   .     A
C759   C762    1.408   .     A
C759   F823    1.358   .     S
C760   C761    1.402   .     A
C760   F824    1.353   .     S
C763   C856    1.451   1_455 S
C764   C855    1.451   .     S
N769   Zn780   2.037   .     S
N770   Zn779   2.037   .     S
O771   Zn779   2.008   .     S
O772   Zn780   2.008   .     S
O773   Zn779   2.010   .     S
O774   Zn780   2.010   .     S
O775   Zn779   1.949   .     S
O776   Zn780   1.949   .     S
O777   Zn779   1.949   .     S
O778   Zn780   1.949   .     S
C781   C782    1.528   .     S
C781   H790    1.114   .     S
C781   H789    1.103   .     S
C782   H788    1.103   .     S
C782   H787    1.111   .     S
C782   C783    1.527   .     S
C783   H786    1.110   .     S
H784   C47     1.110   1_556 S
H785   C47     1.111   1_556 S
C791   C792    1.527   .     S
C791   H799    1.090   .     S
C791   H800    1.112   .     S
C792   C793    1.529   .     S
C792   H798    1.102   .     S
C792   H797    1.108   .     S
C793   H795    1.111   .     S
C793   H794    1.111   .     S
C793   H60     1.110   1_556 S
C801   H809    1.102   .     S
C801   H810    1.114   .     S
C801   C802    1.530   .     S
C802   H808    1.102   .     S
C802   H807    1.111   .     S
C802   C803    1.527   .     S
C803   H806    1.110   .     S
C803   H68     1.110   1_556 S
C803   H69     1.111   1_556 S
C811   H820    1.112   .     S
C811   C812    1.527   .     S
C811   H819    1.090   .     S
C812   H818    1.102   .     S
C812   C813    1.529   .     S
C812   H817    1.108   .     S
C813   H814    1.111   .     S
C813   H815    1.111   .     S
H816   C77     1.110   1_556 S
C829   C853    1.447   .     S
C829   O866    1.302   .     A
C829   O863    1.300   .     A
C830   C854    1.452   .     S
C830   O864    1.303   .     A
C830   O865    1.301   .     A
C831   C835    1.414   .     A
C831   N861    1.388   .     A
C831   C873    1.517   .     S
C832   C836    1.417   .     A
C832   N862    1.383   .     A
C832   C883    1.515   .     S
C833   C893    1.518   .     S
C833   N861    1.389   .     A
C833   C837    1.414   .     A
C834   C903    1.515   .     S
C834   N862    1.384   .     A
C834   C838    1.417   .     A
C835   F917    1.357   .     S
C835   C841    1.410   .     A
C836   F918    1.355   .     S
C836   C842    1.409   .     A
C837   F919    1.357   .     S
C837   C841    1.410   .     A
C838   F920    1.355   .     S
C838   C842    1.409   .     A
C839   O870    1.288   .     A
C839   C843    1.367   .     S
C839   O867    1.288   .     A
C840   O868    1.288   .     A
C840   C844    1.367   .     S
C840   O869    1.288   .     A
C841   C1026   1.533   1_545 S
C842   C1025   1.533   .     S
C844   C107    1.166   1_556 S
C845   H857    1.083   .     S
C845   C855    1.399   .     A
C845   C849    1.384   .     A
C846   H858    1.083   .     S
C846   C856    1.397   .     A
C846   C850    1.377   .     A
C847   H859    1.083   .     S
C847   C851    1.383   .     A
C847   C856    1.398   .     A
C848   C852    1.376   .     A
C848   H860    1.083   .     S
C848   C855    1.398   .     A
C849   F913    1.358   .     S
C849   C853    1.407   .     A
C850   F914    1.355   .     S
C850   C854    1.406   .     A
C851   C854    1.408   .     A
C851   F915    1.358   .     S
C852   C853    1.402   .     A
C852   F916    1.353   .     S
C856   C763    1.451   1_655 S
N861   Zn872   2.037   .     S
N862   Zn871   2.037   .     S
O863   Zn871   2.008   .     S
O864   Zn872   2.008   .     S
O865   Zn871   2.010   .     S
O866   Zn872   2.010   .     S
O867   Zn871   1.949   .     S
O868   Zn872   1.949   .     S
O869   Zn871   1.949   .     S
O870   Zn872   1.949   .     S
C873   C874    1.528   .     S
C873   H882    1.114   .     S
C873   H881    1.103   .     S
C874   H880    1.103   .     S
C874   H879    1.111   .     S
C874   C875    1.527   .     S
C875   H878    1.110   .     S
H876   C139    1.110   1_556 S
H877   C139    1.111   1_556 S
C883   C884    1.527   .     S
C883   H891    1.090   .     S
C883   H892    1.112   .     S
C884   C885    1.529   .     S
C884   H890    1.102   .     S
C884   H889    1.108   .     S
C885   H887    1.111   .     S
C885   H886    1.111   .     S
C885   H152    1.110   1_556 S
C893   H901    1.102   .     S
C893   H902    1.114   .     S
C893   C894    1.530   .     S
C894   H900    1.102   .     S
C894   H899    1.111   .     S
C894   C895    1.527   .     S
C895   H898    1.110   .     S
C895   H160    1.110   1_556 S
C895   H161    1.111   1_556 S
C903   H912    1.112   .     S
C903   C904    1.527   .     S
C903   H911    1.090   .     S
C904   H910    1.102   .     S
C904   C905    1.529   .     S
C904   H909    1.108   .     S
C905   H906    1.111   .     S
C905   H907    1.111   .     S
H908   C169    1.110   1_556 S
C921   C945    1.447   .     S
C921   O958    1.302   .     A
C921   O955    1.300   .     A
C922   C946    1.452   .     S
C922   O956    1.303   .     A
C922   O957    1.301   .     A
C923   C927    1.414   .     A
C923   N953    1.388   .     A
C923   C965    1.517   .     S
C924   C928    1.417   .     A
C924   N954    1.383   .     A
C924   C975    1.515   .     S
C925   C985    1.518   .     S
C925   N953    1.389   .     A
C925   C929    1.414   .     A
C926   C995    1.515   .     S
C926   N954    1.384   .     A
C926   C930    1.417   .     A
C927   F1009   1.357   .     S
C927   C933    1.410   .     A
C928   F1010   1.355   .     S
C928   C934    1.409   .     A
C929   F1011   1.357   .     S
C929   C933    1.410   .     A
C930   F1012   1.355   .     S
C930   C934    1.409   .     A
C931   O962    1.288   .     A
C931   C935    1.367   .     S
C931   O959    1.288   .     A
C932   O960    1.288   .     A
C932   C936    1.367   .     S
C932   O961    1.288   .     A
C934   C749    1.533   1_565 S
C936   C199    1.166   1_556 S
C937   H949    1.083   .     S
C937   C947    1.399   .     A
C937   C941    1.384   .     A
C938   H950    1.083   .     S
C938   C948    1.397   .     A
C938   C942    1.377   .     A
C939   H951    1.083   .     S
C939   C943    1.383   .     A
C939   C948    1.398   .     A
C940   C944    1.376   .     A
C940   H952    1.083   .     S
C940   C947    1.398   .     A
C941   F1005   1.358   .     S
C941   C945    1.407   .     A
C942   F1006   1.355   .     S
C942   C946    1.406   .     A
C943   C946    1.408   .     A
C943   F1007   1.358   .     S
C944   C945    1.402   .     A
C944   F1008   1.353   .     S
C947   C1040   1.451   1_455 S
C948   C1039   1.451   .     S
N953   Zn964   2.037   .     S
N954   Zn963   2.037   .     S
O955   Zn963   2.008   .     S
O956   Zn964   2.008   .     S
O957   Zn963   2.010   .     S
O958   Zn964   2.010   .     S
O959   Zn963   1.949   .     S
O960   Zn964   1.949   .     S
O961   Zn963   1.949   .     S
O962   Zn964   1.949   .     S
C965   C966    1.528   .     S
C965   H974    1.114   .     S
C965   H973    1.103   .     S
C966   H972    1.103   .     S
C966   H971    1.111   .     S
C966   C967    1.527   .     S
C967   H970    1.110   .     S
H968   C231    1.110   1_556 S
H969   C231    1.111   1_556 S
C975   C976    1.527   .     S
C975   H983    1.090   .     S
C975   H984    1.112   .     S
C976   C977    1.529   .     S
C976   H982    1.102   .     S
C976   H981    1.108   .     S
C977   H979    1.111   .     S
C977   H978    1.111   .     S
C977   H244    1.110   1_556 S
C985   H993    1.102   .     S
C985   H994    1.114   .     S
C985   C986    1.530   .     S
C986   H992    1.102   .     S
C986   H991    1.111   .     S
C986   C987    1.527   .     S
C987   H990    1.110   .     S
C987   H252    1.110   1_556 S
C987   H253    1.111   1_556 S
C995   H1004   1.112   .     S
C995   C996    1.527   .     S
C995   H1003   1.090   .     S
C996   H1002   1.102   .     S
C996   C997    1.529   .     S
C996   H1001   1.108   .     S
C997   H998    1.111   .     S
C997   H999    1.111   .     S
H1000  C261    1.110   1_556 S
C1013  C1037   1.447   .     S
C1013  O1050   1.302   .     A
C1013  O1047   1.300   .     A
C1014  C1038   1.452   .     S
C1014  O1048   1.303   .     A
C1014  O1049   1.301   .     A
C1015  C1019   1.414   .     A
C1015  N1045   1.388   .     A
C1015  C1057   1.517   .     S
C1016  C1020   1.417   .     A
C1016  N1046   1.383   .     A
C1016  C1067   1.515   .     S
C1017  C1077   1.518   .     S
C1017  N1045   1.389   .     A
C1017  C1021   1.414   .     A
C1018  C1087   1.515   .     S
C1018  N1046   1.384   .     A
C1018  C1022   1.417   .     A
C1019  F1101   1.357   .     S
C1019  C1025   1.410   .     A
C1020  F1102   1.355   .     S
C1020  C1026   1.409   .     A
C1021  F1103   1.357   .     S
C1021  C1025   1.410   .     A
C1022  F1104   1.355   .     S
C1022  C1026   1.409   .     A
C1023  O1054   1.288   .     A
C1023  C1027   1.367   .     S
C1023  O1051   1.288   .     A
C1024  O1052   1.288   .     A
C1024  C1028   1.367   .     S
C1024  O1053   1.288   .     A
C1026  C841    1.533   1_565 S
C1028  C291    1.166   1_556 S
C1029  H1041   1.083   .     S
C1029  C1039   1.399   .     A
C1029  C1033   1.384   .     A
C1030  H1042   1.083   .     S
C1030  C1040   1.397   .     A
C1030  C1034   1.377   .     A
C1031  H1043   1.083   .     S
C1031  C1035   1.383   .     A
C1031  C1040   1.398   .     A
C1032  C1036   1.376   .     A
C1032  H1044   1.083   .     S
C1032  C1039   1.398   .     A
C1033  F1097   1.358   .     S
C1033  C1037   1.407   .     A
C1034  F1098   1.355   .     S
C1034  C1038   1.406   .     A
C1035  C1038   1.408   .     A
C1035  F1099   1.358   .     S
C1036  C1037   1.402   .     A
C1036  F1100   1.353   .     S
C1040  C947    1.451   1_655 S
N1045  Zn1056  2.037   .     S
N1046  Zn1055  2.037   .     S
O1047  Zn1055  2.008   .     S
O1048  Zn1056  2.008   .     S
O1049  Zn1055  2.010   .     S
O1050  Zn1056  2.010   .     S
O1051  Zn1055  1.949   .     S
O1052  Zn1056  1.949   .     S
O1053  Zn1055  1.949   .     S
O1054  Zn1056  1.949   .     S
C1057  C1058   1.528   .     S
C1057  H1066   1.114   .     S
C1057  H1065   1.103   .     S
C1058  H1064   1.103   .     S
C1058  H1063   1.111   .     S
C1058  C1059   1.527   .     S
C1059  H1062   1.110   .     S
H1060  C323    1.110   1_556 S
H1061  C323    1.111   1_556 S
C1067  C1068   1.527   .     S
C1067  H1075   1.090   .     S
C1067  H1076   1.112   .     S
C1068  C1069   1.529   .     S
C1068  H1074   1.102   .     S
C1068  H1073   1.108   .     S
C1069  H1071   1.111   .     S
C1069  H1070   1.111   .     S
C1069  H336    1.110   1_556 S
C1077  H1085   1.102   .     S
C1077  H1086   1.114   .     S
C1077  C1078   1.530   .     S
C1078  H1084   1.102   .     S
C1078  H1083   1.111   .     S
C1078  C1079   1.527   .     S
C1079  H1082   1.110   .     S
C1079  H344    1.110   1_556 S
C1079  H345    1.111   1_556 S
C1087  H1096   1.112   .     S
C1087  C1088   1.527   .     S
C1087  H1095   1.090   .     S
C1088  H1094   1.102   .     S
C1088  C1089   1.529   .     S
C1088  H1093   1.108   .     S
C1089  H1090   1.111   .     S
C1089  H1091   1.111   .     S
H1092  C353    1.110   1_556 S
