data_str_m2_o1_o2_pcu_sym.144
_audit_creation_date              2020-01-03
_audit_creation_method            'Materials Studio'
_symmetry_space_group_name_H-M    'P1'
_symmetry_Int_Tables_number       1
_symmetry_cell_setting            triclinic
loop_
_symmetry_equiv_pos_as_xyz
  x,y,z
_cell_length_a                    32.6197
_cell_length_b                    28.5755
_cell_length_c                    30.4049
_cell_angle_alpha                 89.9890
_cell_angle_beta                  90.7353
_cell_angle_gamma                 90.0060
loop_
_atom_site_label
_atom_site_type_symbol
_atom_site_fract_x
_atom_site_fract_y
_atom_site_fract_z
_atom_site_U_iso_or_equiv
_atom_site_adp_type
_atom_site_occupancy
C1     C     0.08737   0.16667   0.25006   0.00000  Uiso   1.00
C2     C     0.24597   0.16667   0.24991   0.00000  Uiso   1.00
C3     C     0.16684   0.16653   0.16484   0.00000  Uiso   1.00
C4     C     0.16647   0.16653   0.33516   0.00000  Uiso   1.00
C5     C     0.13818   0.02484   0.22605   0.00000  Uiso   1.00
C6     C     0.19567   0.30871   0.27319   0.00000  Uiso   1.00
C7     C     0.19516   0.02484   0.27395   0.00000  Uiso   1.00
C8     C     0.13766   0.30871   0.22681   0.00000  Uiso   1.00
C9     C     0.02114   0.12413   0.24909   0.00000  Uiso   1.00
C10    C     0.31218   0.20922   0.24942   0.00000  Uiso   1.00
C11    C     0.31217   0.12413   0.25029   0.00000  Uiso   1.00
C12    C     0.02117   0.20921   0.25090   0.00000  Uiso   1.00
C13    C     0.13841   0.19109   0.04560   0.00000  Uiso   1.00
C14    C     0.13878   0.13603   0.45262   0.00000  Uiso   1.00
C15    C     0.19472   0.19110   0.45443   0.00000  Uiso   1.00
C16    C     0.19432   0.13600   0.04735   0.00000  Uiso   1.00
C17    C     0.13810   0.19302   0.09151   0.00000  Uiso   1.00
C18    C     0.13821   0.13632   0.40660   0.00000  Uiso   1.00
C19    C     0.19511   0.19300   0.40852   0.00000  Uiso   1.00
C20    C     0.19498   0.13633   0.09336   0.00000  Uiso   1.00
C21    C     0.16687   0.16568   0.11623   0.00000  Uiso   1.00
C22    C     0.16637   0.16566   0.38377   0.00000  Uiso   1.00
C23    C     0.16631   0.16306   0.02390   0.00000  Uiso   1.00
C24    C     0.16676   0.16309   0.47610   0.00000  Uiso   1.00
C25    C     0.29059   0.16667   0.24987   0.00000  Uiso   1.00
C26    C     0.04275   0.16667   0.25003   0.00000  Uiso   1.00
Cu27   Cu    0.16667   0.21355   0.25000   0.00000  Uiso   1.00
Cu28   Cu    0.16667   0.11978   0.25000   0.00000  Uiso   1.00
H29    H     0.11666   0.21152   0.02632   0.00000  Uiso   1.00
H30    H     0.11706   0.11479   0.47054   0.00000  Uiso   1.00
H31    H     0.21646   0.21150   0.47374   0.00000  Uiso   1.00
H32    H     0.21601   0.11476   0.02940   0.00000  Uiso   1.00
N33    N     0.16667   0.28402   0.25000   0.00000  Uiso   1.00
N34    N     0.16667   0.04931   0.25000   0.00000  Uiso   1.00
O35    O     0.10655   0.20625   0.24999   0.00000  Uiso   1.00
O36    O     0.22679   0.12709   0.25001   0.00000  Uiso   1.00
O37    O     0.22679   0.20625   0.25001   0.00000  Uiso   1.00
O38    O     0.10655   0.12709   0.24999   0.00000  Uiso   1.00
O39    O     0.16666   0.20626   0.18573   0.00000  Uiso   1.00
O40    O     0.16667   0.12707   0.31427   0.00000  Uiso   1.00
O41    O     0.16667   0.20626   0.31427   0.00000  Uiso   1.00
O42    O     0.16666   0.12707   0.18573   0.00000  Uiso   1.00
F43    F     0.11008   0.04800   0.20109   0.00000  Uiso   1.00
F44    F     0.22558   0.28593   0.29557   0.00000  Uiso   1.00
F45    F     0.22328   0.04799   0.29888   0.00000  Uiso   1.00
F46    F     0.10772   0.28594   0.20448   0.00000  Uiso   1.00
C47    C     0.10553   0.22350   0.11191   0.00000  Uiso   1.00
C48    C     0.06953   0.19428   0.12869   0.00000  Uiso   1.00
C49    C     0.03318   0.22551   0.14009   0.00000  Uiso   1.00
H50    H     0.04246   0.25237   0.16458   0.00000  Uiso   1.00
H51    H     0.02122   0.24328   0.11007   0.00000  Uiso   1.00
H52    H     0.00817   0.20413   0.15407   0.00000  Uiso   1.00
H53    H     0.05945   0.16902   0.10292   0.00000  Uiso   1.00
H54    H     0.07923   0.17413   0.15821   0.00000  Uiso   1.00
H55    H     0.11895   0.24543   0.13813   0.00000  Uiso   1.00
H56    H     0.09352   0.24887   0.08713   0.00000  Uiso   1.00
C57    C     0.10599   0.10589   0.38423   0.00000  Uiso   1.00
C58    C     0.06807   0.13441   0.37083   0.00000  Uiso   1.00
C59    C     0.03245   0.10211   0.35841   0.00000  Uiso   1.00
H60    H     0.04188   0.07703   0.33257   0.00000  Uiso   1.00
H61    H     0.02233   0.08213   0.38768   0.00000  Uiso   1.00
H62    H     0.00613   0.12294   0.34588   0.00000  Uiso   1.00
H63    H     0.05840   0.15702   0.39861   0.00000  Uiso   1.00
H64    H     0.07547   0.15730   0.34253   0.00000  Uiso   1.00
H65    H     0.11828   0.08666   0.35572   0.00000  Uiso   1.00
H66    H     0.09629   0.07784   0.40729   0.00000  Uiso   1.00
C67    C     0.22776   0.22341   0.38816   0.00000  Uiso   1.00
C68    C     0.26371   0.19412   0.37141   0.00000  Uiso   1.00
C69    C     0.30020   0.22524   0.36027   0.00000  Uiso   1.00
H70    H     0.29107   0.25233   0.33593   0.00000  Uiso   1.00
H71    H     0.31218   0.24272   0.39042   0.00000  Uiso   1.00
H72    H     0.32514   0.20383   0.34621   0.00000  Uiso   1.00
H73    H     0.27363   0.16869   0.39710   0.00000  Uiso   1.00
H74    H     0.25403   0.17416   0.34178   0.00000  Uiso   1.00
H75    H     0.21440   0.24538   0.36192   0.00000  Uiso   1.00
H76    H     0.23979   0.24874   0.41295   0.00000  Uiso   1.00
C77    C     0.22729   0.10597   0.11569   0.00000  Uiso   1.00
C78    C     0.26519   0.13459   0.12899   0.00000  Uiso   1.00
C79    C     0.30106   0.10240   0.14081   0.00000  Uiso   1.00
H80    H     0.29192   0.07687   0.16639   0.00000  Uiso   1.00
H81    H     0.31113   0.08294   0.11123   0.00000  Uiso   1.00
H82    H     0.32732   0.12325   0.15344   0.00000  Uiso   1.00
H83    H     0.27455   0.15755   0.10133   0.00000  Uiso   1.00
H84    H     0.25791   0.15713   0.15756   0.00000  Uiso   1.00
H85    H     0.21508   0.08672   0.14424   0.00000  Uiso   1.00
H86    H     0.23697   0.07793   0.09262   0.00000  Uiso   1.00
F87    F     0.04062   0.08218   0.24747   0.00000  Uiso   1.00
F88    F     0.29269   0.25118   0.24791   0.00000  Uiso   1.00
F89    F     0.29268   0.08216   0.25141   0.00000  Uiso   1.00
F90    F     0.04068   0.25115   0.25286   0.00000  Uiso   1.00
C91    C     0.42070   0.16667   0.25006   0.00000  Uiso   1.00
C92    C     0.57930   0.16667   0.24991   0.00000  Uiso   1.00
C93    C     0.50017   0.16653   0.16484   0.00000  Uiso   1.00
C94    C     0.49981   0.16653   0.33516   0.00000  Uiso   1.00
C95    C     0.47151   0.02484   0.22605   0.00000  Uiso   1.00
C96    C     0.52900   0.30871   0.27319   0.00000  Uiso   1.00
C97    C     0.52849   0.02484   0.27395   0.00000  Uiso   1.00
C98    C     0.47100   0.30871   0.22681   0.00000  Uiso   1.00
C99    C     0.35448   0.12413   0.24909   0.00000  Uiso   1.00
C100   C     0.64551   0.20922   0.24942   0.00000  Uiso   1.00
C101   C     0.64551   0.12413   0.25029   0.00000  Uiso   1.00
C102   C     0.35451   0.20921   0.25090   0.00000  Uiso   1.00
C103   C     0.47174   0.19109   0.04560   0.00000  Uiso   1.00
C104   C     0.47211   0.13603   0.45262   0.00000  Uiso   1.00
C105   C     0.52806   0.19110   0.45443   0.00000  Uiso   1.00
C106   C     0.52765   0.13600   0.04735   0.00000  Uiso   1.00
C107   C     0.47143   0.19302   0.09151   0.00000  Uiso   1.00
C108   C     0.47155   0.13632   0.40660   0.00000  Uiso   1.00
C109   C     0.52844   0.19300   0.40852   0.00000  Uiso   1.00
C110   C     0.52831   0.13633   0.09336   0.00000  Uiso   1.00
C111   C     0.50021   0.16568   0.11623   0.00000  Uiso   1.00
C112   C     0.49970   0.16566   0.38377   0.00000  Uiso   1.00
C113   C     0.49964   0.16306   0.02390   0.00000  Uiso   1.00
C114   C     0.50010   0.16309   0.47610   0.00000  Uiso   1.00
C115   C     0.62392   0.16667   0.24987   0.00000  Uiso   1.00
C116   C     0.37608   0.16667   0.25003   0.00000  Uiso   1.00
Cu117  Cu    0.50000   0.21355   0.25000   0.00000  Uiso   1.00
Cu118  Cu    0.50000   0.11978   0.25000   0.00000  Uiso   1.00
H119   H     0.44999   0.21152   0.02632   0.00000  Uiso   1.00
H120   H     0.45040   0.11479   0.47054   0.00000  Uiso   1.00
H121   H     0.54980   0.21150   0.47374   0.00000  Uiso   1.00
H122   H     0.54934   0.11476   0.02940   0.00000  Uiso   1.00
N123   N     0.50000   0.28402   0.25000   0.00000  Uiso   1.00
N124   N     0.50000   0.04931   0.25000   0.00000  Uiso   1.00
O125   O     0.43988   0.20625   0.24999   0.00000  Uiso   1.00
O126   O     0.56012   0.12709   0.25001   0.00000  Uiso   1.00
O127   O     0.56012   0.20625   0.25001   0.00000  Uiso   1.00
O128   O     0.43988   0.12709   0.24999   0.00000  Uiso   1.00
O129   O     0.50000   0.20626   0.18573   0.00000  Uiso   1.00
O130   O     0.50000   0.12707   0.31427   0.00000  Uiso   1.00
O131   O     0.50000   0.20626   0.31427   0.00000  Uiso   1.00
O132   O     0.50000   0.12707   0.18573   0.00000  Uiso   1.00
F133   F     0.44342   0.04800   0.20109   0.00000  Uiso   1.00
F134   F     0.55892   0.28593   0.29557   0.00000  Uiso   1.00
F135   F     0.55661   0.04799   0.29888   0.00000  Uiso   1.00
F136   F     0.44106   0.28594   0.20448   0.00000  Uiso   1.00
C137   C     0.43886   0.22350   0.11191   0.00000  Uiso   1.00
C138   C     0.40287   0.19428   0.12869   0.00000  Uiso   1.00
C139   C     0.36652   0.22551   0.14009   0.00000  Uiso   1.00
H140   H     0.37579   0.25237   0.16458   0.00000  Uiso   1.00
H141   H     0.35456   0.24328   0.11007   0.00000  Uiso   1.00
H142   H     0.34150   0.20413   0.15407   0.00000  Uiso   1.00
H143   H     0.39278   0.16902   0.10292   0.00000  Uiso   1.00
H144   H     0.41257   0.17413   0.15821   0.00000  Uiso   1.00
H145   H     0.45229   0.24543   0.13813   0.00000  Uiso   1.00
H146   H     0.42685   0.24887   0.08713   0.00000  Uiso   1.00
C147   C     0.43932   0.10589   0.38423   0.00000  Uiso   1.00
C148   C     0.40141   0.13441   0.37083   0.00000  Uiso   1.00
C149   C     0.36578   0.10211   0.35841   0.00000  Uiso   1.00
H150   H     0.37521   0.07703   0.33257   0.00000  Uiso   1.00
H151   H     0.35566   0.08213   0.38768   0.00000  Uiso   1.00
H152   H     0.33946   0.12294   0.34588   0.00000  Uiso   1.00
H153   H     0.39174   0.15702   0.39861   0.00000  Uiso   1.00
H154   H     0.40880   0.15730   0.34253   0.00000  Uiso   1.00
H155   H     0.45161   0.08666   0.35572   0.00000  Uiso   1.00
H156   H     0.42963   0.07784   0.40729   0.00000  Uiso   1.00
C157   C     0.56109   0.22341   0.38816   0.00000  Uiso   1.00
C158   C     0.59704   0.19412   0.37141   0.00000  Uiso   1.00
C159   C     0.63353   0.22524   0.36027   0.00000  Uiso   1.00
H160   H     0.62440   0.25233   0.33593   0.00000  Uiso   1.00
H161   H     0.64551   0.24272   0.39042   0.00000  Uiso   1.00
H162   H     0.65848   0.20383   0.34621   0.00000  Uiso   1.00
H163   H     0.60696   0.16869   0.39710   0.00000  Uiso   1.00
H164   H     0.58737   0.17416   0.34178   0.00000  Uiso   1.00
H165   H     0.54773   0.24538   0.36192   0.00000  Uiso   1.00
H166   H     0.57313   0.24874   0.41295   0.00000  Uiso   1.00
C167   C     0.56062   0.10597   0.11569   0.00000  Uiso   1.00
C168   C     0.59852   0.13459   0.12899   0.00000  Uiso   1.00
C169   C     0.63439   0.10240   0.14081   0.00000  Uiso   1.00
H170   H     0.62525   0.07687   0.16639   0.00000  Uiso   1.00
H171   H     0.64447   0.08294   0.11123   0.00000  Uiso   1.00
H172   H     0.66066   0.12325   0.15344   0.00000  Uiso   1.00
H173   H     0.60788   0.15755   0.10133   0.00000  Uiso   1.00
H174   H     0.59124   0.15713   0.15756   0.00000  Uiso   1.00
H175   H     0.54842   0.08672   0.14424   0.00000  Uiso   1.00
H176   H     0.57030   0.07793   0.09262   0.00000  Uiso   1.00
F177   F     0.37395   0.08218   0.24747   0.00000  Uiso   1.00
F178   F     0.62602   0.25118   0.24791   0.00000  Uiso   1.00
F179   F     0.62601   0.08216   0.25141   0.00000  Uiso   1.00
F180   F     0.37402   0.25115   0.25286   0.00000  Uiso   1.00
C181   C     0.75403   0.16667   0.25006   0.00000  Uiso   1.00
C182   C     0.91263   0.16667   0.24991   0.00000  Uiso   1.00
C183   C     0.83350   0.16653   0.16484   0.00000  Uiso   1.00
C184   C     0.83314   0.16653   0.33516   0.00000  Uiso   1.00
C185   C     0.80485   0.02484   0.22605   0.00000  Uiso   1.00
C186   C     0.86233   0.30871   0.27319   0.00000  Uiso   1.00
C187   C     0.86183   0.02484   0.27395   0.00000  Uiso   1.00
C188   C     0.80433   0.30871   0.22681   0.00000  Uiso   1.00
C189   C     0.68781   0.12413   0.24909   0.00000  Uiso   1.00
C190   C     0.97884   0.20922   0.24942   0.00000  Uiso   1.00
C191   C     0.97884   0.12413   0.25029   0.00000  Uiso   1.00
C192   C     0.68784   0.20921   0.25090   0.00000  Uiso   1.00
C193   C     0.80507   0.19109   0.04560   0.00000  Uiso   1.00
C194   C     0.80544   0.13603   0.45262   0.00000  Uiso   1.00
C195   C     0.86139   0.19110   0.45443   0.00000  Uiso   1.00
C196   C     0.86099   0.13600   0.04735   0.00000  Uiso   1.00
C197   C     0.80477   0.19302   0.09151   0.00000  Uiso   1.00
C198   C     0.80488   0.13632   0.40660   0.00000  Uiso   1.00
C199   C     0.86178   0.19300   0.40852   0.00000  Uiso   1.00
C200   C     0.86164   0.13633   0.09336   0.00000  Uiso   1.00
C201   C     0.83354   0.16568   0.11623   0.00000  Uiso   1.00
C202   C     0.83303   0.16566   0.38377   0.00000  Uiso   1.00
C203   C     0.83298   0.16306   0.02390   0.00000  Uiso   1.00
C204   C     0.83343   0.16309   0.47610   0.00000  Uiso   1.00
C205   C     0.95725   0.16667   0.24987   0.00000  Uiso   1.00
C206   C     0.70941   0.16667   0.25003   0.00000  Uiso   1.00
Cu207  Cu    0.83333   0.21355   0.25000   0.00000  Uiso   1.00
Cu208  Cu    0.83333   0.11978   0.25000   0.00000  Uiso   1.00
H209   H     0.78332   0.21152   0.02632   0.00000  Uiso   1.00
H210   H     0.78373   0.11479   0.47054   0.00000  Uiso   1.00
H211   H     0.88313   0.21150   0.47374   0.00000  Uiso   1.00
H212   H     0.88267   0.11476   0.02940   0.00000  Uiso   1.00
N213   N     0.83333   0.28402   0.25000   0.00000  Uiso   1.00
N214   N     0.83333   0.04931   0.25000   0.00000  Uiso   1.00
O215   O     0.77321   0.20625   0.24999   0.00000  Uiso   1.00
O216   O     0.89345   0.12709   0.25001   0.00000  Uiso   1.00
O217   O     0.89345   0.20625   0.25001   0.00000  Uiso   1.00
O218   O     0.77321   0.12709   0.24999   0.00000  Uiso   1.00
O219   O     0.83333   0.20626   0.18573   0.00000  Uiso   1.00
O220   O     0.83334   0.12707   0.31427   0.00000  Uiso   1.00
O221   O     0.83334   0.20626   0.31427   0.00000  Uiso   1.00
O222   O     0.83333   0.12707   0.18573   0.00000  Uiso   1.00
F223   F     0.77675   0.04800   0.20109   0.00000  Uiso   1.00
F224   F     0.89225   0.28593   0.29557   0.00000  Uiso   1.00
F225   F     0.88994   0.04799   0.29888   0.00000  Uiso   1.00
F226   F     0.77439   0.28594   0.20448   0.00000  Uiso   1.00
C227   C     0.77219   0.22350   0.11191   0.00000  Uiso   1.00
C228   C     0.73620   0.19428   0.12869   0.00000  Uiso   1.00
C229   C     0.69985   0.22551   0.14009   0.00000  Uiso   1.00
H230   H     0.70913   0.25237   0.16458   0.00000  Uiso   1.00
H231   H     0.68789   0.24328   0.11007   0.00000  Uiso   1.00
H232   H     0.67483   0.20413   0.15407   0.00000  Uiso   1.00
H233   H     0.72611   0.16902   0.10292   0.00000  Uiso   1.00
H234   H     0.74590   0.17413   0.15821   0.00000  Uiso   1.00
H235   H     0.78562   0.24543   0.13813   0.00000  Uiso   1.00
H236   H     0.76018   0.24887   0.08713   0.00000  Uiso   1.00
C237   C     0.77265   0.10589   0.38423   0.00000  Uiso   1.00
C238   C     0.73474   0.13441   0.37083   0.00000  Uiso   1.00
C239   C     0.69912   0.10211   0.35841   0.00000  Uiso   1.00
H240   H     0.70855   0.07703   0.33257   0.00000  Uiso   1.00
H241   H     0.68900   0.08213   0.38768   0.00000  Uiso   1.00
H242   H     0.67280   0.12294   0.34588   0.00000  Uiso   1.00
H243   H     0.72507   0.15702   0.39861   0.00000  Uiso   1.00
H244   H     0.74213   0.15730   0.34253   0.00000  Uiso   1.00
H245   H     0.78494   0.08666   0.35572   0.00000  Uiso   1.00
H246   H     0.76296   0.07784   0.40729   0.00000  Uiso   1.00
C247   C     0.89443   0.22341   0.38816   0.00000  Uiso   1.00
C248   C     0.93038   0.19412   0.37141   0.00000  Uiso   1.00
C249   C     0.96686   0.22524   0.36027   0.00000  Uiso   1.00
H250   H     0.95774   0.25233   0.33593   0.00000  Uiso   1.00
H251   H     0.97884   0.24272   0.39042   0.00000  Uiso   1.00
H252   H     0.99181   0.20383   0.34621   0.00000  Uiso   1.00
H253   H     0.94030   0.16869   0.39710   0.00000  Uiso   1.00
H254   H     0.92070   0.17416   0.34178   0.00000  Uiso   1.00
H255   H     0.88107   0.24538   0.36192   0.00000  Uiso   1.00
H256   H     0.90646   0.24874   0.41295   0.00000  Uiso   1.00
C257   C     0.89395   0.10597   0.11569   0.00000  Uiso   1.00
C258   C     0.93185   0.13459   0.12899   0.00000  Uiso   1.00
C259   C     0.96772   0.10240   0.14081   0.00000  Uiso   1.00
H260   H     0.95859   0.07687   0.16639   0.00000  Uiso   1.00
H261   H     0.97780   0.08294   0.11123   0.00000  Uiso   1.00
H262   H     0.99399   0.12325   0.15344   0.00000  Uiso   1.00
H263   H     0.94121   0.15755   0.10133   0.00000  Uiso   1.00
H264   H     0.92457   0.15713   0.15756   0.00000  Uiso   1.00
H265   H     0.88175   0.08672   0.14424   0.00000  Uiso   1.00
H266   H     0.90364   0.07793   0.09262   0.00000  Uiso   1.00
F267   F     0.70729   0.08218   0.24747   0.00000  Uiso   1.00
F268   F     0.95935   0.25118   0.24791   0.00000  Uiso   1.00
F269   F     0.95935   0.08216   0.25141   0.00000  Uiso   1.00
F270   F     0.70735   0.25115   0.25286   0.00000  Uiso   1.00
C271   C     0.08737   0.50000   0.25006   0.00000  Uiso   1.00
C272   C     0.24597   0.50000   0.24991   0.00000  Uiso   1.00
C273   C     0.16684   0.49987   0.16484   0.00000  Uiso   1.00
C274   C     0.16647   0.49986   0.33516   0.00000  Uiso   1.00
C275   C     0.13818   0.35817   0.22605   0.00000  Uiso   1.00
C276   C     0.19567   0.64204   0.27319   0.00000  Uiso   1.00
C277   C     0.19516   0.35817   0.27395   0.00000  Uiso   1.00
C278   C     0.13766   0.64204   0.22681   0.00000  Uiso   1.00
C279   C     0.02114   0.45747   0.24909   0.00000  Uiso   1.00
C280   C     0.31218   0.54255   0.24942   0.00000  Uiso   1.00
C281   C     0.31217   0.45746   0.25029   0.00000  Uiso   1.00
C282   C     0.02117   0.54254   0.25090   0.00000  Uiso   1.00
C283   C     0.13841   0.52443   0.04560   0.00000  Uiso   1.00
C284   C     0.13878   0.46936   0.45262   0.00000  Uiso   1.00
C285   C     0.19472   0.52443   0.45443   0.00000  Uiso   1.00
C286   C     0.19432   0.46933   0.04735   0.00000  Uiso   1.00
C287   C     0.13810   0.52635   0.09151   0.00000  Uiso   1.00
C288   C     0.13821   0.46966   0.40660   0.00000  Uiso   1.00
C289   C     0.19511   0.52633   0.40852   0.00000  Uiso   1.00
C290   C     0.19498   0.46966   0.09336   0.00000  Uiso   1.00
C291   C     0.16687   0.49901   0.11623   0.00000  Uiso   1.00
C292   C     0.16637   0.49899   0.38377   0.00000  Uiso   1.00
C293   C     0.16631   0.49640   0.02390   0.00000  Uiso   1.00
C294   C     0.16676   0.49643   0.47610   0.00000  Uiso   1.00
C295   C     0.29059   0.50001   0.24987   0.00000  Uiso   1.00
C296   C     0.04275   0.50000   0.25003   0.00000  Uiso   1.00
Cu297  Cu    0.16667   0.54689   0.25000   0.00000  Uiso   1.00
Cu298  Cu    0.16667   0.45311   0.25000   0.00000  Uiso   1.00
H299   H     0.11666   0.54485   0.02632   0.00000  Uiso   1.00
H300   H     0.11706   0.44813   0.47054   0.00000  Uiso   1.00
H301   H     0.21646   0.54483   0.47374   0.00000  Uiso   1.00
H302   H     0.21601   0.44809   0.02940   0.00000  Uiso   1.00
N303   N     0.16667   0.61736   0.25000   0.00000  Uiso   1.00
N304   N     0.16667   0.38264   0.25000   0.00000  Uiso   1.00
O305   O     0.10655   0.53958   0.24999   0.00000  Uiso   1.00
O306   O     0.22679   0.46042   0.25001   0.00000  Uiso   1.00
O307   O     0.22679   0.53958   0.25001   0.00000  Uiso   1.00
O308   O     0.10655   0.46042   0.24999   0.00000  Uiso   1.00
O309   O     0.16666   0.53959   0.18573   0.00000  Uiso   1.00
O310   O     0.16667   0.46041   0.31427   0.00000  Uiso   1.00
O311   O     0.16667   0.53959   0.31427   0.00000  Uiso   1.00
O312   O     0.16666   0.46041   0.18573   0.00000  Uiso   1.00
F313   F     0.11008   0.38133   0.20109   0.00000  Uiso   1.00
F314   F     0.22558   0.61926   0.29557   0.00000  Uiso   1.00
F315   F     0.22328   0.38132   0.29888   0.00000  Uiso   1.00
F316   F     0.10772   0.61927   0.20448   0.00000  Uiso   1.00
C317   C     0.10553   0.55683   0.11191   0.00000  Uiso   1.00
C318   C     0.06953   0.52762   0.12869   0.00000  Uiso   1.00
C319   C     0.03318   0.55884   0.14009   0.00000  Uiso   1.00
H320   H     0.04246   0.58570   0.16458   0.00000  Uiso   1.00
H321   H     0.02122   0.57662   0.11007   0.00000  Uiso   1.00
H322   H     0.00817   0.53747   0.15407   0.00000  Uiso   1.00
H323   H     0.05945   0.50235   0.10292   0.00000  Uiso   1.00
H324   H     0.07923   0.50746   0.15821   0.00000  Uiso   1.00
H325   H     0.11895   0.57876   0.13813   0.00000  Uiso   1.00
H326   H     0.09352   0.58220   0.08713   0.00000  Uiso   1.00
C327   C     0.10599   0.43922   0.38423   0.00000  Uiso   1.00
C328   C     0.06807   0.46775   0.37083   0.00000  Uiso   1.00
C329   C     0.03245   0.43544   0.35841   0.00000  Uiso   1.00
H330   H     0.04188   0.41036   0.33257   0.00000  Uiso   1.00
H331   H     0.02233   0.41546   0.38768   0.00000  Uiso   1.00
H332   H     0.00613   0.45628   0.34588   0.00000  Uiso   1.00
H333   H     0.05840   0.49035   0.39861   0.00000  Uiso   1.00
H334   H     0.07547   0.49063   0.34253   0.00000  Uiso   1.00
H335   H     0.11828   0.41999   0.35572   0.00000  Uiso   1.00
H336   H     0.09629   0.41117   0.40729   0.00000  Uiso   1.00
C337   C     0.22776   0.55675   0.38816   0.00000  Uiso   1.00
C338   C     0.26371   0.52746   0.37141   0.00000  Uiso   1.00
C339   C     0.30020   0.55858   0.36027   0.00000  Uiso   1.00
H340   H     0.29107   0.58567   0.33593   0.00000  Uiso   1.00
H341   H     0.31218   0.57606   0.39042   0.00000  Uiso   1.00
H342   H     0.32514   0.53717   0.34621   0.00000  Uiso   1.00
H343   H     0.27363   0.50202   0.39710   0.00000  Uiso   1.00
H344   H     0.25403   0.50749   0.34178   0.00000  Uiso   1.00
H345   H     0.21440   0.57871   0.36192   0.00000  Uiso   1.00
H346   H     0.23979   0.58208   0.41295   0.00000  Uiso   1.00
C347   C     0.22729   0.43930   0.11569   0.00000  Uiso   1.00
C348   C     0.26519   0.46792   0.12899   0.00000  Uiso   1.00
C349   C     0.30106   0.43573   0.14081   0.00000  Uiso   1.00
H350   H     0.29192   0.41020   0.16639   0.00000  Uiso   1.00
H351   H     0.31113   0.41627   0.11123   0.00000  Uiso   1.00
H352   H     0.32732   0.45658   0.15344   0.00000  Uiso   1.00
H353   H     0.27455   0.49088   0.10133   0.00000  Uiso   1.00
H354   H     0.25791   0.49046   0.15756   0.00000  Uiso   1.00
H355   H     0.21508   0.42005   0.14424   0.00000  Uiso   1.00
H356   H     0.23697   0.41127   0.09262   0.00000  Uiso   1.00
F357   F     0.04062   0.41551   0.24747   0.00000  Uiso   1.00
F358   F     0.29269   0.58451   0.24791   0.00000  Uiso   1.00
F359   F     0.29268   0.41549   0.25141   0.00000  Uiso   1.00
F360   F     0.04068   0.58448   0.25286   0.00000  Uiso   1.00
C361   C     0.42070   0.50000   0.25006   0.00000  Uiso   1.00
C362   C     0.57930   0.50000   0.24991   0.00000  Uiso   1.00
C363   C     0.50017   0.49987   0.16484   0.00000  Uiso   1.00
C364   C     0.49981   0.49986   0.33516   0.00000  Uiso   1.00
C365   C     0.47151   0.35817   0.22605   0.00000  Uiso   1.00
C366   C     0.52900   0.64204   0.27319   0.00000  Uiso   1.00
C367   C     0.52849   0.35817   0.27395   0.00000  Uiso   1.00
C368   C     0.47100   0.64204   0.22681   0.00000  Uiso   1.00
C369   C     0.35448   0.45747   0.24909   0.00000  Uiso   1.00
C370   C     0.64551   0.54255   0.24942   0.00000  Uiso   1.00
C371   C     0.64551   0.45746   0.25029   0.00000  Uiso   1.00
C372   C     0.35451   0.54254   0.25090   0.00000  Uiso   1.00
C373   C     0.47174   0.52443   0.04560   0.00000  Uiso   1.00
C374   C     0.47211   0.46936   0.45262   0.00000  Uiso   1.00
C375   C     0.52806   0.52443   0.45443   0.00000  Uiso   1.00
C376   C     0.52765   0.46933   0.04735   0.00000  Uiso   1.00
C377   C     0.47143   0.52635   0.09151   0.00000  Uiso   1.00
C378   C     0.47155   0.46966   0.40660   0.00000  Uiso   1.00
C379   C     0.52844   0.52633   0.40852   0.00000  Uiso   1.00
C380   C     0.52831   0.46966   0.09336   0.00000  Uiso   1.00
C381   C     0.50021   0.49901   0.11623   0.00000  Uiso   1.00
C382   C     0.49970   0.49899   0.38377   0.00000  Uiso   1.00
C383   C     0.49964   0.49640   0.02390   0.00000  Uiso   1.00
C384   C     0.50010   0.49643   0.47610   0.00000  Uiso   1.00
C385   C     0.62392   0.50001   0.24987   0.00000  Uiso   1.00
C386   C     0.37608   0.50000   0.25003   0.00000  Uiso   1.00
Cu387  Cu    0.50000   0.54689   0.25000   0.00000  Uiso   1.00
Cu388  Cu    0.50000   0.45311   0.25000   0.00000  Uiso   1.00
H389   H     0.44999   0.54485   0.02632   0.00000  Uiso   1.00
H390   H     0.45040   0.44813   0.47054   0.00000  Uiso   1.00
H391   H     0.54980   0.54483   0.47374   0.00000  Uiso   1.00
H392   H     0.54934   0.44809   0.02940   0.00000  Uiso   1.00
N393   N     0.50000   0.61736   0.25000   0.00000  Uiso   1.00
N394   N     0.50000   0.38264   0.25000   0.00000  Uiso   1.00
O395   O     0.43988   0.53958   0.24999   0.00000  Uiso   1.00
O396   O     0.56012   0.46042   0.25001   0.00000  Uiso   1.00
O397   O     0.56012   0.53958   0.25001   0.00000  Uiso   1.00
O398   O     0.43988   0.46042   0.24999   0.00000  Uiso   1.00
O399   O     0.50000   0.53959   0.18573   0.00000  Uiso   1.00
O400   O     0.50000   0.46041   0.31427   0.00000  Uiso   1.00
O401   O     0.50000   0.53959   0.31427   0.00000  Uiso   1.00
O402   O     0.50000   0.46041   0.18573   0.00000  Uiso   1.00
F403   F     0.44342   0.38133   0.20109   0.00000  Uiso   1.00
F404   F     0.55892   0.61926   0.29557   0.00000  Uiso   1.00
F405   F     0.55661   0.38132   0.29888   0.00000  Uiso   1.00
F406   F     0.44106   0.61927   0.20448   0.00000  Uiso   1.00
C407   C     0.43886   0.55683   0.11191   0.00000  Uiso   1.00
C408   C     0.40287   0.52762   0.12869   0.00000  Uiso   1.00
C409   C     0.36652   0.55884   0.14009   0.00000  Uiso   1.00
H410   H     0.37579   0.58570   0.16458   0.00000  Uiso   1.00
H411   H     0.35456   0.57662   0.11007   0.00000  Uiso   1.00
H412   H     0.34150   0.53747   0.15407   0.00000  Uiso   1.00
H413   H     0.39278   0.50235   0.10292   0.00000  Uiso   1.00
H414   H     0.41257   0.50746   0.15821   0.00000  Uiso   1.00
H415   H     0.45229   0.57876   0.13813   0.00000  Uiso   1.00
H416   H     0.42685   0.58220   0.08713   0.00000  Uiso   1.00
C417   C     0.43932   0.43922   0.38423   0.00000  Uiso   1.00
C418   C     0.40141   0.46775   0.37083   0.00000  Uiso   1.00
C419   C     0.36578   0.43544   0.35841   0.00000  Uiso   1.00
H420   H     0.37521   0.41036   0.33257   0.00000  Uiso   1.00
H421   H     0.35566   0.41546   0.38768   0.00000  Uiso   1.00
H422   H     0.33946   0.45628   0.34588   0.00000  Uiso   1.00
H423   H     0.39174   0.49035   0.39861   0.00000  Uiso   1.00
H424   H     0.40880   0.49063   0.34253   0.00000  Uiso   1.00
H425   H     0.45161   0.41999   0.35572   0.00000  Uiso   1.00
H426   H     0.42963   0.41117   0.40729   0.00000  Uiso   1.00
C427   C     0.56109   0.55675   0.38816   0.00000  Uiso   1.00
C428   C     0.59704   0.52746   0.37141   0.00000  Uiso   1.00
C429   C     0.63353   0.55858   0.36027   0.00000  Uiso   1.00
H430   H     0.62440   0.58567   0.33593   0.00000  Uiso   1.00
H431   H     0.64551   0.57606   0.39042   0.00000  Uiso   1.00
H432   H     0.65848   0.53717   0.34621   0.00000  Uiso   1.00
H433   H     0.60696   0.50202   0.39710   0.00000  Uiso   1.00
H434   H     0.58737   0.50749   0.34178   0.00000  Uiso   1.00
H435   H     0.54773   0.57871   0.36192   0.00000  Uiso   1.00
H436   H     0.57313   0.58208   0.41295   0.00000  Uiso   1.00
C437   C     0.56062   0.43930   0.11569   0.00000  Uiso   1.00
C438   C     0.59852   0.46792   0.12899   0.00000  Uiso   1.00
C439   C     0.63439   0.43573   0.14081   0.00000  Uiso   1.00
H440   H     0.62525   0.41020   0.16639   0.00000  Uiso   1.00
H441   H     0.64447   0.41627   0.11123   0.00000  Uiso   1.00
H442   H     0.66066   0.45658   0.15344   0.00000  Uiso   1.00
H443   H     0.60788   0.49088   0.10133   0.00000  Uiso   1.00
H444   H     0.59124   0.49046   0.15756   0.00000  Uiso   1.00
H445   H     0.54842   0.42005   0.14424   0.00000  Uiso   1.00
H446   H     0.57030   0.41127   0.09262   0.00000  Uiso   1.00
F447   F     0.37395   0.41551   0.24747   0.00000  Uiso   1.00
F448   F     0.62602   0.58451   0.24791   0.00000  Uiso   1.00
F449   F     0.62601   0.41549   0.25141   0.00000  Uiso   1.00
F450   F     0.37402   0.58448   0.25286   0.00000  Uiso   1.00
C451   C     0.75403   0.50000   0.25006   0.00000  Uiso   1.00
C452   C     0.91263   0.50000   0.24991   0.00000  Uiso   1.00
C453   C     0.83350   0.49987   0.16484   0.00000  Uiso   1.00
C454   C     0.83314   0.49986   0.33516   0.00000  Uiso   1.00
C455   C     0.80485   0.35817   0.22605   0.00000  Uiso   1.00
C456   C     0.86233   0.64204   0.27319   0.00000  Uiso   1.00
C457   C     0.86183   0.35817   0.27395   0.00000  Uiso   1.00
C458   C     0.80433   0.64204   0.22681   0.00000  Uiso   1.00
C459   C     0.68781   0.45747   0.24909   0.00000  Uiso   1.00
C460   C     0.97884   0.54255   0.24942   0.00000  Uiso   1.00
C461   C     0.97884   0.45746   0.25029   0.00000  Uiso   1.00
C462   C     0.68784   0.54254   0.25090   0.00000  Uiso   1.00
C463   C     0.80507   0.52443   0.04560   0.00000  Uiso   1.00
C464   C     0.80544   0.46936   0.45262   0.00000  Uiso   1.00
C465   C     0.86139   0.52443   0.45443   0.00000  Uiso   1.00
C466   C     0.86099   0.46933   0.04735   0.00000  Uiso   1.00
C467   C     0.80477   0.52635   0.09151   0.00000  Uiso   1.00
C468   C     0.80488   0.46966   0.40660   0.00000  Uiso   1.00
C469   C     0.86178   0.52633   0.40852   0.00000  Uiso   1.00
C470   C     0.86164   0.46966   0.09336   0.00000  Uiso   1.00
C471   C     0.83354   0.49901   0.11623   0.00000  Uiso   1.00
C472   C     0.83303   0.49899   0.38377   0.00000  Uiso   1.00
C473   C     0.83298   0.49640   0.02390   0.00000  Uiso   1.00
C474   C     0.83343   0.49643   0.47610   0.00000  Uiso   1.00
C475   C     0.95725   0.50001   0.24987   0.00000  Uiso   1.00
C476   C     0.70941   0.50000   0.25003   0.00000  Uiso   1.00
Cu477  Cu    0.83333   0.54689   0.25000   0.00000  Uiso   1.00
Cu478  Cu    0.83333   0.45311   0.25000   0.00000  Uiso   1.00
H479   H     0.78332   0.54485   0.02632   0.00000  Uiso   1.00
H480   H     0.78373   0.44813   0.47054   0.00000  Uiso   1.00
H481   H     0.88313   0.54483   0.47374   0.00000  Uiso   1.00
H482   H     0.88267   0.44809   0.02940   0.00000  Uiso   1.00
N483   N     0.83333   0.61736   0.25000   0.00000  Uiso   1.00
N484   N     0.83333   0.38264   0.25000   0.00000  Uiso   1.00
O485   O     0.77321   0.53958   0.24999   0.00000  Uiso   1.00
O486   O     0.89345   0.46042   0.25001   0.00000  Uiso   1.00
O487   O     0.89345   0.53958   0.25001   0.00000  Uiso   1.00
O488   O     0.77321   0.46042   0.24999   0.00000  Uiso   1.00
O489   O     0.83333   0.53959   0.18573   0.00000  Uiso   1.00
O490   O     0.83334   0.46041   0.31427   0.00000  Uiso   1.00
O491   O     0.83334   0.53959   0.31427   0.00000  Uiso   1.00
O492   O     0.83333   0.46041   0.18573   0.00000  Uiso   1.00
F493   F     0.77675   0.38133   0.20109   0.00000  Uiso   1.00
F494   F     0.89225   0.61926   0.29557   0.00000  Uiso   1.00
F495   F     0.88994   0.38132   0.29888   0.00000  Uiso   1.00
F496   F     0.77439   0.61927   0.20448   0.00000  Uiso   1.00
C497   C     0.77219   0.55683   0.11191   0.00000  Uiso   1.00
C498   C     0.73620   0.52762   0.12869   0.00000  Uiso   1.00
C499   C     0.69985   0.55884   0.14009   0.00000  Uiso   1.00
H500   H     0.70913   0.58570   0.16458   0.00000  Uiso   1.00
H501   H     0.68789   0.57662   0.11007   0.00000  Uiso   1.00
H502   H     0.67483   0.53747   0.15407   0.00000  Uiso   1.00
H503   H     0.72611   0.50235   0.10292   0.00000  Uiso   1.00
H504   H     0.74590   0.50746   0.15821   0.00000  Uiso   1.00
H505   H     0.78562   0.57876   0.13813   0.00000  Uiso   1.00
H506   H     0.76018   0.58220   0.08713   0.00000  Uiso   1.00
C507   C     0.77265   0.43922   0.38423   0.00000  Uiso   1.00
C508   C     0.73474   0.46775   0.37083   0.00000  Uiso   1.00
C509   C     0.69912   0.43544   0.35841   0.00000  Uiso   1.00
H510   H     0.70855   0.41036   0.33257   0.00000  Uiso   1.00
H511   H     0.68900   0.41546   0.38768   0.00000  Uiso   1.00
H512   H     0.67280   0.45628   0.34588   0.00000  Uiso   1.00
H513   H     0.72507   0.49035   0.39861   0.00000  Uiso   1.00
H514   H     0.74213   0.49063   0.34253   0.00000  Uiso   1.00
H515   H     0.78494   0.41999   0.35572   0.00000  Uiso   1.00
H516   H     0.76296   0.41117   0.40729   0.00000  Uiso   1.00
C517   C     0.89443   0.55675   0.38816   0.00000  Uiso   1.00
C518   C     0.93038   0.52746   0.37141   0.00000  Uiso   1.00
C519   C     0.96686   0.55858   0.36027   0.00000  Uiso   1.00
H520   H     0.95774   0.58567   0.33593   0.00000  Uiso   1.00
H521   H     0.97884   0.57606   0.39042   0.00000  Uiso   1.00
H522   H     0.99181   0.53717   0.34621   0.00000  Uiso   1.00
H523   H     0.94030   0.50202   0.39710   0.00000  Uiso   1.00
H524   H     0.92070   0.50749   0.34178   0.00000  Uiso   1.00
H525   H     0.88107   0.57871   0.36192   0.00000  Uiso   1.00
H526   H     0.90646   0.58208   0.41295   0.00000  Uiso   1.00
C527   C     0.89395   0.43930   0.11569   0.00000  Uiso   1.00
C528   C     0.93185   0.46792   0.12899   0.00000  Uiso   1.00
C529   C     0.96772   0.43573   0.14081   0.00000  Uiso   1.00
H530   H     0.95859   0.41020   0.16639   0.00000  Uiso   1.00
H531   H     0.97780   0.41627   0.11123   0.00000  Uiso   1.00
H532   H     0.99399   0.45658   0.15344   0.00000  Uiso   1.00
H533   H     0.94121   0.49088   0.10133   0.00000  Uiso   1.00
H534   H     0.92457   0.49046   0.15756   0.00000  Uiso   1.00
H535   H     0.88175   0.42005   0.14424   0.00000  Uiso   1.00
H536   H     0.90364   0.41127   0.09262   0.00000  Uiso   1.00
F537   F     0.70729   0.41551   0.24747   0.00000  Uiso   1.00
F538   F     0.95935   0.58451   0.24791   0.00000  Uiso   1.00
F539   F     0.95935   0.41549   0.25141   0.00000  Uiso   1.00
F540   F     0.70735   0.58448   0.25286   0.00000  Uiso   1.00
C541   C     0.08737   0.83333   0.25006   0.00000  Uiso   1.00
C542   C     0.24597   0.83334   0.24991   0.00000  Uiso   1.00
C543   C     0.16684   0.83320   0.16484   0.00000  Uiso   1.00
C544   C     0.16647   0.83319   0.33516   0.00000  Uiso   1.00
C545   C     0.13818   0.69151   0.22605   0.00000  Uiso   1.00
C546   C     0.19567   0.97537   0.27319   0.00000  Uiso   1.00
C547   C     0.19516   0.69150   0.27395   0.00000  Uiso   1.00
C548   C     0.13766   0.97538   0.22681   0.00000  Uiso   1.00
C549   C     0.02114   0.79080   0.24909   0.00000  Uiso   1.00
C550   C     0.31218   0.87589   0.24942   0.00000  Uiso   1.00
C551   C     0.31217   0.79079   0.25029   0.00000  Uiso   1.00
C552   C     0.02117   0.87588   0.25090   0.00000  Uiso   1.00
C553   C     0.13841   0.85776   0.04560   0.00000  Uiso   1.00
C554   C     0.13878   0.80270   0.45262   0.00000  Uiso   1.00
C555   C     0.19472   0.85776   0.45443   0.00000  Uiso   1.00
C556   C     0.19432   0.80266   0.04735   0.00000  Uiso   1.00
C557   C     0.13810   0.85968   0.09151   0.00000  Uiso   1.00
C558   C     0.13821   0.80299   0.40660   0.00000  Uiso   1.00
C559   C     0.19511   0.85966   0.40852   0.00000  Uiso   1.00
C560   C     0.19498   0.80299   0.09336   0.00000  Uiso   1.00
C561   C     0.16687   0.83234   0.11623   0.00000  Uiso   1.00
C562   C     0.16637   0.83232   0.38377   0.00000  Uiso   1.00
C563   C     0.16631   0.82973   0.02390   0.00000  Uiso   1.00
C564   C     0.16676   0.82976   0.47610   0.00000  Uiso   1.00
C565   C     0.29059   0.83334   0.24987   0.00000  Uiso   1.00
C566   C     0.04275   0.83334   0.25003   0.00000  Uiso   1.00
Cu567  Cu    0.16667   0.88022   0.25000   0.00000  Uiso   1.00
Cu568  Cu    0.16667   0.78645   0.25000   0.00000  Uiso   1.00
H569   H     0.11666   0.87818   0.02632   0.00000  Uiso   1.00
H570   H     0.11706   0.78146   0.47054   0.00000  Uiso   1.00
H571   H     0.21646   0.87816   0.47374   0.00000  Uiso   1.00
H572   H     0.21601   0.78142   0.02940   0.00000  Uiso   1.00
N573   N     0.16667   0.95069   0.25000   0.00000  Uiso   1.00
N574   N     0.16667   0.71598   0.25000   0.00000  Uiso   1.00
O575   O     0.10655   0.87291   0.24999   0.00000  Uiso   1.00
O576   O     0.22679   0.79375   0.25001   0.00000  Uiso   1.00
O577   O     0.22679   0.87291   0.25001   0.00000  Uiso   1.00
O578   O     0.10655   0.79375   0.24999   0.00000  Uiso   1.00
O579   O     0.16666   0.87293   0.18573   0.00000  Uiso   1.00
O580   O     0.16667   0.79374   0.31427   0.00000  Uiso   1.00
O581   O     0.16667   0.87293   0.31427   0.00000  Uiso   1.00
O582   O     0.16666   0.79374   0.18573   0.00000  Uiso   1.00
F583   F     0.11008   0.71466   0.20109   0.00000  Uiso   1.00
F584   F     0.22558   0.95260   0.29557   0.00000  Uiso   1.00
F585   F     0.22328   0.71466   0.29888   0.00000  Uiso   1.00
F586   F     0.10772   0.95260   0.20448   0.00000  Uiso   1.00
C587   C     0.10553   0.89017   0.11191   0.00000  Uiso   1.00
C588   C     0.06953   0.86095   0.12869   0.00000  Uiso   1.00
C589   C     0.03318   0.89218   0.14009   0.00000  Uiso   1.00
H590   H     0.04246   0.91903   0.16458   0.00000  Uiso   1.00
H591   H     0.02122   0.90995   0.11007   0.00000  Uiso   1.00
H592   H     0.00817   0.87080   0.15407   0.00000  Uiso   1.00
H593   H     0.05945   0.83569   0.10292   0.00000  Uiso   1.00
H594   H     0.07923   0.84080   0.15821   0.00000  Uiso   1.00
H595   H     0.11895   0.91210   0.13813   0.00000  Uiso   1.00
H596   H     0.09352   0.91553   0.08713   0.00000  Uiso   1.00
C597   C     0.10599   0.77255   0.38423   0.00000  Uiso   1.00
C598   C     0.06807   0.80108   0.37083   0.00000  Uiso   1.00
C599   C     0.03245   0.76878   0.35841   0.00000  Uiso   1.00
H600   H     0.04188   0.74370   0.33257   0.00000  Uiso   1.00
H601   H     0.02233   0.74879   0.38768   0.00000  Uiso   1.00
H602   H     0.00613   0.78961   0.34588   0.00000  Uiso   1.00
H603   H     0.05840   0.82368   0.39861   0.00000  Uiso   1.00
H604   H     0.07547   0.82396   0.34253   0.00000  Uiso   1.00
H605   H     0.11828   0.75332   0.35572   0.00000  Uiso   1.00
H606   H     0.09629   0.74451   0.40729   0.00000  Uiso   1.00
C607   C     0.22776   0.89008   0.38816   0.00000  Uiso   1.00
C608   C     0.26371   0.86079   0.37141   0.00000  Uiso   1.00
C609   C     0.30020   0.89191   0.36027   0.00000  Uiso   1.00
H610   H     0.29107   0.91900   0.33593   0.00000  Uiso   1.00
H611   H     0.31218   0.90939   0.39042   0.00000  Uiso   1.00
H612   H     0.32514   0.87050   0.34621   0.00000  Uiso   1.00
H613   H     0.27363   0.83536   0.39710   0.00000  Uiso   1.00
H614   H     0.25403   0.84082   0.34178   0.00000  Uiso   1.00
H615   H     0.21440   0.91204   0.36192   0.00000  Uiso   1.00
H616   H     0.23979   0.91541   0.41295   0.00000  Uiso   1.00
C617   C     0.22729   0.77263   0.11569   0.00000  Uiso   1.00
C618   C     0.26519   0.80126   0.12899   0.00000  Uiso   1.00
C619   C     0.30106   0.76906   0.14081   0.00000  Uiso   1.00
H620   H     0.29192   0.74353   0.16639   0.00000  Uiso   1.00
H621   H     0.31113   0.74961   0.11123   0.00000  Uiso   1.00
H622   H     0.32732   0.78992   0.15344   0.00000  Uiso   1.00
H623   H     0.27455   0.82421   0.10133   0.00000  Uiso   1.00
H624   H     0.25791   0.82380   0.15756   0.00000  Uiso   1.00
H625   H     0.21508   0.75338   0.14424   0.00000  Uiso   1.00
H626   H     0.23697   0.74460   0.09262   0.00000  Uiso   1.00
F627   F     0.04062   0.74885   0.24747   0.00000  Uiso   1.00
F628   F     0.29269   0.91785   0.24791   0.00000  Uiso   1.00
F629   F     0.29268   0.74882   0.25141   0.00000  Uiso   1.00
F630   F     0.04068   0.91782   0.25286   0.00000  Uiso   1.00
C631   C     0.42070   0.83333   0.25006   0.00000  Uiso   1.00
C632   C     0.57930   0.83334   0.24991   0.00000  Uiso   1.00
C633   C     0.50017   0.83320   0.16484   0.00000  Uiso   1.00
C634   C     0.49981   0.83319   0.33516   0.00000  Uiso   1.00
C635   C     0.47151   0.69151   0.22605   0.00000  Uiso   1.00
C636   C     0.52900   0.97537   0.27319   0.00000  Uiso   1.00
C637   C     0.52849   0.69150   0.27395   0.00000  Uiso   1.00
C638   C     0.47100   0.97538   0.22681   0.00000  Uiso   1.00
C639   C     0.35448   0.79080   0.24909   0.00000  Uiso   1.00
C640   C     0.64551   0.87589   0.24942   0.00000  Uiso   1.00
C641   C     0.64551   0.79079   0.25029   0.00000  Uiso   1.00
C642   C     0.35451   0.87588   0.25090   0.00000  Uiso   1.00
C643   C     0.47174   0.85776   0.04560   0.00000  Uiso   1.00
C644   C     0.47211   0.80270   0.45262   0.00000  Uiso   1.00
C645   C     0.52806   0.85776   0.45443   0.00000  Uiso   1.00
C646   C     0.52765   0.80266   0.04735   0.00000  Uiso   1.00
C647   C     0.47143   0.85968   0.09151   0.00000  Uiso   1.00
C648   C     0.47155   0.80299   0.40660   0.00000  Uiso   1.00
C649   C     0.52844   0.85966   0.40852   0.00000  Uiso   1.00
C650   C     0.52831   0.80299   0.09336   0.00000  Uiso   1.00
C651   C     0.50021   0.83234   0.11623   0.00000  Uiso   1.00
C652   C     0.49970   0.83232   0.38377   0.00000  Uiso   1.00
C653   C     0.49964   0.82973   0.02390   0.00000  Uiso   1.00
C654   C     0.50010   0.82976   0.47610   0.00000  Uiso   1.00
C655   C     0.62392   0.83334   0.24987   0.00000  Uiso   1.00
C656   C     0.37608   0.83334   0.25003   0.00000  Uiso   1.00
Cu657  Cu    0.50000   0.88022   0.25000   0.00000  Uiso   1.00
Cu658  Cu    0.50000   0.78645   0.25000   0.00000  Uiso   1.00
H659   H     0.44999   0.87818   0.02632   0.00000  Uiso   1.00
H660   H     0.45040   0.78146   0.47054   0.00000  Uiso   1.00
H661   H     0.54980   0.87816   0.47374   0.00000  Uiso   1.00
H662   H     0.54934   0.78142   0.02940   0.00000  Uiso   1.00
N663   N     0.50000   0.95069   0.25000   0.00000  Uiso   1.00
N664   N     0.50000   0.71598   0.25000   0.00000  Uiso   1.00
O665   O     0.43988   0.87291   0.24999   0.00000  Uiso   1.00
O666   O     0.56012   0.79375   0.25001   0.00000  Uiso   1.00
O667   O     0.56012   0.87291   0.25001   0.00000  Uiso   1.00
O668   O     0.43988   0.79375   0.24999   0.00000  Uiso   1.00
O669   O     0.50000   0.87293   0.18573   0.00000  Uiso   1.00
O670   O     0.50000   0.79374   0.31427   0.00000  Uiso   1.00
O671   O     0.50000   0.87293   0.31427   0.00000  Uiso   1.00
O672   O     0.50000   0.79374   0.18573   0.00000  Uiso   1.00
F673   F     0.44342   0.71466   0.20109   0.00000  Uiso   1.00
F674   F     0.55892   0.95260   0.29557   0.00000  Uiso   1.00
F675   F     0.55661   0.71466   0.29888   0.00000  Uiso   1.00
F676   F     0.44106   0.95260   0.20448   0.00000  Uiso   1.00
C677   C     0.43886   0.89017   0.11191   0.00000  Uiso   1.00
C678   C     0.40287   0.86095   0.12869   0.00000  Uiso   1.00
C679   C     0.36652   0.89218   0.14009   0.00000  Uiso   1.00
H680   H     0.37579   0.91903   0.16458   0.00000  Uiso   1.00
H681   H     0.35456   0.90995   0.11007   0.00000  Uiso   1.00
H682   H     0.34150   0.87080   0.15407   0.00000  Uiso   1.00
H683   H     0.39278   0.83569   0.10292   0.00000  Uiso   1.00
H684   H     0.41257   0.84080   0.15821   0.00000  Uiso   1.00
H685   H     0.45229   0.91210   0.13813   0.00000  Uiso   1.00
H686   H     0.42685   0.91553   0.08713   0.00000  Uiso   1.00
C687   C     0.43932   0.77255   0.38423   0.00000  Uiso   1.00
C688   C     0.40141   0.80108   0.37083   0.00000  Uiso   1.00
C689   C     0.36578   0.76878   0.35841   0.00000  Uiso   1.00
H690   H     0.37521   0.74370   0.33257   0.00000  Uiso   1.00
H691   H     0.35566   0.74879   0.38768   0.00000  Uiso   1.00
H692   H     0.33946   0.78961   0.34588   0.00000  Uiso   1.00
H693   H     0.39174   0.82368   0.39861   0.00000  Uiso   1.00
H694   H     0.40880   0.82396   0.34253   0.00000  Uiso   1.00
H695   H     0.45161   0.75332   0.35572   0.00000  Uiso   1.00
H696   H     0.42963   0.74451   0.40729   0.00000  Uiso   1.00
C697   C     0.56109   0.89008   0.38816   0.00000  Uiso   1.00
C698   C     0.59704   0.86079   0.37141   0.00000  Uiso   1.00
C699   C     0.63353   0.89191   0.36027   0.00000  Uiso   1.00
H700   H     0.62440   0.91900   0.33593   0.00000  Uiso   1.00
H701   H     0.64551   0.90939   0.39042   0.00000  Uiso   1.00
H702   H     0.65848   0.87050   0.34621   0.00000  Uiso   1.00
H703   H     0.60696   0.83536   0.39710   0.00000  Uiso   1.00
H704   H     0.58737   0.84082   0.34178   0.00000  Uiso   1.00
H705   H     0.54773   0.91204   0.36192   0.00000  Uiso   1.00
H706   H     0.57313   0.91541   0.41295   0.00000  Uiso   1.00
C707   C     0.56062   0.77263   0.11569   0.00000  Uiso   1.00
C708   C     0.59852   0.80126   0.12899   0.00000  Uiso   1.00
C709   C     0.63439   0.76906   0.14081   0.00000  Uiso   1.00
H710   H     0.62525   0.74353   0.16639   0.00000  Uiso   1.00
H711   H     0.64447   0.74961   0.11123   0.00000  Uiso   1.00
H712   H     0.66066   0.78992   0.15344   0.00000  Uiso   1.00
H713   H     0.60788   0.82421   0.10133   0.00000  Uiso   1.00
H714   H     0.59124   0.82380   0.15756   0.00000  Uiso   1.00
H715   H     0.54842   0.75338   0.14424   0.00000  Uiso   1.00
H716   H     0.57030   0.74460   0.09262   0.00000  Uiso   1.00
F717   F     0.37395   0.74885   0.24747   0.00000  Uiso   1.00
F718   F     0.62602   0.91785   0.24791   0.00000  Uiso   1.00
F719   F     0.62601   0.74882   0.25141   0.00000  Uiso   1.00
F720   F     0.37402   0.91782   0.25286   0.00000  Uiso   1.00
C721   C     0.75403   0.83333   0.25006   0.00000  Uiso   1.00
C722   C     0.91263   0.83334   0.24991   0.00000  Uiso   1.00
C723   C     0.83350   0.83320   0.16484   0.00000  Uiso   1.00
C724   C     0.83314   0.83319   0.33516   0.00000  Uiso   1.00
C725   C     0.80485   0.69151   0.22605   0.00000  Uiso   1.00
C726   C     0.86233   0.97537   0.27319   0.00000  Uiso   1.00
C727   C     0.86183   0.69150   0.27395   0.00000  Uiso   1.00
C728   C     0.80433   0.97538   0.22681   0.00000  Uiso   1.00
C729   C     0.68781   0.79080   0.24909   0.00000  Uiso   1.00
C730   C     0.97884   0.87589   0.24942   0.00000  Uiso   1.00
C731   C     0.97884   0.79079   0.25029   0.00000  Uiso   1.00
C732   C     0.68784   0.87588   0.25090   0.00000  Uiso   1.00
C733   C     0.80507   0.85776   0.04560   0.00000  Uiso   1.00
C734   C     0.80544   0.80270   0.45262   0.00000  Uiso   1.00
C735   C     0.86139   0.85776   0.45443   0.00000  Uiso   1.00
C736   C     0.86099   0.80266   0.04735   0.00000  Uiso   1.00
C737   C     0.80477   0.85968   0.09151   0.00000  Uiso   1.00
C738   C     0.80488   0.80299   0.40660   0.00000  Uiso   1.00
C739   C     0.86178   0.85966   0.40852   0.00000  Uiso   1.00
C740   C     0.86164   0.80299   0.09336   0.00000  Uiso   1.00
C741   C     0.83354   0.83234   0.11623   0.00000  Uiso   1.00
C742   C     0.83303   0.83232   0.38377   0.00000  Uiso   1.00
C743   C     0.83298   0.82973   0.02390   0.00000  Uiso   1.00
C744   C     0.83343   0.82976   0.47610   0.00000  Uiso   1.00
C745   C     0.95725   0.83334   0.24987   0.00000  Uiso   1.00
C746   C     0.70941   0.83334   0.25003   0.00000  Uiso   1.00
Cu747  Cu    0.83333   0.88022   0.25000   0.00000  Uiso   1.00
Cu748  Cu    0.83333   0.78645   0.25000   0.00000  Uiso   1.00
H749   H     0.78332   0.87818   0.02632   0.00000  Uiso   1.00
H750   H     0.78373   0.78146   0.47054   0.00000  Uiso   1.00
H751   H     0.88313   0.87816   0.47374   0.00000  Uiso   1.00
H752   H     0.88267   0.78142   0.02940   0.00000  Uiso   1.00
N753   N     0.83333   0.95069   0.25000   0.00000  Uiso   1.00
N754   N     0.83333   0.71598   0.25000   0.00000  Uiso   1.00
O755   O     0.77321   0.87291   0.24999   0.00000  Uiso   1.00
O756   O     0.89345   0.79375   0.25001   0.00000  Uiso   1.00
O757   O     0.89345   0.87291   0.25001   0.00000  Uiso   1.00
O758   O     0.77321   0.79375   0.24999   0.00000  Uiso   1.00
O759   O     0.83333   0.87293   0.18573   0.00000  Uiso   1.00
O760   O     0.83334   0.79374   0.31427   0.00000  Uiso   1.00
O761   O     0.83334   0.87293   0.31427   0.00000  Uiso   1.00
O762   O     0.83333   0.79374   0.18573   0.00000  Uiso   1.00
F763   F     0.77675   0.71466   0.20109   0.00000  Uiso   1.00
F764   F     0.89225   0.95260   0.29557   0.00000  Uiso   1.00
F765   F     0.88994   0.71466   0.29888   0.00000  Uiso   1.00
F766   F     0.77439   0.95260   0.20448   0.00000  Uiso   1.00
C767   C     0.77219   0.89017   0.11191   0.00000  Uiso   1.00
C768   C     0.73620   0.86095   0.12869   0.00000  Uiso   1.00
C769   C     0.69985   0.89218   0.14009   0.00000  Uiso   1.00
H770   H     0.70913   0.91903   0.16458   0.00000  Uiso   1.00
H771   H     0.68789   0.90995   0.11007   0.00000  Uiso   1.00
H772   H     0.67483   0.87080   0.15407   0.00000  Uiso   1.00
H773   H     0.72611   0.83569   0.10292   0.00000  Uiso   1.00
H774   H     0.74590   0.84080   0.15821   0.00000  Uiso   1.00
H775   H     0.78562   0.91210   0.13813   0.00000  Uiso   1.00
H776   H     0.76018   0.91553   0.08713   0.00000  Uiso   1.00
C777   C     0.77265   0.77255   0.38423   0.00000  Uiso   1.00
C778   C     0.73474   0.80108   0.37083   0.00000  Uiso   1.00
C779   C     0.69912   0.76878   0.35841   0.00000  Uiso   1.00
H780   H     0.70855   0.74370   0.33257   0.00000  Uiso   1.00
H781   H     0.68900   0.74879   0.38768   0.00000  Uiso   1.00
H782   H     0.67280   0.78961   0.34588   0.00000  Uiso   1.00
H783   H     0.72507   0.82368   0.39861   0.00000  Uiso   1.00
H784   H     0.74213   0.82396   0.34253   0.00000  Uiso   1.00
H785   H     0.78494   0.75332   0.35572   0.00000  Uiso   1.00
H786   H     0.76296   0.74451   0.40729   0.00000  Uiso   1.00
C787   C     0.89443   0.89008   0.38816   0.00000  Uiso   1.00
C788   C     0.93038   0.86079   0.37141   0.00000  Uiso   1.00
C789   C     0.96686   0.89191   0.36027   0.00000  Uiso   1.00
H790   H     0.95774   0.91900   0.33593   0.00000  Uiso   1.00
H791   H     0.97884   0.90939   0.39042   0.00000  Uiso   1.00
H792   H     0.99181   0.87050   0.34621   0.00000  Uiso   1.00
H793   H     0.94030   0.83536   0.39710   0.00000  Uiso   1.00
H794   H     0.92070   0.84082   0.34178   0.00000  Uiso   1.00
H795   H     0.88107   0.91204   0.36192   0.00000  Uiso   1.00
H796   H     0.90646   0.91541   0.41295   0.00000  Uiso   1.00
C797   C     0.89395   0.77263   0.11569   0.00000  Uiso   1.00
C798   C     0.93185   0.80126   0.12899   0.00000  Uiso   1.00
C799   C     0.96772   0.76906   0.14081   0.00000  Uiso   1.00
H800   H     0.95859   0.74353   0.16639   0.00000  Uiso   1.00
H801   H     0.97780   0.74961   0.11123   0.00000  Uiso   1.00
H802   H     0.99399   0.78992   0.15344   0.00000  Uiso   1.00
H803   H     0.94121   0.82421   0.10133   0.00000  Uiso   1.00
H804   H     0.92457   0.82380   0.15756   0.00000  Uiso   1.00
H805   H     0.88175   0.75338   0.14424   0.00000  Uiso   1.00
H806   H     0.90364   0.74460   0.09262   0.00000  Uiso   1.00
F807   F     0.70729   0.74885   0.24747   0.00000  Uiso   1.00
F808   F     0.95935   0.91785   0.24791   0.00000  Uiso   1.00
F809   F     0.95935   0.74882   0.25141   0.00000  Uiso   1.00
F810   F     0.70735   0.91782   0.25286   0.00000  Uiso   1.00
C811   C     0.08737   0.16667   0.75006   0.00000  Uiso   1.00
C812   C     0.24597   0.16667   0.74991   0.00000  Uiso   1.00
C813   C     0.16684   0.16653   0.66484   0.00000  Uiso   1.00
C814   C     0.16647   0.16653   0.83516   0.00000  Uiso   1.00
C815   C     0.13818   0.02484   0.72605   0.00000  Uiso   1.00
C816   C     0.19567   0.30871   0.77319   0.00000  Uiso   1.00
C817   C     0.19516   0.02484   0.77395   0.00000  Uiso   1.00
C818   C     0.13766   0.30871   0.72681   0.00000  Uiso   1.00
C819   C     0.02114   0.12413   0.74909   0.00000  Uiso   1.00
C820   C     0.31218   0.20922   0.74942   0.00000  Uiso   1.00
C821   C     0.31217   0.12413   0.75029   0.00000  Uiso   1.00
C822   C     0.02117   0.20921   0.75090   0.00000  Uiso   1.00
C823   C     0.13841   0.19109   0.54560   0.00000  Uiso   1.00
C824   C     0.13878   0.13603   0.95262   0.00000  Uiso   1.00
C825   C     0.19472   0.19110   0.95443   0.00000  Uiso   1.00
C826   C     0.19432   0.13600   0.54735   0.00000  Uiso   1.00
C827   C     0.13810   0.19302   0.59151   0.00000  Uiso   1.00
C828   C     0.13821   0.13632   0.90660   0.00000  Uiso   1.00
C829   C     0.19511   0.19300   0.90852   0.00000  Uiso   1.00
C830   C     0.19498   0.13633   0.59336   0.00000  Uiso   1.00
C831   C     0.16687   0.16568   0.61623   0.00000  Uiso   1.00
C832   C     0.16637   0.16566   0.88377   0.00000  Uiso   1.00
C833   C     0.16631   0.16306   0.52390   0.00000  Uiso   1.00
C834   C     0.16676   0.16309   0.97610   0.00000  Uiso   1.00
C835   C     0.29059   0.16667   0.74987   0.00000  Uiso   1.00
C836   C     0.04275   0.16667   0.75003   0.00000  Uiso   1.00
Cu837  Cu    0.16667   0.21355   0.75000   0.00000  Uiso   1.00
Cu838  Cu    0.16667   0.11978   0.75000   0.00000  Uiso   1.00
H839   H     0.11666   0.21152   0.52632   0.00000  Uiso   1.00
H840   H     0.11706   0.11479   0.97054   0.00000  Uiso   1.00
H841   H     0.21646   0.21150   0.97374   0.00000  Uiso   1.00
H842   H     0.21601   0.11476   0.52940   0.00000  Uiso   1.00
N843   N     0.16667   0.28402   0.75000   0.00000  Uiso   1.00
N844   N     0.16667   0.04931   0.75000   0.00000  Uiso   1.00
O845   O     0.10655   0.20625   0.74999   0.00000  Uiso   1.00
O846   O     0.22679   0.12709   0.75001   0.00000  Uiso   1.00
O847   O     0.22679   0.20625   0.75001   0.00000  Uiso   1.00
O848   O     0.10655   0.12709   0.74999   0.00000  Uiso   1.00
O849   O     0.16666   0.20626   0.68573   0.00000  Uiso   1.00
O850   O     0.16667   0.12707   0.81427   0.00000  Uiso   1.00
O851   O     0.16667   0.20626   0.81427   0.00000  Uiso   1.00
O852   O     0.16666   0.12707   0.68573   0.00000  Uiso   1.00
F853   F     0.11008   0.04800   0.70109   0.00000  Uiso   1.00
F854   F     0.22558   0.28593   0.79557   0.00000  Uiso   1.00
F855   F     0.22328   0.04799   0.79888   0.00000  Uiso   1.00
F856   F     0.10772   0.28594   0.70448   0.00000  Uiso   1.00
C857   C     0.10553   0.22350   0.61191   0.00000  Uiso   1.00
C858   C     0.06953   0.19428   0.62869   0.00000  Uiso   1.00
C859   C     0.03318   0.22551   0.64009   0.00000  Uiso   1.00
H860   H     0.04246   0.25237   0.66458   0.00000  Uiso   1.00
H861   H     0.02122   0.24328   0.61007   0.00000  Uiso   1.00
H862   H     0.00817   0.20413   0.65407   0.00000  Uiso   1.00
H863   H     0.05945   0.16902   0.60292   0.00000  Uiso   1.00
H864   H     0.07923   0.17413   0.65821   0.00000  Uiso   1.00
H865   H     0.11895   0.24543   0.63813   0.00000  Uiso   1.00
H866   H     0.09352   0.24887   0.58713   0.00000  Uiso   1.00
C867   C     0.10599   0.10589   0.88423   0.00000  Uiso   1.00
C868   C     0.06807   0.13441   0.87083   0.00000  Uiso   1.00
C869   C     0.03245   0.10211   0.85841   0.00000  Uiso   1.00
H870   H     0.04188   0.07703   0.83257   0.00000  Uiso   1.00
H871   H     0.02233   0.08213   0.88768   0.00000  Uiso   1.00
H872   H     0.00613   0.12294   0.84588   0.00000  Uiso   1.00
H873   H     0.05840   0.15702   0.89861   0.00000  Uiso   1.00
H874   H     0.07547   0.15730   0.84253   0.00000  Uiso   1.00
H875   H     0.11828   0.08666   0.85572   0.00000  Uiso   1.00
H876   H     0.09629   0.07784   0.90729   0.00000  Uiso   1.00
C877   C     0.22776   0.22341   0.88816   0.00000  Uiso   1.00
C878   C     0.26371   0.19412   0.87141   0.00000  Uiso   1.00
C879   C     0.30020   0.22524   0.86027   0.00000  Uiso   1.00
H880   H     0.29107   0.25233   0.83593   0.00000  Uiso   1.00
H881   H     0.31218   0.24272   0.89042   0.00000  Uiso   1.00
H882   H     0.32514   0.20383   0.84621   0.00000  Uiso   1.00
H883   H     0.27363   0.16869   0.89710   0.00000  Uiso   1.00
H884   H     0.25403   0.17416   0.84178   0.00000  Uiso   1.00
H885   H     0.21440   0.24538   0.86192   0.00000  Uiso   1.00
H886   H     0.23979   0.24874   0.91295   0.00000  Uiso   1.00
C887   C     0.22729   0.10597   0.61569   0.00000  Uiso   1.00
C888   C     0.26519   0.13459   0.62899   0.00000  Uiso   1.00
C889   C     0.30106   0.10240   0.64081   0.00000  Uiso   1.00
H890   H     0.29192   0.07687   0.66639   0.00000  Uiso   1.00
H891   H     0.31113   0.08294   0.61123   0.00000  Uiso   1.00
H892   H     0.32732   0.12325   0.65344   0.00000  Uiso   1.00
H893   H     0.27455   0.15755   0.60133   0.00000  Uiso   1.00
H894   H     0.25791   0.15713   0.65756   0.00000  Uiso   1.00
H895   H     0.21508   0.08672   0.64424   0.00000  Uiso   1.00
H896   H     0.23697   0.07793   0.59262   0.00000  Uiso   1.00
F897   F     0.04062   0.08218   0.74747   0.00000  Uiso   1.00
F898   F     0.29269   0.25118   0.74791   0.00000  Uiso   1.00
F899   F     0.29268   0.08216   0.75141   0.00000  Uiso   1.00
F900   F     0.04068   0.25115   0.75286   0.00000  Uiso   1.00
C901   C     0.42070   0.16667   0.75006   0.00000  Uiso   1.00
C902   C     0.57930   0.16667   0.74991   0.00000  Uiso   1.00
C903   C     0.50017   0.16653   0.66484   0.00000  Uiso   1.00
C904   C     0.49981   0.16653   0.83516   0.00000  Uiso   1.00
C905   C     0.47151   0.02484   0.72605   0.00000  Uiso   1.00
C906   C     0.52900   0.30871   0.77319   0.00000  Uiso   1.00
C907   C     0.52849   0.02484   0.77395   0.00000  Uiso   1.00
C908   C     0.47100   0.30871   0.72681   0.00000  Uiso   1.00
C909   C     0.35448   0.12413   0.74909   0.00000  Uiso   1.00
C910   C     0.64551   0.20922   0.74942   0.00000  Uiso   1.00
C911   C     0.64551   0.12413   0.75029   0.00000  Uiso   1.00
C912   C     0.35451   0.20921   0.75090   0.00000  Uiso   1.00
C913   C     0.47174   0.19109   0.54560   0.00000  Uiso   1.00
C914   C     0.47211   0.13603   0.95262   0.00000  Uiso   1.00
C915   C     0.52806   0.19110   0.95443   0.00000  Uiso   1.00
C916   C     0.52765   0.13600   0.54735   0.00000  Uiso   1.00
C917   C     0.47143   0.19302   0.59151   0.00000  Uiso   1.00
C918   C     0.47155   0.13632   0.90660   0.00000  Uiso   1.00
C919   C     0.52844   0.19300   0.90852   0.00000  Uiso   1.00
C920   C     0.52831   0.13633   0.59336   0.00000  Uiso   1.00
C921   C     0.50021   0.16568   0.61623   0.00000  Uiso   1.00
C922   C     0.49970   0.16566   0.88377   0.00000  Uiso   1.00
C923   C     0.49964   0.16306   0.52390   0.00000  Uiso   1.00
C924   C     0.50010   0.16309   0.97610   0.00000  Uiso   1.00
C925   C     0.62392   0.16667   0.74987   0.00000  Uiso   1.00
C926   C     0.37608   0.16667   0.75003   0.00000  Uiso   1.00
Cu927  Cu    0.50000   0.21355   0.75000   0.00000  Uiso   1.00
Cu928  Cu    0.50000   0.11978   0.75000   0.00000  Uiso   1.00
H929   H     0.44999   0.21152   0.52632   0.00000  Uiso   1.00
H930   H     0.45040   0.11479   0.97054   0.00000  Uiso   1.00
H931   H     0.54980   0.21150   0.97374   0.00000  Uiso   1.00
H932   H     0.54934   0.11476   0.52940   0.00000  Uiso   1.00
N933   N     0.50000   0.28402   0.75000   0.00000  Uiso   1.00
N934   N     0.50000   0.04931   0.75000   0.00000  Uiso   1.00
O935   O     0.43988   0.20625   0.74999   0.00000  Uiso   1.00
O936   O     0.56012   0.12709   0.75001   0.00000  Uiso   1.00
O937   O     0.56012   0.20625   0.75001   0.00000  Uiso   1.00
O938   O     0.43988   0.12709   0.74999   0.00000  Uiso   1.00
O939   O     0.50000   0.20626   0.68573   0.00000  Uiso   1.00
O940   O     0.50000   0.12707   0.81427   0.00000  Uiso   1.00
O941   O     0.50000   0.20626   0.81427   0.00000  Uiso   1.00
O942   O     0.50000   0.12707   0.68573   0.00000  Uiso   1.00
F943   F     0.44342   0.04800   0.70109   0.00000  Uiso   1.00
F944   F     0.55892   0.28593   0.79557   0.00000  Uiso   1.00
F945   F     0.55661   0.04799   0.79888   0.00000  Uiso   1.00
F946   F     0.44106   0.28594   0.70448   0.00000  Uiso   1.00
C947   C     0.43886   0.22350   0.61191   0.00000  Uiso   1.00
C948   C     0.40287   0.19428   0.62869   0.00000  Uiso   1.00
C949   C     0.36652   0.22551   0.64009   0.00000  Uiso   1.00
H950   H     0.37579   0.25237   0.66458   0.00000  Uiso   1.00
H951   H     0.35456   0.24328   0.61007   0.00000  Uiso   1.00
H952   H     0.34150   0.20413   0.65407   0.00000  Uiso   1.00
H953   H     0.39278   0.16902   0.60292   0.00000  Uiso   1.00
H954   H     0.41257   0.17413   0.65821   0.00000  Uiso   1.00
H955   H     0.45229   0.24543   0.63813   0.00000  Uiso   1.00
H956   H     0.42685   0.24887   0.58713   0.00000  Uiso   1.00
C957   C     0.43932   0.10589   0.88423   0.00000  Uiso   1.00
C958   C     0.40141   0.13441   0.87083   0.00000  Uiso   1.00
C959   C     0.36578   0.10211   0.85841   0.00000  Uiso   1.00
H960   H     0.37521   0.07703   0.83257   0.00000  Uiso   1.00
H961   H     0.35566   0.08213   0.88768   0.00000  Uiso   1.00
H962   H     0.33946   0.12294   0.84588   0.00000  Uiso   1.00
H963   H     0.39174   0.15702   0.89861   0.00000  Uiso   1.00
H964   H     0.40880   0.15730   0.84253   0.00000  Uiso   1.00
H965   H     0.45161   0.08666   0.85572   0.00000  Uiso   1.00
H966   H     0.42963   0.07784   0.90729   0.00000  Uiso   1.00
C967   C     0.56109   0.22341   0.88816   0.00000  Uiso   1.00
C968   C     0.59704   0.19412   0.87141   0.00000  Uiso   1.00
C969   C     0.63353   0.22524   0.86027   0.00000  Uiso   1.00
H970   H     0.62440   0.25233   0.83593   0.00000  Uiso   1.00
H971   H     0.64551   0.24272   0.89042   0.00000  Uiso   1.00
H972   H     0.65848   0.20383   0.84621   0.00000  Uiso   1.00
H973   H     0.60696   0.16869   0.89710   0.00000  Uiso   1.00
H974   H     0.58737   0.17416   0.84178   0.00000  Uiso   1.00
H975   H     0.54773   0.24538   0.86192   0.00000  Uiso   1.00
H976   H     0.57313   0.24874   0.91295   0.00000  Uiso   1.00
C977   C     0.56062   0.10597   0.61569   0.00000  Uiso   1.00
C978   C     0.59852   0.13459   0.62899   0.00000  Uiso   1.00
C979   C     0.63439   0.10240   0.64081   0.00000  Uiso   1.00
H980   H     0.62525   0.07687   0.66639   0.00000  Uiso   1.00
H981   H     0.64447   0.08294   0.61123   0.00000  Uiso   1.00
H982   H     0.66066   0.12325   0.65344   0.00000  Uiso   1.00
H983   H     0.60788   0.15755   0.60133   0.00000  Uiso   1.00
H984   H     0.59124   0.15713   0.65756   0.00000  Uiso   1.00
H985   H     0.54842   0.08672   0.64424   0.00000  Uiso   1.00
H986   H     0.57030   0.07793   0.59262   0.00000  Uiso   1.00
F987   F     0.37395   0.08218   0.74747   0.00000  Uiso   1.00
F988   F     0.62602   0.25118   0.74791   0.00000  Uiso   1.00
F989   F     0.62601   0.08216   0.75141   0.00000  Uiso   1.00
F990   F     0.37402   0.25115   0.75286   0.00000  Uiso   1.00
C991   C     0.75403   0.16667   0.75006   0.00000  Uiso   1.00
C992   C     0.91263   0.16667   0.74991   0.00000  Uiso   1.00
C993   C     0.83350   0.16653   0.66484   0.00000  Uiso   1.00
C994   C     0.83314   0.16653   0.83516   0.00000  Uiso   1.00
C995   C     0.80485   0.02484   0.72605   0.00000  Uiso   1.00
C996   C     0.86233   0.30871   0.77319   0.00000  Uiso   1.00
C997   C     0.86183   0.02484   0.77395   0.00000  Uiso   1.00
C998   C     0.80433   0.30871   0.72681   0.00000  Uiso   1.00
C999   C     0.68781   0.12413   0.74909   0.00000  Uiso   1.00
C1000  C     0.97884   0.20922   0.74942   0.00000  Uiso   1.00
C1001  C     0.97884   0.12413   0.75029   0.00000  Uiso   1.00
C1002  C     0.68784   0.20921   0.75090   0.00000  Uiso   1.00
C1003  C     0.80507   0.19109   0.54560   0.00000  Uiso   1.00
C1004  C     0.80544   0.13603   0.95262   0.00000  Uiso   1.00
C1005  C     0.86139   0.19110   0.95443   0.00000  Uiso   1.00
C1006  C     0.86099   0.13600   0.54735   0.00000  Uiso   1.00
C1007  C     0.80477   0.19302   0.59151   0.00000  Uiso   1.00
C1008  C     0.80488   0.13632   0.90660   0.00000  Uiso   1.00
C1009  C     0.86178   0.19300   0.90852   0.00000  Uiso   1.00
C1010  C     0.86164   0.13633   0.59336   0.00000  Uiso   1.00
C1011  C     0.83354   0.16568   0.61623   0.00000  Uiso   1.00
C1012  C     0.83303   0.16566   0.88377   0.00000  Uiso   1.00
C1013  C     0.83298   0.16306   0.52390   0.00000  Uiso   1.00
C1014  C     0.83343   0.16309   0.97610   0.00000  Uiso   1.00
C1015  C     0.95725   0.16667   0.74987   0.00000  Uiso   1.00
C1016  C     0.70941   0.16667   0.75003   0.00000  Uiso   1.00
Cu1017 Cu    0.83333   0.21355   0.75000   0.00000  Uiso   1.00
Cu1018 Cu    0.83333   0.11978   0.75000   0.00000  Uiso   1.00
H1019  H     0.78332   0.21152   0.52632   0.00000  Uiso   1.00
H1020  H     0.78373   0.11479   0.97054   0.00000  Uiso   1.00
H1021  H     0.88313   0.21150   0.97374   0.00000  Uiso   1.00
H1022  H     0.88267   0.11476   0.52940   0.00000  Uiso   1.00
N1023  N     0.83333   0.28402   0.75000   0.00000  Uiso   1.00
N1024  N     0.83333   0.04931   0.75000   0.00000  Uiso   1.00
O1025  O     0.77321   0.20625   0.74999   0.00000  Uiso   1.00
O1026  O     0.89345   0.12709   0.75001   0.00000  Uiso   1.00
O1027  O     0.89345   0.20625   0.75001   0.00000  Uiso   1.00
O1028  O     0.77321   0.12709   0.74999   0.00000  Uiso   1.00
O1029  O     0.83333   0.20626   0.68573   0.00000  Uiso   1.00
O1030  O     0.83334   0.12707   0.81427   0.00000  Uiso   1.00
O1031  O     0.83334   0.20626   0.81427   0.00000  Uiso   1.00
O1032  O     0.83333   0.12707   0.68573   0.00000  Uiso   1.00
F1033  F     0.77675   0.04800   0.70109   0.00000  Uiso   1.00
F1034  F     0.89225   0.28593   0.79557   0.00000  Uiso   1.00
F1035  F     0.88994   0.04799   0.79888   0.00000  Uiso   1.00
F1036  F     0.77439   0.28594   0.70448   0.00000  Uiso   1.00
C1037  C     0.77219   0.22350   0.61191   0.00000  Uiso   1.00
C1038  C     0.73620   0.19428   0.62869   0.00000  Uiso   1.00
C1039  C     0.69985   0.22551   0.64009   0.00000  Uiso   1.00
H1040  H     0.70913   0.25237   0.66458   0.00000  Uiso   1.00
H1041  H     0.68789   0.24328   0.61007   0.00000  Uiso   1.00
H1042  H     0.67483   0.20413   0.65407   0.00000  Uiso   1.00
H1043  H     0.72611   0.16902   0.60292   0.00000  Uiso   1.00
H1044  H     0.74590   0.17413   0.65821   0.00000  Uiso   1.00
H1045  H     0.78562   0.24543   0.63813   0.00000  Uiso   1.00
H1046  H     0.76018   0.24887   0.58713   0.00000  Uiso   1.00
C1047  C     0.77265   0.10589   0.88423   0.00000  Uiso   1.00
C1048  C     0.73474   0.13441   0.87083   0.00000  Uiso   1.00
C1049  C     0.69912   0.10211   0.85841   0.00000  Uiso   1.00
H1050  H     0.70855   0.07703   0.83257   0.00000  Uiso   1.00
H1051  H     0.68900   0.08213   0.88768   0.00000  Uiso   1.00
H1052  H     0.67280   0.12294   0.84588   0.00000  Uiso   1.00
H1053  H     0.72507   0.15702   0.89861   0.00000  Uiso   1.00
H1054  H     0.74213   0.15730   0.84253   0.00000  Uiso   1.00
H1055  H     0.78494   0.08666   0.85572   0.00000  Uiso   1.00
H1056  H     0.76296   0.07784   0.90729   0.00000  Uiso   1.00
C1057  C     0.89443   0.22341   0.88816   0.00000  Uiso   1.00
C1058  C     0.93038   0.19412   0.87141   0.00000  Uiso   1.00
C1059  C     0.96686   0.22524   0.86027   0.00000  Uiso   1.00
H1060  H     0.95774   0.25233   0.83593   0.00000  Uiso   1.00
H1061  H     0.97884   0.24272   0.89042   0.00000  Uiso   1.00
H1062  H     0.99181   0.20383   0.84621   0.00000  Uiso   1.00
H1063  H     0.94030   0.16869   0.89710   0.00000  Uiso   1.00
H1064  H     0.92070   0.17416   0.84178   0.00000  Uiso   1.00
H1065  H     0.88107   0.24538   0.86192   0.00000  Uiso   1.00
H1066  H     0.90646   0.24874   0.91295   0.00000  Uiso   1.00
C1067  C     0.89395   0.10597   0.61569   0.00000  Uiso   1.00
C1068  C     0.93185   0.13459   0.62899   0.00000  Uiso   1.00
C1069  C     0.96772   0.10240   0.64081   0.00000  Uiso   1.00
H1070  H     0.95859   0.07687   0.66639   0.00000  Uiso   1.00
H1071  H     0.97780   0.08294   0.61123   0.00000  Uiso   1.00
H1072  H     0.99399   0.12325   0.65344   0.00000  Uiso   1.00
H1073  H     0.94121   0.15755   0.60133   0.00000  Uiso   1.00
H1074  H     0.92457   0.15713   0.65756   0.00000  Uiso   1.00
H1075  H     0.88175   0.08672   0.64424   0.00000  Uiso   1.00
H1076  H     0.90364   0.07793   0.59262   0.00000  Uiso   1.00
F1077  F     0.70729   0.08218   0.74747   0.00000  Uiso   1.00
F1078  F     0.95935   0.25118   0.74791   0.00000  Uiso   1.00
F1079  F     0.95935   0.08216   0.75141   0.00000  Uiso   1.00
F1080  F     0.70735   0.25115   0.75286   0.00000  Uiso   1.00
C1081  C     0.08737   0.50000   0.75006   0.00000  Uiso   1.00
C1082  C     0.24597   0.50000   0.74991   0.00000  Uiso   1.00
C1083  C     0.16684   0.49987   0.66484   0.00000  Uiso   1.00
C1084  C     0.16647   0.49986   0.83516   0.00000  Uiso   1.00
C1085  C     0.13818   0.35817   0.72605   0.00000  Uiso   1.00
C1086  C     0.19567   0.64204   0.77319   0.00000  Uiso   1.00
C1087  C     0.19516   0.35817   0.77395   0.00000  Uiso   1.00
C1088  C     0.13766   0.64204   0.72681   0.00000  Uiso   1.00
C1089  C     0.02114   0.45747   0.74909   0.00000  Uiso   1.00
C1090  C     0.31218   0.54255   0.74942   0.00000  Uiso   1.00
C1091  C     0.31217   0.45746   0.75029   0.00000  Uiso   1.00
C1092  C     0.02117   0.54254   0.75090   0.00000  Uiso   1.00
C1093  C     0.13841   0.52443   0.54560   0.00000  Uiso   1.00
C1094  C     0.13878   0.46936   0.95262   0.00000  Uiso   1.00
C1095  C     0.19472   0.52443   0.95443   0.00000  Uiso   1.00
C1096  C     0.19432   0.46933   0.54735   0.00000  Uiso   1.00
C1097  C     0.13810   0.52635   0.59151   0.00000  Uiso   1.00
C1098  C     0.13821   0.46966   0.90660   0.00000  Uiso   1.00
C1099  C     0.19511   0.52633   0.90852   0.00000  Uiso   1.00
C1100  C     0.19498   0.46966   0.59336   0.00000  Uiso   1.00
C1101  C     0.16687   0.49901   0.61623   0.00000  Uiso   1.00
C1102  C     0.16637   0.49899   0.88377   0.00000  Uiso   1.00
C1103  C     0.16631   0.49640   0.52390   0.00000  Uiso   1.00
C1104  C     0.16676   0.49643   0.97610   0.00000  Uiso   1.00
C1105  C     0.29059   0.50001   0.74987   0.00000  Uiso   1.00
C1106  C     0.04275   0.50000   0.75003   0.00000  Uiso   1.00
Cu1107 Cu    0.16667   0.54689   0.75000   0.00000  Uiso   1.00
Cu1108 Cu    0.16667   0.45311   0.75000   0.00000  Uiso   1.00
H1109  H     0.11666   0.54485   0.52632   0.00000  Uiso   1.00
H1110  H     0.11706   0.44813   0.97054   0.00000  Uiso   1.00
H1111  H     0.21646   0.54483   0.97374   0.00000  Uiso   1.00
H1112  H     0.21601   0.44809   0.52940   0.00000  Uiso   1.00
N1113  N     0.16667   0.61736   0.75000   0.00000  Uiso   1.00
N1114  N     0.16667   0.38264   0.75000   0.00000  Uiso   1.00
O1115  O     0.10655   0.53958   0.74999   0.00000  Uiso   1.00
O1116  O     0.22679   0.46042   0.75001   0.00000  Uiso   1.00
O1117  O     0.22679   0.53958   0.75001   0.00000  Uiso   1.00
O1118  O     0.10655   0.46042   0.74999   0.00000  Uiso   1.00
O1119  O     0.16666   0.53959   0.68573   0.00000  Uiso   1.00
O1120  O     0.16667   0.46041   0.81427   0.00000  Uiso   1.00
O1121  O     0.16667   0.53959   0.81427   0.00000  Uiso   1.00
O1122  O     0.16666   0.46041   0.68573   0.00000  Uiso   1.00
F1123  F     0.11008   0.38133   0.70109   0.00000  Uiso   1.00
F1124  F     0.22558   0.61926   0.79557   0.00000  Uiso   1.00
F1125  F     0.22328   0.38132   0.79888   0.00000  Uiso   1.00
F1126  F     0.10772   0.61927   0.70448   0.00000  Uiso   1.00
C1127  C     0.10553   0.55683   0.61191   0.00000  Uiso   1.00
C1128  C     0.06953   0.52762   0.62869   0.00000  Uiso   1.00
C1129  C     0.03318   0.55884   0.64009   0.00000  Uiso   1.00
H1130  H     0.04246   0.58570   0.66458   0.00000  Uiso   1.00
H1131  H     0.02122   0.57662   0.61007   0.00000  Uiso   1.00
H1132  H     0.00817   0.53747   0.65407   0.00000  Uiso   1.00
H1133  H     0.05945   0.50235   0.60292   0.00000  Uiso   1.00
H1134  H     0.07923   0.50746   0.65821   0.00000  Uiso   1.00
H1135  H     0.11895   0.57876   0.63813   0.00000  Uiso   1.00
H1136  H     0.09352   0.58220   0.58713   0.00000  Uiso   1.00
C1137  C     0.10599   0.43922   0.88423   0.00000  Uiso   1.00
C1138  C     0.06807   0.46775   0.87083   0.00000  Uiso   1.00
C1139  C     0.03245   0.43544   0.85841   0.00000  Uiso   1.00
H1140  H     0.04188   0.41036   0.83257   0.00000  Uiso   1.00
H1141  H     0.02233   0.41546   0.88768   0.00000  Uiso   1.00
H1142  H     0.00613   0.45628   0.84588   0.00000  Uiso   1.00
H1143  H     0.05840   0.49035   0.89861   0.00000  Uiso   1.00
H1144  H     0.07547   0.49063   0.84253   0.00000  Uiso   1.00
H1145  H     0.11828   0.41999   0.85572   0.00000  Uiso   1.00
H1146  H     0.09629   0.41117   0.90729   0.00000  Uiso   1.00
C1147  C     0.22776   0.55675   0.88816   0.00000  Uiso   1.00
C1148  C     0.26371   0.52746   0.87141   0.00000  Uiso   1.00
C1149  C     0.30020   0.55858   0.86027   0.00000  Uiso   1.00
H1150  H     0.29107   0.58567   0.83593   0.00000  Uiso   1.00
H1151  H     0.31218   0.57606   0.89042   0.00000  Uiso   1.00
H1152  H     0.32514   0.53717   0.84621   0.00000  Uiso   1.00
H1153  H     0.27363   0.50202   0.89710   0.00000  Uiso   1.00
H1154  H     0.25403   0.50749   0.84178   0.00000  Uiso   1.00
H1155  H     0.21440   0.57871   0.86192   0.00000  Uiso   1.00
H1156  H     0.23979   0.58208   0.91295   0.00000  Uiso   1.00
C1157  C     0.22729   0.43930   0.61569   0.00000  Uiso   1.00
C1158  C     0.26519   0.46792   0.62899   0.00000  Uiso   1.00
C1159  C     0.30106   0.43573   0.64081   0.00000  Uiso   1.00
H1160  H     0.29192   0.41020   0.66639   0.00000  Uiso   1.00
H1161  H     0.31113   0.41627   0.61123   0.00000  Uiso   1.00
H1162  H     0.32732   0.45658   0.65344   0.00000  Uiso   1.00
H1163  H     0.27455   0.49088   0.60133   0.00000  Uiso   1.00
H1164  H     0.25791   0.49046   0.65756   0.00000  Uiso   1.00
H1165  H     0.21508   0.42005   0.64424   0.00000  Uiso   1.00
H1166  H     0.23697   0.41127   0.59262   0.00000  Uiso   1.00
F1167  F     0.04062   0.41551   0.74747   0.00000  Uiso   1.00
F1168  F     0.29269   0.58451   0.74791   0.00000  Uiso   1.00
F1169  F     0.29268   0.41549   0.75141   0.00000  Uiso   1.00
F1170  F     0.04068   0.58448   0.75286   0.00000  Uiso   1.00
C1171  C     0.42070   0.50000   0.75006   0.00000  Uiso   1.00
C1172  C     0.57930   0.50000   0.74991   0.00000  Uiso   1.00
C1173  C     0.50017   0.49987   0.66484   0.00000  Uiso   1.00
C1174  C     0.49981   0.49986   0.83516   0.00000  Uiso   1.00
C1175  C     0.47151   0.35817   0.72605   0.00000  Uiso   1.00
C1176  C     0.52900   0.64204   0.77319   0.00000  Uiso   1.00
C1177  C     0.52849   0.35817   0.77395   0.00000  Uiso   1.00
C1178  C     0.47100   0.64204   0.72681   0.00000  Uiso   1.00
C1179  C     0.35448   0.45747   0.74909   0.00000  Uiso   1.00
C1180  C     0.64551   0.54255   0.74942   0.00000  Uiso   1.00
C1181  C     0.64551   0.45746   0.75029   0.00000  Uiso   1.00
C1182  C     0.35451   0.54254   0.75090   0.00000  Uiso   1.00
C1183  C     0.47174   0.52443   0.54560   0.00000  Uiso   1.00
C1184  C     0.47211   0.46936   0.95262   0.00000  Uiso   1.00
C1185  C     0.52806   0.52443   0.95443   0.00000  Uiso   1.00
C1186  C     0.52765   0.46933   0.54735   0.00000  Uiso   1.00
C1187  C     0.47143   0.52635   0.59151   0.00000  Uiso   1.00
C1188  C     0.47155   0.46966   0.90660   0.00000  Uiso   1.00
C1189  C     0.52844   0.52633   0.90852   0.00000  Uiso   1.00
C1190  C     0.52831   0.46966   0.59336   0.00000  Uiso   1.00
C1191  C     0.50021   0.49901   0.61623   0.00000  Uiso   1.00
C1192  C     0.49970   0.49899   0.88377   0.00000  Uiso   1.00
C1193  C     0.49964   0.49640   0.52390   0.00000  Uiso   1.00
C1194  C     0.50010   0.49643   0.97610   0.00000  Uiso   1.00
C1195  C     0.62392   0.50001   0.74987   0.00000  Uiso   1.00
C1196  C     0.37608   0.50000   0.75003   0.00000  Uiso   1.00
Cu1197 Cu    0.50000   0.54689   0.75000   0.00000  Uiso   1.00
Cu1198 Cu    0.50000   0.45311   0.75000   0.00000  Uiso   1.00
H1199  H     0.44999   0.54485   0.52632   0.00000  Uiso   1.00
H1200  H     0.45040   0.44813   0.97054   0.00000  Uiso   1.00
H1201  H     0.54980   0.54483   0.97374   0.00000  Uiso   1.00
H1202  H     0.54934   0.44809   0.52940   0.00000  Uiso   1.00
N1203  N     0.50000   0.61736   0.75000   0.00000  Uiso   1.00
N1204  N     0.50000   0.38264   0.75000   0.00000  Uiso   1.00
O1205  O     0.43988   0.53958   0.74999   0.00000  Uiso   1.00
O1206  O     0.56012   0.46042   0.75001   0.00000  Uiso   1.00
O1207  O     0.56012   0.53958   0.75001   0.00000  Uiso   1.00
O1208  O     0.43988   0.46042   0.74999   0.00000  Uiso   1.00
O1209  O     0.50000   0.53959   0.68573   0.00000  Uiso   1.00
O1210  O     0.50000   0.46041   0.81427   0.00000  Uiso   1.00
O1211  O     0.50000   0.53959   0.81427   0.00000  Uiso   1.00
O1212  O     0.50000   0.46041   0.68573   0.00000  Uiso   1.00
F1213  F     0.44342   0.38133   0.70109   0.00000  Uiso   1.00
F1214  F     0.55892   0.61926   0.79557   0.00000  Uiso   1.00
F1215  F     0.55661   0.38132   0.79888   0.00000  Uiso   1.00
F1216  F     0.44106   0.61927   0.70448   0.00000  Uiso   1.00
C1217  C     0.43886   0.55683   0.61191   0.00000  Uiso   1.00
C1218  C     0.40287   0.52762   0.62869   0.00000  Uiso   1.00
C1219  C     0.36652   0.55884   0.64009   0.00000  Uiso   1.00
H1220  H     0.37579   0.58570   0.66458   0.00000  Uiso   1.00
H1221  H     0.35456   0.57662   0.61007   0.00000  Uiso   1.00
H1222  H     0.34150   0.53747   0.65407   0.00000  Uiso   1.00
H1223  H     0.39278   0.50235   0.60292   0.00000  Uiso   1.00
H1224  H     0.41257   0.50746   0.65821   0.00000  Uiso   1.00
H1225  H     0.45229   0.57876   0.63813   0.00000  Uiso   1.00
H1226  H     0.42685   0.58220   0.58713   0.00000  Uiso   1.00
C1227  C     0.43932   0.43922   0.88423   0.00000  Uiso   1.00
C1228  C     0.40141   0.46775   0.87083   0.00000  Uiso   1.00
C1229  C     0.36578   0.43544   0.85841   0.00000  Uiso   1.00
H1230  H     0.37521   0.41036   0.83257   0.00000  Uiso   1.00
H1231  H     0.35566   0.41546   0.88768   0.00000  Uiso   1.00
H1232  H     0.33946   0.45628   0.84588   0.00000  Uiso   1.00
H1233  H     0.39174   0.49035   0.89861   0.00000  Uiso   1.00
H1234  H     0.40880   0.49063   0.84253   0.00000  Uiso   1.00
H1235  H     0.45161   0.41999   0.85572   0.00000  Uiso   1.00
H1236  H     0.42963   0.41117   0.90729   0.00000  Uiso   1.00
C1237  C     0.56109   0.55675   0.88816   0.00000  Uiso   1.00
C1238  C     0.59704   0.52746   0.87141   0.00000  Uiso   1.00
C1239  C     0.63353   0.55858   0.86027   0.00000  Uiso   1.00
H1240  H     0.62440   0.58567   0.83593   0.00000  Uiso   1.00
H1241  H     0.64551   0.57606   0.89042   0.00000  Uiso   1.00
H1242  H     0.65848   0.53717   0.84621   0.00000  Uiso   1.00
H1243  H     0.60696   0.50202   0.89710   0.00000  Uiso   1.00
H1244  H     0.58737   0.50749   0.84178   0.00000  Uiso   1.00
H1245  H     0.54773   0.57871   0.86192   0.00000  Uiso   1.00
H1246  H     0.57313   0.58208   0.91295   0.00000  Uiso   1.00
C1247  C     0.56062   0.43930   0.61569   0.00000  Uiso   1.00
C1248  C     0.59852   0.46792   0.62899   0.00000  Uiso   1.00
C1249  C     0.63439   0.43573   0.64081   0.00000  Uiso   1.00
H1250  H     0.62525   0.41020   0.66639   0.00000  Uiso   1.00
H1251  H     0.64447   0.41627   0.61123   0.00000  Uiso   1.00
H1252  H     0.66066   0.45658   0.65344   0.00000  Uiso   1.00
H1253  H     0.60788   0.49088   0.60133   0.00000  Uiso   1.00
H1254  H     0.59124   0.49046   0.65756   0.00000  Uiso   1.00
H1255  H     0.54842   0.42005   0.64424   0.00000  Uiso   1.00
H1256  H     0.57030   0.41127   0.59262   0.00000  Uiso   1.00
F1257  F     0.37395   0.41551   0.74747   0.00000  Uiso   1.00
F1258  F     0.62602   0.58451   0.74791   0.00000  Uiso   1.00
F1259  F     0.62601   0.41549   0.75141   0.00000  Uiso   1.00
F1260  F     0.37402   0.58448   0.75286   0.00000  Uiso   1.00
C1261  C     0.75403   0.50000   0.75006   0.00000  Uiso   1.00
C1262  C     0.91263   0.50000   0.74991   0.00000  Uiso   1.00
C1263  C     0.83350   0.49987   0.66484   0.00000  Uiso   1.00
C1264  C     0.83314   0.49986   0.83516   0.00000  Uiso   1.00
C1265  C     0.80485   0.35817   0.72605   0.00000  Uiso   1.00
C1266  C     0.86233   0.64204   0.77319   0.00000  Uiso   1.00
C1267  C     0.86183   0.35817   0.77395   0.00000  Uiso   1.00
C1268  C     0.80433   0.64204   0.72681   0.00000  Uiso   1.00
C1269  C     0.68781   0.45747   0.74909   0.00000  Uiso   1.00
C1270  C     0.97884   0.54255   0.74942   0.00000  Uiso   1.00
C1271  C     0.97884   0.45746   0.75029   0.00000  Uiso   1.00
C1272  C     0.68784   0.54254   0.75090   0.00000  Uiso   1.00
C1273  C     0.80507   0.52443   0.54560   0.00000  Uiso   1.00
C1274  C     0.80544   0.46936   0.95262   0.00000  Uiso   1.00
C1275  C     0.86139   0.52443   0.95443   0.00000  Uiso   1.00
C1276  C     0.86099   0.46933   0.54735   0.00000  Uiso   1.00
C1277  C     0.80477   0.52635   0.59151   0.00000  Uiso   1.00
C1278  C     0.80488   0.46966   0.90660   0.00000  Uiso   1.00
C1279  C     0.86178   0.52633   0.90852   0.00000  Uiso   1.00
C1280  C     0.86164   0.46966   0.59336   0.00000  Uiso   1.00
C1281  C     0.83354   0.49901   0.61623   0.00000  Uiso   1.00
C1282  C     0.83303   0.49899   0.88377   0.00000  Uiso   1.00
C1283  C     0.83298   0.49640   0.52390   0.00000  Uiso   1.00
C1284  C     0.83343   0.49643   0.97610   0.00000  Uiso   1.00
C1285  C     0.95725   0.50001   0.74987   0.00000  Uiso   1.00
C1286  C     0.70941   0.50000   0.75003   0.00000  Uiso   1.00
Cu1287 Cu    0.83333   0.54689   0.75000   0.00000  Uiso   1.00
Cu1288 Cu    0.83333   0.45311   0.75000   0.00000  Uiso   1.00
H1289  H     0.78332   0.54485   0.52632   0.00000  Uiso   1.00
H1290  H     0.78373   0.44813   0.97054   0.00000  Uiso   1.00
H1291  H     0.88313   0.54483   0.97374   0.00000  Uiso   1.00
H1292  H     0.88267   0.44809   0.52940   0.00000  Uiso   1.00
N1293  N     0.83333   0.61736   0.75000   0.00000  Uiso   1.00
N1294  N     0.83333   0.38264   0.75000   0.00000  Uiso   1.00
O1295  O     0.77321   0.53958   0.74999   0.00000  Uiso   1.00
O1296  O     0.89345   0.46042   0.75001   0.00000  Uiso   1.00
O1297  O     0.89345   0.53958   0.75001   0.00000  Uiso   1.00
O1298  O     0.77321   0.46042   0.74999   0.00000  Uiso   1.00
O1299  O     0.83333   0.53959   0.68573   0.00000  Uiso   1.00
O1300  O     0.83334   0.46041   0.81427   0.00000  Uiso   1.00
O1301  O     0.83334   0.53959   0.81427   0.00000  Uiso   1.00
O1302  O     0.83333   0.46041   0.68573   0.00000  Uiso   1.00
F1303  F     0.77675   0.38133   0.70109   0.00000  Uiso   1.00
F1304  F     0.89225   0.61926   0.79557   0.00000  Uiso   1.00
F1305  F     0.88994   0.38132   0.79888   0.00000  Uiso   1.00
F1306  F     0.77439   0.61927   0.70448   0.00000  Uiso   1.00
C1307  C     0.77219   0.55683   0.61191   0.00000  Uiso   1.00
C1308  C     0.73620   0.52762   0.62869   0.00000  Uiso   1.00
C1309  C     0.69985   0.55884   0.64009   0.00000  Uiso   1.00
H1310  H     0.70913   0.58570   0.66458   0.00000  Uiso   1.00
H1311  H     0.68789   0.57662   0.61007   0.00000  Uiso   1.00
H1312  H     0.67483   0.53747   0.65407   0.00000  Uiso   1.00
H1313  H     0.72611   0.50235   0.60292   0.00000  Uiso   1.00
H1314  H     0.74590   0.50746   0.65821   0.00000  Uiso   1.00
H1315  H     0.78562   0.57876   0.63813   0.00000  Uiso   1.00
H1316  H     0.76018   0.58220   0.58713   0.00000  Uiso   1.00
C1317  C     0.77265   0.43922   0.88423   0.00000  Uiso   1.00
C1318  C     0.73474   0.46775   0.87083   0.00000  Uiso   1.00
C1319  C     0.69912   0.43544   0.85841   0.00000  Uiso   1.00
H1320  H     0.70855   0.41036   0.83257   0.00000  Uiso   1.00
H1321  H     0.68900   0.41546   0.88768   0.00000  Uiso   1.00
H1322  H     0.67280   0.45628   0.84588   0.00000  Uiso   1.00
H1323  H     0.72507   0.49035   0.89861   0.00000  Uiso   1.00
H1324  H     0.74213   0.49063   0.84253   0.00000  Uiso   1.00
H1325  H     0.78494   0.41999   0.85572   0.00000  Uiso   1.00
H1326  H     0.76296   0.41117   0.90729   0.00000  Uiso   1.00
C1327  C     0.89443   0.55675   0.88816   0.00000  Uiso   1.00
C1328  C     0.93038   0.52746   0.87141   0.00000  Uiso   1.00
C1329  C     0.96686   0.55858   0.86027   0.00000  Uiso   1.00
H1330  H     0.95774   0.58567   0.83593   0.00000  Uiso   1.00
H1331  H     0.97884   0.57606   0.89042   0.00000  Uiso   1.00
H1332  H     0.99181   0.53717   0.84621   0.00000  Uiso   1.00
H1333  H     0.94030   0.50202   0.89710   0.00000  Uiso   1.00
H1334  H     0.92070   0.50749   0.84178   0.00000  Uiso   1.00
H1335  H     0.88107   0.57871   0.86192   0.00000  Uiso   1.00
H1336  H     0.90646   0.58208   0.91295   0.00000  Uiso   1.00
C1337  C     0.89395   0.43930   0.61569   0.00000  Uiso   1.00
C1338  C     0.93185   0.46792   0.62899   0.00000  Uiso   1.00
C1339  C     0.96772   0.43573   0.64081   0.00000  Uiso   1.00
H1340  H     0.95859   0.41020   0.66639   0.00000  Uiso   1.00
H1341  H     0.97780   0.41627   0.61123   0.00000  Uiso   1.00
H1342  H     0.99399   0.45658   0.65344   0.00000  Uiso   1.00
H1343  H     0.94121   0.49088   0.60133   0.00000  Uiso   1.00
H1344  H     0.92457   0.49046   0.65756   0.00000  Uiso   1.00
H1345  H     0.88175   0.42005   0.64424   0.00000  Uiso   1.00
H1346  H     0.90364   0.41127   0.59262   0.00000  Uiso   1.00
F1347  F     0.70729   0.41551   0.74747   0.00000  Uiso   1.00
F1348  F     0.95935   0.58451   0.74791   0.00000  Uiso   1.00
F1349  F     0.95935   0.41549   0.75141   0.00000  Uiso   1.00
F1350  F     0.70735   0.58448   0.75286   0.00000  Uiso   1.00
C1351  C     0.08737   0.83333   0.75006   0.00000  Uiso   1.00
C1352  C     0.24597   0.83334   0.74991   0.00000  Uiso   1.00
C1353  C     0.16684   0.83320   0.66484   0.00000  Uiso   1.00
C1354  C     0.16647   0.83319   0.83516   0.00000  Uiso   1.00
C1355  C     0.13818   0.69151   0.72605   0.00000  Uiso   1.00
C1356  C     0.19567   0.97537   0.77319   0.00000  Uiso   1.00
C1357  C     0.19516   0.69150   0.77395   0.00000  Uiso   1.00
C1358  C     0.13766   0.97538   0.72681   0.00000  Uiso   1.00
C1359  C     0.02114   0.79080   0.74909   0.00000  Uiso   1.00
C1360  C     0.31218   0.87589   0.74942   0.00000  Uiso   1.00
C1361  C     0.31217   0.79079   0.75029   0.00000  Uiso   1.00
C1362  C     0.02117   0.87588   0.75090   0.00000  Uiso   1.00
C1363  C     0.13841   0.85776   0.54560   0.00000  Uiso   1.00
C1364  C     0.13878   0.80270   0.95262   0.00000  Uiso   1.00
C1365  C     0.19472   0.85776   0.95443   0.00000  Uiso   1.00
C1366  C     0.19432   0.80266   0.54735   0.00000  Uiso   1.00
C1367  C     0.13810   0.85968   0.59151   0.00000  Uiso   1.00
C1368  C     0.13821   0.80299   0.90660   0.00000  Uiso   1.00
C1369  C     0.19511   0.85966   0.90852   0.00000  Uiso   1.00
C1370  C     0.19498   0.80299   0.59336   0.00000  Uiso   1.00
C1371  C     0.16687   0.83234   0.61623   0.00000  Uiso   1.00
C1372  C     0.16637   0.83232   0.88377   0.00000  Uiso   1.00
C1373  C     0.16631   0.82973   0.52390   0.00000  Uiso   1.00
C1374  C     0.16676   0.82976   0.97610   0.00000  Uiso   1.00
C1375  C     0.29059   0.83334   0.74987   0.00000  Uiso   1.00
C1376  C     0.04275   0.83334   0.75003   0.00000  Uiso   1.00
Cu1377 Cu    0.16667   0.88022   0.75000   0.00000  Uiso   1.00
Cu1378 Cu    0.16667   0.78645   0.75000   0.00000  Uiso   1.00
H1379  H     0.11666   0.87818   0.52632   0.00000  Uiso   1.00
H1380  H     0.11706   0.78146   0.97054   0.00000  Uiso   1.00
H1381  H     0.21646   0.87816   0.97374   0.00000  Uiso   1.00
H1382  H     0.21601   0.78142   0.52940   0.00000  Uiso   1.00
N1383  N     0.16667   0.95069   0.75000   0.00000  Uiso   1.00
N1384  N     0.16667   0.71598   0.75000   0.00000  Uiso   1.00
O1385  O     0.10655   0.87291   0.74999   0.00000  Uiso   1.00
O1386  O     0.22679   0.79375   0.75001   0.00000  Uiso   1.00
O1387  O     0.22679   0.87291   0.75001   0.00000  Uiso   1.00
O1388  O     0.10655   0.79375   0.74999   0.00000  Uiso   1.00
O1389  O     0.16666   0.87293   0.68573   0.00000  Uiso   1.00
O1390  O     0.16667   0.79374   0.81427   0.00000  Uiso   1.00
O1391  O     0.16667   0.87293   0.81427   0.00000  Uiso   1.00
O1392  O     0.16666   0.79374   0.68573   0.00000  Uiso   1.00
F1393  F     0.11008   0.71466   0.70109   0.00000  Uiso   1.00
F1394  F     0.22558   0.95260   0.79557   0.00000  Uiso   1.00
F1395  F     0.22328   0.71466   0.79888   0.00000  Uiso   1.00
F1396  F     0.10772   0.95260   0.70448   0.00000  Uiso   1.00
C1397  C     0.10553   0.89017   0.61191   0.00000  Uiso   1.00
C1398  C     0.06953   0.86095   0.62869   0.00000  Uiso   1.00
C1399  C     0.03318   0.89218   0.64009   0.00000  Uiso   1.00
H1400  H     0.04246   0.91903   0.66458   0.00000  Uiso   1.00
H1401  H     0.02122   0.90995   0.61007   0.00000  Uiso   1.00
H1402  H     0.00817   0.87080   0.65407   0.00000  Uiso   1.00
H1403  H     0.05945   0.83569   0.60292   0.00000  Uiso   1.00
H1404  H     0.07923   0.84080   0.65821   0.00000  Uiso   1.00
H1405  H     0.11895   0.91210   0.63813   0.00000  Uiso   1.00
H1406  H     0.09352   0.91553   0.58713   0.00000  Uiso   1.00
C1407  C     0.10599   0.77255   0.88423   0.00000  Uiso   1.00
C1408  C     0.06807   0.80108   0.87083   0.00000  Uiso   1.00
C1409  C     0.03245   0.76878   0.85841   0.00000  Uiso   1.00
H1410  H     0.04188   0.74370   0.83257   0.00000  Uiso   1.00
H1411  H     0.02233   0.74879   0.88768   0.00000  Uiso   1.00
H1412  H     0.00613   0.78961   0.84588   0.00000  Uiso   1.00
H1413  H     0.05840   0.82368   0.89861   0.00000  Uiso   1.00
H1414  H     0.07547   0.82396   0.84253   0.00000  Uiso   1.00
H1415  H     0.11828   0.75332   0.85572   0.00000  Uiso   1.00
H1416  H     0.09629   0.74451   0.90729   0.00000  Uiso   1.00
C1417  C     0.22776   0.89008   0.88816   0.00000  Uiso   1.00
C1418  C     0.26371   0.86079   0.87141   0.00000  Uiso   1.00
C1419  C     0.30020   0.89191   0.86027   0.00000  Uiso   1.00
H1420  H     0.29107   0.91900   0.83593   0.00000  Uiso   1.00
H1421  H     0.31218   0.90939   0.89042   0.00000  Uiso   1.00
H1422  H     0.32514   0.87050   0.84621   0.00000  Uiso   1.00
H1423  H     0.27363   0.83536   0.89710   0.00000  Uiso   1.00
H1424  H     0.25403   0.84082   0.84178   0.00000  Uiso   1.00
H1425  H     0.21440   0.91204   0.86192   0.00000  Uiso   1.00
H1426  H     0.23979   0.91541   0.91295   0.00000  Uiso   1.00
C1427  C     0.22729   0.77263   0.61569   0.00000  Uiso   1.00
C1428  C     0.26519   0.80126   0.62899   0.00000  Uiso   1.00
C1429  C     0.30106   0.76906   0.64081   0.00000  Uiso   1.00
H1430  H     0.29192   0.74353   0.66639   0.00000  Uiso   1.00
H1431  H     0.31113   0.74961   0.61123   0.00000  Uiso   1.00
H1432  H     0.32732   0.78992   0.65344   0.00000  Uiso   1.00
H1433  H     0.27455   0.82421   0.60133   0.00000  Uiso   1.00
H1434  H     0.25791   0.82380   0.65756   0.00000  Uiso   1.00
H1435  H     0.21508   0.75338   0.64424   0.00000  Uiso   1.00
H1436  H     0.23697   0.74460   0.59262   0.00000  Uiso   1.00
F1437  F     0.04062   0.74885   0.74747   0.00000  Uiso   1.00
F1438  F     0.29269   0.91785   0.74791   0.00000  Uiso   1.00
F1439  F     0.29268   0.74882   0.75141   0.00000  Uiso   1.00
F1440  F     0.04068   0.91782   0.75286   0.00000  Uiso   1.00
C1441  C     0.42070   0.83333   0.75006   0.00000  Uiso   1.00
C1442  C     0.57930   0.83334   0.74991   0.00000  Uiso   1.00
C1443  C     0.50017   0.83320   0.66484   0.00000  Uiso   1.00
C1444  C     0.49981   0.83319   0.83516   0.00000  Uiso   1.00
C1445  C     0.47151   0.69151   0.72605   0.00000  Uiso   1.00
C1446  C     0.52900   0.97537   0.77319   0.00000  Uiso   1.00
C1447  C     0.52849   0.69150   0.77395   0.00000  Uiso   1.00
C1448  C     0.47100   0.97538   0.72681   0.00000  Uiso   1.00
C1449  C     0.35448   0.79080   0.74909   0.00000  Uiso   1.00
C1450  C     0.64551   0.87589   0.74942   0.00000  Uiso   1.00
C1451  C     0.64551   0.79079   0.75029   0.00000  Uiso   1.00
C1452  C     0.35451   0.87588   0.75090   0.00000  Uiso   1.00
C1453  C     0.47174   0.85776   0.54560   0.00000  Uiso   1.00
C1454  C     0.47211   0.80270   0.95262   0.00000  Uiso   1.00
C1455  C     0.52806   0.85776   0.95443   0.00000  Uiso   1.00
C1456  C     0.52765   0.80266   0.54735   0.00000  Uiso   1.00
C1457  C     0.47143   0.85968   0.59151   0.00000  Uiso   1.00
C1458  C     0.47155   0.80299   0.90660   0.00000  Uiso   1.00
C1459  C     0.52844   0.85966   0.90852   0.00000  Uiso   1.00
C1460  C     0.52831   0.80299   0.59336   0.00000  Uiso   1.00
C1461  C     0.50021   0.83234   0.61623   0.00000  Uiso   1.00
C1462  C     0.49970   0.83232   0.88377   0.00000  Uiso   1.00
C1463  C     0.49964   0.82973   0.52390   0.00000  Uiso   1.00
C1464  C     0.50010   0.82976   0.97610   0.00000  Uiso   1.00
C1465  C     0.62392   0.83334   0.74987   0.00000  Uiso   1.00
C1466  C     0.37608   0.83334   0.75003   0.00000  Uiso   1.00
Cu1467 Cu    0.50000   0.88022   0.75000   0.00000  Uiso   1.00
Cu1468 Cu    0.50000   0.78645   0.75000   0.00000  Uiso   1.00
H1469  H     0.44999   0.87818   0.52632   0.00000  Uiso   1.00
H1470  H     0.45040   0.78146   0.97054   0.00000  Uiso   1.00
H1471  H     0.54980   0.87816   0.97374   0.00000  Uiso   1.00
H1472  H     0.54934   0.78142   0.52940   0.00000  Uiso   1.00
N1473  N     0.50000   0.95069   0.75000   0.00000  Uiso   1.00
N1474  N     0.50000   0.71598   0.75000   0.00000  Uiso   1.00
O1475  O     0.43988   0.87291   0.74999   0.00000  Uiso   1.00
O1476  O     0.56012   0.79375   0.75001   0.00000  Uiso   1.00
O1477  O     0.56012   0.87291   0.75001   0.00000  Uiso   1.00
O1478  O     0.43988   0.79375   0.74999   0.00000  Uiso   1.00
O1479  O     0.50000   0.87293   0.68573   0.00000  Uiso   1.00
O1480  O     0.50000   0.79374   0.81427   0.00000  Uiso   1.00
O1481  O     0.50000   0.87293   0.81427   0.00000  Uiso   1.00
O1482  O     0.50000   0.79374   0.68573   0.00000  Uiso   1.00
F1483  F     0.44342   0.71466   0.70109   0.00000  Uiso   1.00
F1484  F     0.55892   0.95260   0.79557   0.00000  Uiso   1.00
F1485  F     0.55661   0.71466   0.79888   0.00000  Uiso   1.00
F1486  F     0.44106   0.95260   0.70448   0.00000  Uiso   1.00
C1487  C     0.43886   0.89017   0.61191   0.00000  Uiso   1.00
C1488  C     0.40287   0.86095   0.62869   0.00000  Uiso   1.00
C1489  C     0.36652   0.89218   0.64009   0.00000  Uiso   1.00
H1490  H     0.37579   0.91903   0.66458   0.00000  Uiso   1.00
H1491  H     0.35456   0.90995   0.61007   0.00000  Uiso   1.00
H1492  H     0.34150   0.87080   0.65407   0.00000  Uiso   1.00
H1493  H     0.39278   0.83569   0.60292   0.00000  Uiso   1.00
H1494  H     0.41257   0.84080   0.65821   0.00000  Uiso   1.00
H1495  H     0.45229   0.91210   0.63813   0.00000  Uiso   1.00
H1496  H     0.42685   0.91553   0.58713   0.00000  Uiso   1.00
C1497  C     0.43932   0.77255   0.88423   0.00000  Uiso   1.00
C1498  C     0.40141   0.80108   0.87083   0.00000  Uiso   1.00
C1499  C     0.36578   0.76878   0.85841   0.00000  Uiso   1.00
H1500  H     0.37521   0.74370   0.83257   0.00000  Uiso   1.00
H1501  H     0.35566   0.74879   0.88768   0.00000  Uiso   1.00
H1502  H     0.33946   0.78961   0.84588   0.00000  Uiso   1.00
H1503  H     0.39174   0.82368   0.89861   0.00000  Uiso   1.00
H1504  H     0.40880   0.82396   0.84253   0.00000  Uiso   1.00
H1505  H     0.45161   0.75332   0.85572   0.00000  Uiso   1.00
H1506  H     0.42963   0.74451   0.90729   0.00000  Uiso   1.00
C1507  C     0.56109   0.89008   0.88816   0.00000  Uiso   1.00
C1508  C     0.59704   0.86079   0.87141   0.00000  Uiso   1.00
C1509  C     0.63353   0.89191   0.86027   0.00000  Uiso   1.00
H1510  H     0.62440   0.91900   0.83593   0.00000  Uiso   1.00
H1511  H     0.64551   0.90939   0.89042   0.00000  Uiso   1.00
H1512  H     0.65848   0.87050   0.84621   0.00000  Uiso   1.00
H1513  H     0.60696   0.83536   0.89710   0.00000  Uiso   1.00
H1514  H     0.58737   0.84082   0.84178   0.00000  Uiso   1.00
H1515  H     0.54773   0.91204   0.86192   0.00000  Uiso   1.00
H1516  H     0.57313   0.91541   0.91295   0.00000  Uiso   1.00
C1517  C     0.56062   0.77263   0.61569   0.00000  Uiso   1.00
C1518  C     0.59852   0.80126   0.62899   0.00000  Uiso   1.00
C1519  C     0.63439   0.76906   0.64081   0.00000  Uiso   1.00
H1520  H     0.62525   0.74353   0.66639   0.00000  Uiso   1.00
H1521  H     0.64447   0.74961   0.61123   0.00000  Uiso   1.00
H1522  H     0.66066   0.78992   0.65344   0.00000  Uiso   1.00
H1523  H     0.60788   0.82421   0.60133   0.00000  Uiso   1.00
H1524  H     0.59124   0.82380   0.65756   0.00000  Uiso   1.00
H1525  H     0.54842   0.75338   0.64424   0.00000  Uiso   1.00
H1526  H     0.57030   0.74460   0.59262   0.00000  Uiso   1.00
F1527  F     0.37395   0.74885   0.74747   0.00000  Uiso   1.00
F1528  F     0.62602   0.91785   0.74791   0.00000  Uiso   1.00
F1529  F     0.62601   0.74882   0.75141   0.00000  Uiso   1.00
F1530  F     0.37402   0.91782   0.75286   0.00000  Uiso   1.00
C1531  C     0.75403   0.83333   0.75006   0.00000  Uiso   1.00
C1532  C     0.91263   0.83334   0.74991   0.00000  Uiso   1.00
C1533  C     0.83350   0.83320   0.66484   0.00000  Uiso   1.00
C1534  C     0.83314   0.83319   0.83516   0.00000  Uiso   1.00
C1535  C     0.80485   0.69151   0.72605   0.00000  Uiso   1.00
C1536  C     0.86233   0.97537   0.77319   0.00000  Uiso   1.00
C1537  C     0.86183   0.69150   0.77395   0.00000  Uiso   1.00
C1538  C     0.80433   0.97538   0.72681   0.00000  Uiso   1.00
C1539  C     0.68781   0.79080   0.74909   0.00000  Uiso   1.00
C1540  C     0.97884   0.87589   0.74942   0.00000  Uiso   1.00
C1541  C     0.97884   0.79079   0.75029   0.00000  Uiso   1.00
C1542  C     0.68784   0.87588   0.75090   0.00000  Uiso   1.00
C1543  C     0.80507   0.85776   0.54560   0.00000  Uiso   1.00
C1544  C     0.80544   0.80270   0.95262   0.00000  Uiso   1.00
C1545  C     0.86139   0.85776   0.95443   0.00000  Uiso   1.00
C1546  C     0.86099   0.80266   0.54735   0.00000  Uiso   1.00
C1547  C     0.80477   0.85968   0.59151   0.00000  Uiso   1.00
C1548  C     0.80488   0.80299   0.90660   0.00000  Uiso   1.00
C1549  C     0.86178   0.85966   0.90852   0.00000  Uiso   1.00
C1550  C     0.86164   0.80299   0.59336   0.00000  Uiso   1.00
C1551  C     0.83354   0.83234   0.61623   0.00000  Uiso   1.00
C1552  C     0.83303   0.83232   0.88377   0.00000  Uiso   1.00
C1553  C     0.83298   0.82973   0.52390   0.00000  Uiso   1.00
C1554  C     0.83343   0.82976   0.97610   0.00000  Uiso   1.00
C1555  C     0.95725   0.83334   0.74987   0.00000  Uiso   1.00
C1556  C     0.70941   0.83334   0.75003   0.00000  Uiso   1.00
Cu1557 Cu    0.83333   0.88022   0.75000   0.00000  Uiso   1.00
Cu1558 Cu    0.83333   0.78645   0.75000   0.00000  Uiso   1.00
H1559  H     0.78332   0.87818   0.52632   0.00000  Uiso   1.00
H1560  H     0.78373   0.78146   0.97054   0.00000  Uiso   1.00
H1561  H     0.88313   0.87816   0.97374   0.00000  Uiso   1.00
H1562  H     0.88267   0.78142   0.52940   0.00000  Uiso   1.00
N1563  N     0.83333   0.95069   0.75000   0.00000  Uiso   1.00
N1564  N     0.83333   0.71598   0.75000   0.00000  Uiso   1.00
O1565  O     0.77321   0.87291   0.74999   0.00000  Uiso   1.00
O1566  O     0.89345   0.79375   0.75001   0.00000  Uiso   1.00
O1567  O     0.89345   0.87291   0.75001   0.00000  Uiso   1.00
O1568  O     0.77321   0.79375   0.74999   0.00000  Uiso   1.00
O1569  O     0.83333   0.87293   0.68573   0.00000  Uiso   1.00
O1570  O     0.83334   0.79374   0.81427   0.00000  Uiso   1.00
O1571  O     0.83334   0.87293   0.81427   0.00000  Uiso   1.00
O1572  O     0.83333   0.79374   0.68573   0.00000  Uiso   1.00
F1573  F     0.77675   0.71466   0.70109   0.00000  Uiso   1.00
F1574  F     0.89225   0.95260   0.79557   0.00000  Uiso   1.00
F1575  F     0.88994   0.71466   0.79888   0.00000  Uiso   1.00
F1576  F     0.77439   0.95260   0.70448   0.00000  Uiso   1.00
C1577  C     0.77219   0.89017   0.61191   0.00000  Uiso   1.00
C1578  C     0.73620   0.86095   0.62869   0.00000  Uiso   1.00
C1579  C     0.69985   0.89218   0.64009   0.00000  Uiso   1.00
H1580  H     0.70913   0.91903   0.66458   0.00000  Uiso   1.00
H1581  H     0.68789   0.90995   0.61007   0.00000  Uiso   1.00
H1582  H     0.67483   0.87080   0.65407   0.00000  Uiso   1.00
H1583  H     0.72611   0.83569   0.60292   0.00000  Uiso   1.00
H1584  H     0.74590   0.84080   0.65821   0.00000  Uiso   1.00
H1585  H     0.78562   0.91210   0.63813   0.00000  Uiso   1.00
H1586  H     0.76018   0.91553   0.58713   0.00000  Uiso   1.00
C1587  C     0.77265   0.77255   0.88423   0.00000  Uiso   1.00
C1588  C     0.73474   0.80108   0.87083   0.00000  Uiso   1.00
C1589  C     0.69912   0.76878   0.85841   0.00000  Uiso   1.00
H1590  H     0.70855   0.74370   0.83257   0.00000  Uiso   1.00
H1591  H     0.68900   0.74879   0.88768   0.00000  Uiso   1.00
H1592  H     0.67280   0.78961   0.84588   0.00000  Uiso   1.00
H1593  H     0.72507   0.82368   0.89861   0.00000  Uiso   1.00
H1594  H     0.74213   0.82396   0.84253   0.00000  Uiso   1.00
H1595  H     0.78494   0.75332   0.85572   0.00000  Uiso   1.00
H1596  H     0.76296   0.74451   0.90729   0.00000  Uiso   1.00
C1597  C     0.89443   0.89008   0.88816   0.00000  Uiso   1.00
C1598  C     0.93038   0.86079   0.87141   0.00000  Uiso   1.00
C1599  C     0.96686   0.89191   0.86027   0.00000  Uiso   1.00
H1600  H     0.95774   0.91900   0.83593   0.00000  Uiso   1.00
H1601  H     0.97884   0.90939   0.89042   0.00000  Uiso   1.00
H1602  H     0.99181   0.87050   0.84621   0.00000  Uiso   1.00
H1603  H     0.94030   0.83536   0.89710   0.00000  Uiso   1.00
H1604  H     0.92070   0.84082   0.84178   0.00000  Uiso   1.00
H1605  H     0.88107   0.91204   0.86192   0.00000  Uiso   1.00
H1606  H     0.90646   0.91541   0.91295   0.00000  Uiso   1.00
C1607  C     0.89395   0.77263   0.61569   0.00000  Uiso   1.00
C1608  C     0.93185   0.80126   0.62899   0.00000  Uiso   1.00
C1609  C     0.96772   0.76906   0.64081   0.00000  Uiso   1.00
H1610  H     0.95859   0.74353   0.66639   0.00000  Uiso   1.00
H1611  H     0.97780   0.74961   0.61123   0.00000  Uiso   1.00
H1612  H     0.99399   0.78992   0.65344   0.00000  Uiso   1.00
H1613  H     0.94121   0.82421   0.60133   0.00000  Uiso   1.00
H1614  H     0.92457   0.82380   0.65756   0.00000  Uiso   1.00
H1615  H     0.88175   0.75338   0.64424   0.00000  Uiso   1.00
H1616  H     0.90364   0.74460   0.59262   0.00000  Uiso   1.00
F1617  F     0.70729   0.74885   0.74747   0.00000  Uiso   1.00
F1618  F     0.95935   0.91785   0.74791   0.00000  Uiso   1.00
F1619  F     0.95935   0.74882   0.75141   0.00000  Uiso   1.00
F1620  F     0.70735   0.91782   0.75286   0.00000  Uiso   1.00
loop_
_geom_bond_atom_site_label_1
_geom_bond_atom_site_label_2
_geom_bond_distance
_geom_bond_site_symmetry_2
_ccdc_geom_bond_type
C1     O38     1.293   .     A
C1     C26     1.455   .     S
C1     O35     1.293   .     A
C2     O36     1.293   .     A
C2     O37     1.293   .     A
C2     C25     1.455   .     S
C3     O42     1.294   .     A
C3     C21     1.478   .     S
C3     O39     1.301   .     A
C4     O41     1.301   .     A
C4     O40     1.294   .     A
C4     C22     1.478   .     S
C5     F43     1.355   .     S
C5     N34     1.366   .     A
C5     C548    1.414   1_545 S
C6     F44     1.350   .     S
C6     N33     1.368   .     A
C6     C277    1.414   .     S
C7     F45     1.355   .     S
C7     N34     1.366   .     A
C7     C546    1.414   1_545 S
C8     N33     1.368   .     A
C8     F46     1.350   .     S
C8     C275    1.414   .     S
C9     C26     1.405   .     A
C9     F87     1.358   .     S
C9     C191    1.381   1_455 S
C10    F88     1.358   .     S
C10    C25     1.405   .     A
C10    C102    1.381   .     S
C11    F89     1.358   .     S
C11    C25     1.405   .     A
C11    C99     1.381   .     S
C12    F90     1.358   .     S
C12    C26     1.405   .     A
C12    C190    1.381   1_455 S
C13    C23     1.386   .     A
C13    H29     1.085   .     S
C13    C17     1.397   .     A
C14    C18     1.399   .     A
C14    C24     1.387   .     A
C14    H30     1.085   .     S
C15    C19     1.397   .     A
C15    C24     1.386   .     A
C15    H31     1.085   .     S
C16    C20     1.399   .     A
C16    C23     1.387   .     A
C16    H32     1.085   .     S
C17    C21     1.428   .     A
C17    C47     1.513   .     S
C18    C57     1.518   .     S
C18    C22     1.430   .     A
C19    C67     1.513   .     S
C19    C22     1.428   .     A
C20    C77     1.518   .     S
C20    C21     1.430   .     A
C23    C834    1.453   1_554 S
C24    C833    1.453   .     S
Cu27   N33     2.014   .     S
Cu27   O39     1.965   .     S
Cu27   O35     1.972   .     S
Cu27   O41     1.965   .     S
Cu27   O37     1.972   .     S
Cu27   Cu28    2.680   .     S
Cu28   O40     1.965   .     S
Cu28   N34     2.014   .     S
Cu28   O38     1.972   .     S
Cu28   O42     1.965   .     S
Cu28   O36     1.972   .     S
C47    C48     1.533   .     S
C47    H55     1.101   .     S
C47    H56     1.113   .     S
C48    H54     1.109   .     S
C48    H53     1.112   .     S
C48    C49     1.528   .     S
C49    H51     1.111   .     S
C49    H52     1.108   .     S
C49    H50     1.109   .     S
C57    H66     1.113   .     S
C57    H65     1.106   .     S
C57    C58     1.532   .     S
C58    H64     1.110   .     S
C58    C59     1.528   .     S
C58    H63     1.112   .     S
C59    H60     1.110   .     S
C59    H61     1.111   .     S
C59    H62     1.108   .     S
C67    C68     1.533   .     S
C67    H75     1.100   .     S
C67    H76     1.113   .     S
C68    H74     1.109   .     S
C68    C69     1.527   .     S
C68    H73     1.112   .     S
C69    H71     1.111   .     S
C69    H72     1.108   .     S
C69    H70     1.109   .     S
C77    C78     1.532   .     S
C77    H86     1.113   .     S
C77    H85     1.106   .     S
C78    H83     1.112   .     S
C78    C79     1.528   .     S
C78    H84     1.110   .     S
C79    H81     1.111   .     S
C79    H82     1.108   .     S
C79    H80     1.110   .     S
C91    O128    1.293   .     A
C91    C116    1.455   .     S
C91    O125    1.293   .     A
C92    O126    1.293   .     A
C92    O127    1.293   .     A
C92    C115    1.455   .     S
C93    O132    1.294   .     A
C93    C111    1.478   .     S
C93    O129    1.301   .     A
C94    O131    1.301   .     A
C94    O130    1.294   .     A
C94    C112    1.478   .     S
C95    F133    1.355   .     S
C95    N124    1.366   .     A
C95    C638    1.414   1_545 S
C96    F134    1.350   .     S
C96    N123    1.368   .     A
C96    C367    1.414   .     S
C97    F135    1.355   .     S
C97    N124    1.366   .     A
C97    C636    1.414   1_545 S
C98    N123    1.368   .     A
C98    F136    1.350   .     S
C98    C365    1.414   .     S
C99    C116    1.405   .     A
C99    F177    1.358   .     S
C100   F178    1.358   .     S
C100   C115    1.405   .     A
C100   C192    1.381   .     S
C101   F179    1.358   .     S
C101   C115    1.405   .     A
C101   C189    1.381   .     S
C102   F180    1.358   .     S
C102   C116    1.405   .     A
C103   C113    1.386   .     A
C103   H119    1.085   .     S
C103   C107    1.397   .     A
C104   C108    1.399   .     A
C104   C114    1.387   .     A
C104   H120    1.085   .     S
C105   C109    1.397   .     A
C105   C114    1.386   .     A
C105   H121    1.085   .     S
C106   C110    1.399   .     A
C106   C113    1.387   .     A
C106   H122    1.085   .     S
C107   C111    1.428   .     A
C107   C137    1.513   .     S
C108   C147    1.518   .     S
C108   C112    1.430   .     A
C109   C157    1.513   .     S
C109   C112    1.428   .     A
C110   C167    1.518   .     S
C110   C111    1.430   .     A
C113   C924    1.453   1_554 S
C114   C923    1.453   .     S
Cu117  N123    2.014   .     S
Cu117  O129    1.965   .     S
Cu117  O125    1.972   .     S
Cu117  O131    1.965   .     S
Cu117  O127    1.972   .     S
Cu117  Cu118   2.680   .     S
Cu118  O130    1.965   .     S
Cu118  N124    2.014   .     S
Cu118  O128    1.972   .     S
Cu118  O132    1.965   .     S
Cu118  O126    1.972   .     S
C137   C138    1.533   .     S
C137   H145    1.101   .     S
C137   H146    1.113   .     S
C138   H144    1.109   .     S
C138   H143    1.112   .     S
C138   C139    1.528   .     S
C139   H141    1.111   .     S
C139   H142    1.108   .     S
C139   H140    1.109   .     S
C147   H156    1.113   .     S
C147   H155    1.106   .     S
C147   C148    1.532   .     S
C148   H154    1.110   .     S
C148   C149    1.528   .     S
C148   H153    1.112   .     S
C149   H150    1.110   .     S
C149   H151    1.111   .     S
C149   H152    1.108   .     S
C157   C158    1.533   .     S
C157   H165    1.100   .     S
C157   H166    1.113   .     S
C158   H164    1.109   .     S
C158   C159    1.527   .     S
C158   H163    1.112   .     S
C159   H161    1.111   .     S
C159   H162    1.108   .     S
C159   H160    1.109   .     S
C167   C168    1.532   .     S
C167   H176    1.113   .     S
C167   H175    1.106   .     S
C168   H173    1.112   .     S
C168   C169    1.528   .     S
C168   H174    1.110   .     S
C169   H171    1.111   .     S
C169   H172    1.108   .     S
C169   H170    1.110   .     S
C181   O218    1.293   .     A
C181   C206    1.455   .     S
C181   O215    1.293   .     A
C182   O216    1.293   .     A
C182   O217    1.293   .     A
C182   C205    1.455   .     S
C183   O222    1.294   .     A
C183   C201    1.478   .     S
C183   O219    1.301   .     A
C184   O221    1.301   .     A
C184   O220    1.294   .     A
C184   C202    1.478   .     S
C185   F223    1.355   .     S
C185   N214    1.366   .     A
C185   C728    1.414   1_545 S
C186   F224    1.350   .     S
C186   N213    1.368   .     A
C186   C457    1.414   .     S
C187   F225    1.355   .     S
C187   N214    1.366   .     A
C187   C726    1.414   1_545 S
C188   N213    1.368   .     A
C188   F226    1.350   .     S
C188   C455    1.414   .     S
C189   C206    1.405   .     A
C189   F267    1.358   .     S
C190   F268    1.358   .     S
C190   C205    1.405   .     A
C190   C12     1.381   1_655 S
C191   F269    1.358   .     S
C191   C205    1.405   .     A
C191   C9      1.381   1_655 S
C192   F270    1.358   .     S
C192   C206    1.405   .     A
C193   C203    1.386   .     A
C193   H209    1.085   .     S
C193   C197    1.397   .     A
C194   C198    1.399   .     A
C194   C204    1.387   .     A
C194   H210    1.085   .     S
C195   C199    1.397   .     A
C195   C204    1.386   .     A
C195   H211    1.085   .     S
C196   C200    1.399   .     A
C196   C203    1.387   .     A
C196   H212    1.085   .     S
C197   C201    1.428   .     A
C197   C227    1.513   .     S
C198   C237    1.518   .     S
C198   C202    1.430   .     A
C199   C247    1.513   .     S
C199   C202    1.428   .     A
C200   C257    1.518   .     S
C200   C201    1.430   .     A
C203   C1014   1.453   1_554 S
C204   C1013   1.453   .     S
Cu207  N213    2.014   .     S
Cu207  O219    1.965   .     S
Cu207  O215    1.972   .     S
Cu207  O221    1.965   .     S
Cu207  O217    1.972   .     S
Cu207  Cu208   2.680   .     S
Cu208  O220    1.965   .     S
Cu208  N214    2.014   .     S
Cu208  O218    1.972   .     S
Cu208  O222    1.965   .     S
Cu208  O216    1.972   .     S
C227   C228    1.533   .     S
C227   H235    1.101   .     S
C227   H236    1.113   .     S
C228   H234    1.109   .     S
C228   H233    1.112   .     S
C228   C229    1.528   .     S
C229   H231    1.111   .     S
C229   H232    1.108   .     S
C229   H230    1.109   .     S
C237   H246    1.113   .     S
C237   H245    1.106   .     S
C237   C238    1.532   .     S
C238   H244    1.110   .     S
C238   C239    1.528   .     S
C238   H243    1.112   .     S
C239   H240    1.110   .     S
C239   H241    1.111   .     S
C239   H242    1.108   .     S
C247   C248    1.533   .     S
C247   H255    1.100   .     S
C247   H256    1.113   .     S
C248   H254    1.109   .     S
C248   C249    1.527   .     S
C248   H253    1.112   .     S
C249   H251    1.111   .     S
C249   H252    1.108   .     S
C249   H250    1.109   .     S
C257   C258    1.532   .     S
C257   H266    1.113   .     S
C257   H265    1.106   .     S
C258   H263    1.112   .     S
C258   C259    1.528   .     S
C258   H264    1.110   .     S
C259   H261    1.111   .     S
C259   H262    1.108   .     S
C259   H260    1.110   .     S
C271   O308    1.293   .     A
C271   C296    1.455   .     S
C271   O305    1.293   .     A
C272   O306    1.293   .     A
C272   O307    1.293   .     A
C272   C295    1.455   .     S
C273   O312    1.294   .     A
C273   C291    1.478   .     S
C273   O309    1.301   .     A
C274   O311    1.301   .     A
C274   O310    1.294   .     A
C274   C292    1.478   .     S
C275   F313    1.355   .     S
C275   N304    1.366   .     A
C276   F314    1.350   .     S
C276   N303    1.368   .     A
C276   C547    1.414   .     S
C277   F315    1.355   .     S
C277   N304    1.366   .     A
C278   N303    1.368   .     A
C278   F316    1.350   .     S
C278   C545    1.414   .     S
C279   C296    1.405   .     A
C279   F357    1.358   .     S
C279   C461    1.381   1_455 S
C280   F358    1.358   .     S
C280   C295    1.405   .     A
C280   C372    1.381   .     S
C281   F359    1.358   .     S
C281   C295    1.405   .     A
C281   C369    1.381   .     S
C282   F360    1.358   .     S
C282   C296    1.405   .     A
C282   C460    1.381   1_455 S
C283   C293    1.386   .     A
C283   H299    1.085   .     S
C283   C287    1.397   .     A
C284   C288    1.399   .     A
C284   C294    1.387   .     A
C284   H300    1.085   .     S
C285   C289    1.397   .     A
C285   C294    1.386   .     A
C285   H301    1.085   .     S
C286   C290    1.399   .     A
C286   C293    1.387   .     A
C286   H302    1.085   .     S
C287   C291    1.428   .     A
C287   C317    1.513   .     S
C288   C327    1.518   .     S
C288   C292    1.430   .     A
C289   C337    1.513   .     S
C289   C292    1.428   .     A
C290   C347    1.518   .     S
C290   C291    1.430   .     A
C293   C1104   1.453   1_554 S
C294   C1103   1.453   .     S
Cu297  N303    2.014   .     S
Cu297  O309    1.965   .     S
Cu297  O305    1.972   .     S
Cu297  O311    1.965   .     S
Cu297  O307    1.972   .     S
Cu297  Cu298   2.680   .     S
Cu298  O310    1.965   .     S
Cu298  N304    2.014   .     S
Cu298  O308    1.972   .     S
Cu298  O312    1.965   .     S
Cu298  O306    1.972   .     S
C317   C318    1.533   .     S
C317   H325    1.101   .     S
C317   H326    1.113   .     S
C318   H324    1.109   .     S
C318   H323    1.112   .     S
C318   C319    1.528   .     S
C319   H321    1.111   .     S
C319   H322    1.108   .     S
C319   H320    1.109   .     S
C327   H336    1.113   .     S
C327   H335    1.106   .     S
C327   C328    1.532   .     S
C328   H334    1.110   .     S
C328   C329    1.528   .     S
C328   H333    1.112   .     S
C329   H330    1.110   .     S
C329   H331    1.111   .     S
C329   H332    1.108   .     S
C337   C338    1.533   .     S
C337   H345    1.100   .     S
C337   H346    1.113   .     S
C338   H344    1.109   .     S
C338   C339    1.527   .     S
C338   H343    1.112   .     S
C339   H341    1.111   .     S
C339   H342    1.108   .     S
C339   H340    1.109   .     S
C347   C348    1.532   .     S
C347   H356    1.113   .     S
C347   H355    1.106   .     S
C348   H353    1.112   .     S
C348   C349    1.528   .     S
C348   H354    1.110   .     S
C349   H351    1.111   .     S
C349   H352    1.108   .     S
C349   H350    1.110   .     S
C361   O398    1.293   .     A
C361   C386    1.455   .     S
C361   O395    1.293   .     A
C362   O396    1.293   .     A
C362   O397    1.293   .     A
C362   C385    1.455   .     S
C363   O402    1.294   .     A
C363   C381    1.478   .     S
C363   O399    1.301   .     A
C364   O401    1.301   .     A
C364   O400    1.294   .     A
C364   C382    1.478   .     S
C365   F403    1.355   .     S
C365   N394    1.366   .     A
C366   F404    1.350   .     S
C366   N393    1.368   .     A
C366   C637    1.414   .     S
C367   F405    1.355   .     S
C367   N394    1.366   .     A
C368   N393    1.368   .     A
C368   F406    1.350   .     S
C368   C635    1.414   .     S
C369   C386    1.405   .     A
C369   F447    1.358   .     S
C370   F448    1.358   .     S
C370   C385    1.405   .     A
C370   C462    1.381   .     S
C371   F449    1.358   .     S
C371   C385    1.405   .     A
C371   C459    1.381   .     S
C372   F450    1.358   .     S
C372   C386    1.405   .     A
C373   C383    1.386   .     A
C373   H389    1.085   .     S
C373   C377    1.397   .     A
C374   C378    1.399   .     A
C374   C384    1.387   .     A
C374   H390    1.085   .     S
C375   C379    1.397   .     A
C375   C384    1.386   .     A
C375   H391    1.085   .     S
C376   C380    1.399   .     A
C376   C383    1.387   .     A
C376   H392    1.085   .     S
C377   C381    1.428   .     A
C377   C407    1.513   .     S
C378   C417    1.518   .     S
C378   C382    1.430   .     A
C379   C427    1.513   .     S
C379   C382    1.428   .     A
C380   C437    1.518   .     S
C380   C381    1.430   .     A
C383   C1194   1.453   1_554 S
C384   C1193   1.453   .     S
Cu387  N393    2.014   .     S
Cu387  O399    1.965   .     S
Cu387  O395    1.972   .     S
Cu387  O401    1.965   .     S
Cu387  O397    1.972   .     S
Cu387  Cu388   2.680   .     S
Cu388  O400    1.965   .     S
Cu388  N394    2.014   .     S
Cu388  O398    1.972   .     S
Cu388  O402    1.965   .     S
Cu388  O396    1.972   .     S
C407   C408    1.533   .     S
C407   H415    1.101   .     S
C407   H416    1.113   .     S
C408   H414    1.109   .     S
C408   H413    1.112   .     S
C408   C409    1.528   .     S
C409   H411    1.111   .     S
C409   H412    1.108   .     S
C409   H410    1.109   .     S
C417   H426    1.113   .     S
C417   H425    1.106   .     S
C417   C418    1.532   .     S
C418   H424    1.110   .     S
C418   C419    1.528   .     S
C418   H423    1.112   .     S
C419   H420    1.110   .     S
C419   H421    1.111   .     S
C419   H422    1.108   .     S
C427   C428    1.533   .     S
C427   H435    1.100   .     S
C427   H436    1.113   .     S
C428   H434    1.109   .     S
C428   C429    1.527   .     S
C428   H433    1.112   .     S
C429   H431    1.111   .     S
C429   H432    1.108   .     S
C429   H430    1.109   .     S
C437   C438    1.532   .     S
C437   H446    1.113   .     S
C437   H445    1.106   .     S
C438   H443    1.112   .     S
C438   C439    1.528   .     S
C438   H444    1.110   .     S
C439   H441    1.111   .     S
C439   H442    1.108   .     S
C439   H440    1.110   .     S
C451   O488    1.293   .     A
C451   C476    1.455   .     S
C451   O485    1.293   .     A
C452   O486    1.293   .     A
C452   O487    1.293   .     A
C452   C475    1.455   .     S
C453   O492    1.294   .     A
C453   C471    1.478   .     S
C453   O489    1.301   .     A
C454   O491    1.301   .     A
C454   O490    1.294   .     A
C454   C472    1.478   .     S
C455   F493    1.355   .     S
C455   N484    1.366   .     A
C456   F494    1.350   .     S
C456   N483    1.368   .     A
C456   C727    1.414   .     S
C457   F495    1.355   .     S
C457   N484    1.366   .     A
C458   N483    1.368   .     A
C458   F496    1.350   .     S
C458   C725    1.414   .     S
C459   C476    1.405   .     A
C459   F537    1.358   .     S
C460   F538    1.358   .     S
C460   C475    1.405   .     A
C460   C282    1.381   1_655 S
C461   F539    1.358   .     S
C461   C475    1.405   .     A
C461   C279    1.381   1_655 S
C462   F540    1.358   .     S
C462   C476    1.405   .     A
C463   C473    1.386   .     A
C463   H479    1.085   .     S
C463   C467    1.397   .     A
C464   C468    1.399   .     A
C464   C474    1.387   .     A
C464   H480    1.085   .     S
C465   C469    1.397   .     A
C465   C474    1.386   .     A
C465   H481    1.085   .     S
C466   C470    1.399   .     A
C466   C473    1.387   .     A
C466   H482    1.085   .     S
C467   C471    1.428   .     A
C467   C497    1.513   .     S
C468   C507    1.518   .     S
C468   C472    1.430   .     A
C469   C517    1.513   .     S
C469   C472    1.428   .     A
C470   C527    1.518   .     S
C470   C471    1.430   .     A
C473   C1284   1.453   1_554 S
C474   C1283   1.453   .     S
Cu477  N483    2.014   .     S
Cu477  O489    1.965   .     S
Cu477  O485    1.972   .     S
Cu477  O491    1.965   .     S
Cu477  O487    1.972   .     S
Cu477  Cu478   2.680   .     S
Cu478  O490    1.965   .     S
Cu478  N484    2.014   .     S
Cu478  O488    1.972   .     S
Cu478  O492    1.965   .     S
Cu478  O486    1.972   .     S
C497   C498    1.533   .     S
C497   H505    1.101   .     S
C497   H506    1.113   .     S
C498   H504    1.109   .     S
C498   H503    1.112   .     S
C498   C499    1.528   .     S
C499   H501    1.111   .     S
C499   H502    1.108   .     S
C499   H500    1.109   .     S
C507   H516    1.113   .     S
C507   H515    1.106   .     S
C507   C508    1.532   .     S
C508   H514    1.110   .     S
C508   C509    1.528   .     S
C508   H513    1.112   .     S
C509   H510    1.110   .     S
C509   H511    1.111   .     S
C509   H512    1.108   .     S
C517   C518    1.533   .     S
C517   H525    1.100   .     S
C517   H526    1.113   .     S
C518   H524    1.109   .     S
C518   C519    1.527   .     S
C518   H523    1.112   .     S
C519   H521    1.111   .     S
C519   H522    1.108   .     S
C519   H520    1.109   .     S
C527   C528    1.532   .     S
C527   H536    1.113   .     S
C527   H535    1.106   .     S
C528   H533    1.112   .     S
C528   C529    1.528   .     S
C528   H534    1.110   .     S
C529   H531    1.111   .     S
C529   H532    1.108   .     S
C529   H530    1.110   .     S
C541   O578    1.293   .     A
C541   C566    1.455   .     S
C541   O575    1.293   .     A
C542   O576    1.293   .     A
C542   O577    1.293   .     A
C542   C565    1.455   .     S
C543   O582    1.294   .     A
C543   C561    1.478   .     S
C543   O579    1.301   .     A
C544   O581    1.301   .     A
C544   O580    1.294   .     A
C544   C562    1.478   .     S
C545   F583    1.355   .     S
C545   N574    1.366   .     A
C546   F584    1.350   .     S
C546   N573    1.368   .     A
C546   C7      1.414   1_565 S
C547   F585    1.355   .     S
C547   N574    1.366   .     A
C548   N573    1.368   .     A
C548   F586    1.350   .     S
C548   C5      1.414   1_565 S
C549   C566    1.405   .     A
C549   F627    1.358   .     S
C549   C731    1.381   1_455 S
C550   F628    1.358   .     S
C550   C565    1.405   .     A
C550   C642    1.381   .     S
C551   F629    1.358   .     S
C551   C565    1.405   .     A
C551   C639    1.381   .     S
C552   F630    1.358   .     S
C552   C566    1.405   .     A
C552   C730    1.381   1_455 S
C553   C563    1.386   .     A
C553   H569    1.085   .     S
C553   C557    1.397   .     A
C554   C558    1.399   .     A
C554   C564    1.387   .     A
C554   H570    1.085   .     S
C555   C559    1.397   .     A
C555   C564    1.386   .     A
C555   H571    1.085   .     S
C556   C560    1.399   .     A
C556   C563    1.387   .     A
C556   H572    1.085   .     S
C557   C561    1.428   .     A
C557   C587    1.513   .     S
C558   C597    1.518   .     S
C558   C562    1.430   .     A
C559   C607    1.513   .     S
C559   C562    1.428   .     A
C560   C617    1.518   .     S
C560   C561    1.430   .     A
C563   C1374   1.453   1_554 S
C564   C1373   1.453   .     S
Cu567  N573    2.014   .     S
Cu567  O579    1.965   .     S
Cu567  O575    1.972   .     S
Cu567  O581    1.965   .     S
Cu567  O577    1.972   .     S
Cu567  Cu568   2.680   .     S
Cu568  O580    1.965   .     S
Cu568  N574    2.014   .     S
Cu568  O578    1.972   .     S
Cu568  O582    1.965   .     S
Cu568  O576    1.972   .     S
C587   C588    1.533   .     S
C587   H595    1.101   .     S
C587   H596    1.113   .     S
C588   H594    1.109   .     S
C588   H593    1.112   .     S
C588   C589    1.528   .     S
C589   H591    1.111   .     S
C589   H592    1.108   .     S
C589   H590    1.109   .     S
C597   H606    1.113   .     S
C597   H605    1.106   .     S
C597   C598    1.532   .     S
C598   H604    1.110   .     S
C598   C599    1.528   .     S
C598   H603    1.112   .     S
C599   H600    1.110   .     S
C599   H601    1.111   .     S
C599   H602    1.108   .     S
C607   C608    1.533   .     S
C607   H615    1.100   .     S
C607   H616    1.113   .     S
C608   H614    1.109   .     S
C608   C609    1.527   .     S
C608   H613    1.112   .     S
C609   H611    1.111   .     S
C609   H612    1.108   .     S
C609   H610    1.109   .     S
C617   C618    1.532   .     S
C617   H626    1.113   .     S
C617   H625    1.106   .     S
C618   H623    1.112   .     S
C618   C619    1.528   .     S
C618   H624    1.110   .     S
C619   H621    1.111   .     S
C619   H622    1.108   .     S
C619   H620    1.110   .     S
C631   O668    1.293   .     A
C631   C656    1.455   .     S
C631   O665    1.293   .     A
C632   O666    1.293   .     A
C632   O667    1.293   .     A
C632   C655    1.455   .     S
C633   O672    1.294   .     A
C633   C651    1.478   .     S
C633   O669    1.301   .     A
C634   O671    1.301   .     A
C634   O670    1.294   .     A
C634   C652    1.478   .     S
C635   F673    1.355   .     S
C635   N664    1.366   .     A
C636   F674    1.350   .     S
C636   N663    1.368   .     A
C636   C97     1.414   1_565 S
C637   F675    1.355   .     S
C637   N664    1.366   .     A
C638   N663    1.368   .     A
C638   F676    1.350   .     S
C638   C95     1.414   1_565 S
C639   C656    1.405   .     A
C639   F717    1.358   .     S
C640   F718    1.358   .     S
C640   C655    1.405   .     A
C640   C732    1.381   .     S
C641   F719    1.358   .     S
C641   C655    1.405   .     A
C641   C729    1.381   .     S
C642   F720    1.358   .     S
C642   C656    1.405   .     A
C643   C653    1.386   .     A
C643   H659    1.085   .     S
C643   C647    1.397   .     A
C644   C648    1.399   .     A
C644   C654    1.387   .     A
C644   H660    1.085   .     S
C645   C649    1.397   .     A
C645   C654    1.386   .     A
C645   H661    1.085   .     S
C646   C650    1.399   .     A
C646   C653    1.387   .     A
C646   H662    1.085   .     S
C647   C651    1.428   .     A
C647   C677    1.513   .     S
C648   C687    1.518   .     S
C648   C652    1.430   .     A
C649   C697    1.513   .     S
C649   C652    1.428   .     A
C650   C707    1.518   .     S
C650   C651    1.430   .     A
C653   C1464   1.453   1_554 S
C654   C1463   1.453   .     S
Cu657  N663    2.014   .     S
Cu657  O669    1.965   .     S
Cu657  O665    1.972   .     S
Cu657  O671    1.965   .     S
Cu657  O667    1.972   .     S
Cu657  Cu658   2.680   .     S
Cu658  O670    1.965   .     S
Cu658  N664    2.014   .     S
Cu658  O668    1.972   .     S
Cu658  O672    1.965   .     S
Cu658  O666    1.972   .     S
C677   C678    1.533   .     S
C677   H685    1.101   .     S
C677   H686    1.113   .     S
C678   H684    1.109   .     S
C678   H683    1.112   .     S
C678   C679    1.528   .     S
C679   H681    1.111   .     S
C679   H682    1.108   .     S
C679   H680    1.109   .     S
C687   H696    1.113   .     S
C687   H695    1.106   .     S
C687   C688    1.532   .     S
C688   H694    1.110   .     S
C688   C689    1.528   .     S
C688   H693    1.112   .     S
C689   H690    1.110   .     S
C689   H691    1.111   .     S
C689   H692    1.108   .     S
C697   C698    1.533   .     S
C697   H705    1.100   .     S
C697   H706    1.113   .     S
C698   H704    1.109   .     S
C698   C699    1.527   .     S
C698   H703    1.112   .     S
C699   H701    1.111   .     S
C699   H702    1.108   .     S
C699   H700    1.109   .     S
C707   C708    1.532   .     S
C707   H716    1.113   .     S
C707   H715    1.106   .     S
C708   H713    1.112   .     S
C708   C709    1.528   .     S
C708   H714    1.110   .     S
C709   H711    1.111   .     S
C709   H712    1.108   .     S
C709   H710    1.110   .     S
C721   O758    1.293   .     A
C721   C746    1.455   .     S
C721   O755    1.293   .     A
C722   O756    1.293   .     A
C722   O757    1.293   .     A
C722   C745    1.455   .     S
C723   O762    1.294   .     A
C723   C741    1.478   .     S
C723   O759    1.301   .     A
C724   O761    1.301   .     A
C724   O760    1.294   .     A
C724   C742    1.478   .     S
C725   F763    1.355   .     S
C725   N754    1.366   .     A
C726   F764    1.350   .     S
C726   N753    1.368   .     A
C726   C187    1.414   1_565 S
C727   F765    1.355   .     S
C727   N754    1.366   .     A
C728   N753    1.368   .     A
C728   F766    1.350   .     S
C728   C185    1.414   1_565 S
C729   C746    1.405   .     A
C729   F807    1.358   .     S
C730   F808    1.358   .     S
C730   C745    1.405   .     A
C730   C552    1.381   1_655 S
C731   F809    1.358   .     S
C731   C745    1.405   .     A
C731   C549    1.381   1_655 S
C732   F810    1.358   .     S
C732   C746    1.405   .     A
C733   C743    1.386   .     A
C733   H749    1.085   .     S
C733   C737    1.397   .     A
C734   C738    1.399   .     A
C734   C744    1.387   .     A
C734   H750    1.085   .     S
C735   C739    1.397   .     A
C735   C744    1.386   .     A
C735   H751    1.085   .     S
C736   C740    1.399   .     A
C736   C743    1.387   .     A
C736   H752    1.085   .     S
C737   C741    1.428   .     A
C737   C767    1.513   .     S
C738   C777    1.518   .     S
C738   C742    1.430   .     A
C739   C787    1.513   .     S
C739   C742    1.428   .     A
C740   C797    1.518   .     S
C740   C741    1.430   .     A
C743   C1554   1.453   1_554 S
C744   C1553   1.453   .     S
Cu747  N753    2.014   .     S
Cu747  O759    1.965   .     S
Cu747  O755    1.972   .     S
Cu747  O761    1.965   .     S
Cu747  O757    1.972   .     S
Cu747  Cu748   2.680   .     S
Cu748  O760    1.965   .     S
Cu748  N754    2.014   .     S
Cu748  O758    1.972   .     S
Cu748  O762    1.965   .     S
Cu748  O756    1.972   .     S
C767   C768    1.533   .     S
C767   H775    1.101   .     S
C767   H776    1.113   .     S
C768   H774    1.109   .     S
C768   H773    1.112   .     S
C768   C769    1.528   .     S
C769   H771    1.111   .     S
C769   H772    1.108   .     S
C769   H770    1.109   .     S
C777   H786    1.113   .     S
C777   H785    1.106   .     S
C777   C778    1.532   .     S
C778   H784    1.110   .     S
C778   C779    1.528   .     S
C778   H783    1.112   .     S
C779   H780    1.110   .     S
C779   H781    1.111   .     S
C779   H782    1.108   .     S
C787   C788    1.533   .     S
C787   H795    1.100   .     S
C787   H796    1.113   .     S
C788   H794    1.109   .     S
C788   C789    1.527   .     S
C788   H793    1.112   .     S
C789   H791    1.111   .     S
C789   H792    1.108   .     S
C789   H790    1.109   .     S
C797   C798    1.532   .     S
C797   H806    1.113   .     S
C797   H805    1.106   .     S
C798   H803    1.112   .     S
C798   C799    1.528   .     S
C798   H804    1.110   .     S
C799   H801    1.111   .     S
C799   H802    1.108   .     S
C799   H800    1.110   .     S
C811   O848    1.293   .     A
C811   C836    1.455   .     S
C811   O845    1.293   .     A
C812   O846    1.293   .     A
C812   O847    1.293   .     A
C812   C835    1.455   .     S
C813   O852    1.294   .     A
C813   C831    1.478   .     S
C813   O849    1.301   .     A
C814   O851    1.301   .     A
C814   O850    1.294   .     A
C814   C832    1.478   .     S
C815   F853    1.355   .     S
C815   N844    1.366   .     A
C815   C1358   1.414   1_545 S
C816   F854    1.350   .     S
C816   N843    1.368   .     A
C816   C1087   1.414   .     S
C817   F855    1.355   .     S
C817   N844    1.366   .     A
C817   C1356   1.414   1_545 S
C818   N843    1.368   .     A
C818   F856    1.350   .     S
C818   C1085   1.414   .     S
C819   C836    1.405   .     A
C819   F897    1.358   .     S
C819   C1001   1.381   1_455 S
C820   F898    1.358   .     S
C820   C835    1.405   .     A
C820   C912    1.381   .     S
C821   F899    1.358   .     S
C821   C835    1.405   .     A
C821   C909    1.381   .     S
C822   F900    1.358   .     S
C822   C836    1.405   .     A
C822   C1000   1.381   1_455 S
C823   C833    1.386   .     A
C823   H839    1.085   .     S
C823   C827    1.397   .     A
C824   C828    1.399   .     A
C824   C834    1.387   .     A
C824   H840    1.085   .     S
C825   C829    1.397   .     A
C825   C834    1.386   .     A
C825   H841    1.085   .     S
C826   C830    1.399   .     A
C826   C833    1.387   .     A
C826   H842    1.085   .     S
C827   C831    1.428   .     A
C827   C857    1.513   .     S
C828   C867    1.518   .     S
C828   C832    1.430   .     A
C829   C877    1.513   .     S
C829   C832    1.428   .     A
C830   C887    1.518   .     S
C830   C831    1.430   .     A
C834   C23     1.453   1_556 S
Cu837  N843    2.014   .     S
Cu837  O849    1.965   .     S
Cu837  O845    1.972   .     S
Cu837  O851    1.965   .     S
Cu837  O847    1.972   .     S
Cu837  Cu838   2.680   .     S
Cu838  O850    1.965   .     S
Cu838  N844    2.014   .     S
Cu838  O848    1.972   .     S
Cu838  O852    1.965   .     S
Cu838  O846    1.972   .     S
C857   C858    1.533   .     S
C857   H865    1.101   .     S
C857   H866    1.113   .     S
C858   H864    1.109   .     S
C858   H863    1.112   .     S
C858   C859    1.528   .     S
C859   H861    1.111   .     S
C859   H862    1.108   .     S
C859   H860    1.109   .     S
C867   H876    1.113   .     S
C867   H875    1.106   .     S
C867   C868    1.532   .     S
C868   H874    1.110   .     S
C868   C869    1.528   .     S
C868   H873    1.112   .     S
C869   H870    1.110   .     S
C869   H871    1.111   .     S
C869   H872    1.108   .     S
C877   C878    1.533   .     S
C877   H885    1.100   .     S
C877   H886    1.113   .     S
C878   H884    1.109   .     S
C878   C879    1.527   .     S
C878   H883    1.112   .     S
C879   H881    1.111   .     S
C879   H882    1.108   .     S
C879   H880    1.109   .     S
C887   C888    1.532   .     S
C887   H896    1.113   .     S
C887   H895    1.106   .     S
C888   H893    1.112   .     S
C888   C889    1.528   .     S
C888   H894    1.110   .     S
C889   H891    1.111   .     S
C889   H892    1.108   .     S
C889   H890    1.110   .     S
C901   O938    1.293   .     A
C901   C926    1.455   .     S
C901   O935    1.293   .     A
C902   O936    1.293   .     A
C902   O937    1.293   .     A
C902   C925    1.455   .     S
C903   O942    1.294   .     A
C903   C921    1.478   .     S
C903   O939    1.301   .     A
C904   O941    1.301   .     A
C904   O940    1.294   .     A
C904   C922    1.478   .     S
C905   F943    1.355   .     S
C905   N934    1.366   .     A
C905   C1448   1.414   1_545 S
C906   F944    1.350   .     S
C906   N933    1.368   .     A
C906   C1177   1.414   .     S
C907   F945    1.355   .     S
C907   N934    1.366   .     A
C907   C1446   1.414   1_545 S
C908   N933    1.368   .     A
C908   F946    1.350   .     S
C908   C1175   1.414   .     S
C909   C926    1.405   .     A
C909   F987    1.358   .     S
C910   F988    1.358   .     S
C910   C925    1.405   .     A
C910   C1002   1.381   .     S
C911   F989    1.358   .     S
C911   C925    1.405   .     A
C911   C999    1.381   .     S
C912   F990    1.358   .     S
C912   C926    1.405   .     A
C913   C923    1.386   .     A
C913   H929    1.085   .     S
C913   C917    1.397   .     A
C914   C918    1.399   .     A
C914   C924    1.387   .     A
C914   H930    1.085   .     S
C915   C919    1.397   .     A
C915   C924    1.386   .     A
C915   H931    1.085   .     S
C916   C920    1.399   .     A
C916   C923    1.387   .     A
C916   H932    1.085   .     S
C917   C921    1.428   .     A
C917   C947    1.513   .     S
C918   C957    1.518   .     S
C918   C922    1.430   .     A
C919   C967    1.513   .     S
C919   C922    1.428   .     A
C920   C977    1.518   .     S
C920   C921    1.430   .     A
C924   C113    1.453   1_556 S
Cu927  N933    2.014   .     S
Cu927  O939    1.965   .     S
Cu927  O935    1.972   .     S
Cu927  O941    1.965   .     S
Cu927  O937    1.972   .     S
Cu927  Cu928   2.680   .     S
Cu928  O940    1.965   .     S
Cu928  N934    2.014   .     S
Cu928  O938    1.972   .     S
Cu928  O942    1.965   .     S
Cu928  O936    1.972   .     S
C947   C948    1.533   .     S
C947   H955    1.101   .     S
C947   H956    1.113   .     S
C948   H954    1.109   .     S
C948   H953    1.112   .     S
C948   C949    1.528   .     S
C949   H951    1.111   .     S
C949   H952    1.108   .     S
C949   H950    1.109   .     S
C957   H966    1.113   .     S
C957   H965    1.106   .     S
C957   C958    1.532   .     S
C958   H964    1.110   .     S
C958   C959    1.528   .     S
C958   H963    1.112   .     S
C959   H960    1.110   .     S
C959   H961    1.111   .     S
C959   H962    1.108   .     S
C967   C968    1.533   .     S
C967   H975    1.100   .     S
C967   H976    1.113   .     S
C968   H974    1.109   .     S
C968   C969    1.527   .     S
C968   H973    1.112   .     S
C969   H971    1.111   .     S
C969   H972    1.108   .     S
C969   H970    1.109   .     S
C977   C978    1.532   .     S
C977   H986    1.113   .     S
C977   H985    1.106   .     S
C978   H983    1.112   .     S
C978   C979    1.528   .     S
C978   H984    1.110   .     S
C979   H981    1.111   .     S
C979   H982    1.108   .     S
C979   H980    1.110   .     S
C991   O1028   1.293   .     A
C991   C1016   1.455   .     S
C991   O1025   1.293   .     A
C992   O1026   1.293   .     A
C992   O1027   1.293   .     A
C992   C1015   1.455   .     S
C993   O1032   1.294   .     A
C993   C1011   1.478   .     S
C993   O1029   1.301   .     A
C994   O1031   1.301   .     A
C994   O1030   1.294   .     A
C994   C1012   1.478   .     S
C995   F1033   1.355   .     S
C995   N1024   1.366   .     A
C995   C1538   1.414   1_545 S
C996   F1034   1.350   .     S
C996   N1023   1.368   .     A
C996   C1267   1.414   .     S
C997   F1035   1.355   .     S
C997   N1024   1.366   .     A
C997   C1536   1.414   1_545 S
C998   N1023   1.368   .     A
C998   F1036   1.350   .     S
C998   C1265   1.414   .     S
C999   C1016   1.405   .     A
C999   F1077   1.358   .     S
C1000  F1078   1.358   .     S
C1000  C1015   1.405   .     A
C1000  C822    1.381   1_655 S
C1001  F1079   1.358   .     S
C1001  C1015   1.405   .     A
C1001  C819    1.381   1_655 S
C1002  F1080   1.358   .     S
C1002  C1016   1.405   .     A
C1003  C1013   1.386   .     A
C1003  H1019   1.085   .     S
C1003  C1007   1.397   .     A
C1004  C1008   1.399   .     A
C1004  C1014   1.387   .     A
C1004  H1020   1.085   .     S
C1005  C1009   1.397   .     A
C1005  C1014   1.386   .     A
C1005  H1021   1.085   .     S
C1006  C1010   1.399   .     A
C1006  C1013   1.387   .     A
C1006  H1022   1.085   .     S
C1007  C1011   1.428   .     A
C1007  C1037   1.513   .     S
C1008  C1047   1.518   .     S
C1008  C1012   1.430   .     A
C1009  C1057   1.513   .     S
C1009  C1012   1.428   .     A
C1010  C1067   1.518   .     S
C1010  C1011   1.430   .     A
C1014  C203    1.453   1_556 S
Cu1017 N1023   2.014   .     S
Cu1017 O1029   1.965   .     S
Cu1017 O1025   1.972   .     S
Cu1017 O1031   1.965   .     S
Cu1017 O1027   1.972   .     S
Cu1017 Cu1018  2.680   .     S
Cu1018 O1030   1.965   .     S
Cu1018 N1024   2.014   .     S
Cu1018 O1028   1.972   .     S
Cu1018 O1032   1.965   .     S
Cu1018 O1026   1.972   .     S
C1037  C1038   1.533   .     S
C1037  H1045   1.101   .     S
C1037  H1046   1.113   .     S
C1038  H1044   1.109   .     S
C1038  H1043   1.112   .     S
C1038  C1039   1.528   .     S
C1039  H1041   1.111   .     S
C1039  H1042   1.108   .     S
C1039  H1040   1.109   .     S
C1047  H1056   1.113   .     S
C1047  H1055   1.106   .     S
C1047  C1048   1.532   .     S
C1048  H1054   1.110   .     S
C1048  C1049   1.528   .     S
C1048  H1053   1.112   .     S
C1049  H1050   1.110   .     S
C1049  H1051   1.111   .     S
C1049  H1052   1.108   .     S
C1057  C1058   1.533   .     S
C1057  H1065   1.100   .     S
C1057  H1066   1.113   .     S
C1058  H1064   1.109   .     S
C1058  C1059   1.527   .     S
C1058  H1063   1.112   .     S
C1059  H1061   1.111   .     S
C1059  H1062   1.108   .     S
C1059  H1060   1.109   .     S
C1067  C1068   1.532   .     S
C1067  H1076   1.113   .     S
C1067  H1075   1.106   .     S
C1068  H1073   1.112   .     S
C1068  C1069   1.528   .     S
C1068  H1074   1.110   .     S
C1069  H1071   1.111   .     S
C1069  H1072   1.108   .     S
C1069  H1070   1.110   .     S
C1081  O1118   1.293   .     A
C1081  C1106   1.455   .     S
C1081  O1115   1.293   .     A
C1082  O1116   1.293   .     A
C1082  O1117   1.293   .     A
C1082  C1105   1.455   .     S
C1083  O1122   1.294   .     A
C1083  C1101   1.478   .     S
C1083  O1119   1.301   .     A
C1084  O1121   1.301   .     A
C1084  O1120   1.294   .     A
C1084  C1102   1.478   .     S
C1085  F1123   1.355   .     S
C1085  N1114   1.366   .     A
C1086  F1124   1.350   .     S
C1086  N1113   1.368   .     A
C1086  C1357   1.414   .     S
C1087  F1125   1.355   .     S
C1087  N1114   1.366   .     A
C1088  N1113   1.368   .     A
C1088  F1126   1.350   .     S
C1088  C1355   1.414   .     S
C1089  C1106   1.405   .     A
C1089  F1167   1.358   .     S
C1089  C1271   1.381   1_455 S
C1090  F1168   1.358   .     S
C1090  C1105   1.405   .     A
C1090  C1182   1.381   .     S
C1091  F1169   1.358   .     S
C1091  C1105   1.405   .     A
C1091  C1179   1.381   .     S
C1092  F1170   1.358   .     S
C1092  C1106   1.405   .     A
C1092  C1270   1.381   1_455 S
C1093  C1103   1.386   .     A
C1093  H1109   1.085   .     S
C1093  C1097   1.397   .     A
C1094  C1098   1.399   .     A
C1094  C1104   1.387   .     A
C1094  H1110   1.085   .     S
C1095  C1099   1.397   .     A
C1095  C1104   1.386   .     A
C1095  H1111   1.085   .     S
C1096  C1100   1.399   .     A
C1096  C1103   1.387   .     A
C1096  H1112   1.085   .     S
C1097  C1101   1.428   .     A
C1097  C1127   1.513   .     S
C1098  C1137   1.518   .     S
C1098  C1102   1.430   .     A
C1099  C1147   1.513   .     S
C1099  C1102   1.428   .     A
C1100  C1157   1.518   .     S
C1100  C1101   1.430   .     A
C1104  C293    1.453   1_556 S
Cu1107 N1113   2.014   .     S
Cu1107 O1119   1.965   .     S
Cu1107 O1115   1.972   .     S
Cu1107 O1121   1.965   .     S
Cu1107 O1117   1.972   .     S
Cu1107 Cu1108  2.680   .     S
Cu1108 O1120   1.965   .     S
Cu1108 N1114   2.014   .     S
Cu1108 O1118   1.972   .     S
Cu1108 O1122   1.965   .     S
Cu1108 O1116   1.972   .     S
C1127  C1128   1.533   .     S
C1127  H1135   1.101   .     S
C1127  H1136   1.113   .     S
C1128  H1134   1.109   .     S
C1128  H1133   1.112   .     S
C1128  C1129   1.528   .     S
C1129  H1131   1.111   .     S
C1129  H1132   1.108   .     S
C1129  H1130   1.109   .     S
C1137  H1146   1.113   .     S
C1137  H1145   1.106   .     S
C1137  C1138   1.532   .     S
C1138  H1144   1.110   .     S
C1138  C1139   1.528   .     S
C1138  H1143   1.112   .     S
C1139  H1140   1.110   .     S
C1139  H1141   1.111   .     S
C1139  H1142   1.108   .     S
C1147  C1148   1.533   .     S
C1147  H1155   1.100   .     S
C1147  H1156   1.113   .     S
C1148  H1154   1.109   .     S
C1148  C1149   1.527   .     S
C1148  H1153   1.112   .     S
C1149  H1151   1.111   .     S
C1149  H1152   1.108   .     S
C1149  H1150   1.109   .     S
C1157  C1158   1.532   .     S
C1157  H1166   1.113   .     S
C1157  H1165   1.106   .     S
C1158  H1163   1.112   .     S
C1158  C1159   1.528   .     S
C1158  H1164   1.110   .     S
C1159  H1161   1.111   .     S
C1159  H1162   1.108   .     S
C1159  H1160   1.110   .     S
C1171  O1208   1.293   .     A
C1171  C1196   1.455   .     S
C1171  O1205   1.293   .     A
C1172  O1206   1.293   .     A
C1172  O1207   1.293   .     A
C1172  C1195   1.455   .     S
C1173  O1212   1.294   .     A
C1173  C1191   1.478   .     S
C1173  O1209   1.301   .     A
C1174  O1211   1.301   .     A
C1174  O1210   1.294   .     A
C1174  C1192   1.478   .     S
C1175  F1213   1.355   .     S
C1175  N1204   1.366   .     A
C1176  F1214   1.350   .     S
C1176  N1203   1.368   .     A
C1176  C1447   1.414   .     S
C1177  F1215   1.355   .     S
C1177  N1204   1.366   .     A
C1178  N1203   1.368   .     A
C1178  F1216   1.350   .     S
C1178  C1445   1.414   .     S
C1179  C1196   1.405   .     A
C1179  F1257   1.358   .     S
C1180  F1258   1.358   .     S
C1180  C1195   1.405   .     A
C1180  C1272   1.381   .     S
C1181  F1259   1.358   .     S
C1181  C1195   1.405   .     A
C1181  C1269   1.381   .     S
C1182  F1260   1.358   .     S
C1182  C1196   1.405   .     A
C1183  C1193   1.386   .     A
C1183  H1199   1.085   .     S
C1183  C1187   1.397   .     A
C1184  C1188   1.399   .     A
C1184  C1194   1.387   .     A
C1184  H1200   1.085   .     S
C1185  C1189   1.397   .     A
C1185  C1194   1.386   .     A
C1185  H1201   1.085   .     S
C1186  C1190   1.399   .     A
C1186  C1193   1.387   .     A
C1186  H1202   1.085   .     S
C1187  C1191   1.428   .     A
C1187  C1217   1.513   .     S
C1188  C1227   1.518   .     S
C1188  C1192   1.430   .     A
C1189  C1237   1.513   .     S
C1189  C1192   1.428   .     A
C1190  C1247   1.518   .     S
C1190  C1191   1.430   .     A
C1194  C383    1.453   1_556 S
Cu1197 N1203   2.014   .     S
Cu1197 O1209   1.965   .     S
Cu1197 O1205   1.972   .     S
Cu1197 O1211   1.965   .     S
Cu1197 O1207   1.972   .     S
Cu1197 Cu1198  2.680   .     S
Cu1198 O1210   1.965   .     S
Cu1198 N1204   2.014   .     S
Cu1198 O1208   1.972   .     S
Cu1198 O1212   1.965   .     S
Cu1198 O1206   1.972   .     S
C1217  C1218   1.533   .     S
C1217  H1225   1.101   .     S
C1217  H1226   1.113   .     S
C1218  H1224   1.109   .     S
C1218  H1223   1.112   .     S
C1218  C1219   1.528   .     S
C1219  H1221   1.111   .     S
C1219  H1222   1.108   .     S
C1219  H1220   1.109   .     S
C1227  H1236   1.113   .     S
C1227  H1235   1.106   .     S
C1227  C1228   1.532   .     S
C1228  H1234   1.110   .     S
C1228  C1229   1.528   .     S
C1228  H1233   1.112   .     S
C1229  H1230   1.110   .     S
C1229  H1231   1.111   .     S
C1229  H1232   1.108   .     S
C1237  C1238   1.533   .     S
C1237  H1245   1.100   .     S
C1237  H1246   1.113   .     S
C1238  H1244   1.109   .     S
C1238  C1239   1.527   .     S
C1238  H1243   1.112   .     S
C1239  H1241   1.111   .     S
C1239  H1242   1.108   .     S
C1239  H1240   1.109   .     S
C1247  C1248   1.532   .     S
C1247  H1256   1.113   .     S
C1247  H1255   1.106   .     S
C1248  H1253   1.112   .     S
C1248  C1249   1.528   .     S
C1248  H1254   1.110   .     S
C1249  H1251   1.111   .     S
C1249  H1252   1.108   .     S
C1249  H1250   1.110   .     S
C1261  O1298   1.293   .     A
C1261  C1286   1.455   .     S
C1261  O1295   1.293   .     A
C1262  O1296   1.293   .     A
C1262  O1297   1.293   .     A
C1262  C1285   1.455   .     S
C1263  O1302   1.294   .     A
C1263  C1281   1.478   .     S
C1263  O1299   1.301   .     A
C1264  O1301   1.301   .     A
C1264  O1300   1.294   .     A
C1264  C1282   1.478   .     S
C1265  F1303   1.355   .     S
C1265  N1294   1.366   .     A
C1266  F1304   1.350   .     S
C1266  N1293   1.368   .     A
C1266  C1537   1.414   .     S
C1267  F1305   1.355   .     S
C1267  N1294   1.366   .     A
C1268  N1293   1.368   .     A
C1268  F1306   1.350   .     S
C1268  C1535   1.414   .     S
C1269  C1286   1.405   .     A
C1269  F1347   1.358   .     S
C1270  F1348   1.358   .     S
C1270  C1285   1.405   .     A
C1270  C1092   1.381   1_655 S
C1271  F1349   1.358   .     S
C1271  C1285   1.405   .     A
C1271  C1089   1.381   1_655 S
C1272  F1350   1.358   .     S
C1272  C1286   1.405   .     A
C1273  C1283   1.386   .     A
C1273  H1289   1.085   .     S
C1273  C1277   1.397   .     A
C1274  C1278   1.399   .     A
C1274  C1284   1.387   .     A
C1274  H1290   1.085   .     S
C1275  C1279   1.397   .     A
C1275  C1284   1.386   .     A
C1275  H1291   1.085   .     S
C1276  C1280   1.399   .     A
C1276  C1283   1.387   .     A
C1276  H1292   1.085   .     S
C1277  C1281   1.428   .     A
C1277  C1307   1.513   .     S
C1278  C1317   1.518   .     S
C1278  C1282   1.430   .     A
C1279  C1327   1.513   .     S
C1279  C1282   1.428   .     A
C1280  C1337   1.518   .     S
C1280  C1281   1.430   .     A
C1284  C473    1.453   1_556 S
Cu1287 N1293   2.014   .     S
Cu1287 O1299   1.965   .     S
Cu1287 O1295   1.972   .     S
Cu1287 O1301   1.965   .     S
Cu1287 O1297   1.972   .     S
Cu1287 Cu1288  2.680   .     S
Cu1288 O1300   1.965   .     S
Cu1288 N1294   2.014   .     S
Cu1288 O1298   1.972   .     S
Cu1288 O1302   1.965   .     S
Cu1288 O1296   1.972   .     S
C1307  C1308   1.533   .     S
C1307  H1315   1.101   .     S
C1307  H1316   1.113   .     S
C1308  H1314   1.109   .     S
C1308  H1313   1.112   .     S
C1308  C1309   1.528   .     S
C1309  H1311   1.111   .     S
C1309  H1312   1.108   .     S
C1309  H1310   1.109   .     S
C1317  H1326   1.113   .     S
C1317  H1325   1.106   .     S
C1317  C1318   1.532   .     S
C1318  H1324   1.110   .     S
C1318  C1319   1.528   .     S
C1318  H1323   1.112   .     S
C1319  H1320   1.110   .     S
C1319  H1321   1.111   .     S
C1319  H1322   1.108   .     S
C1327  C1328   1.533   .     S
C1327  H1335   1.100   .     S
C1327  H1336   1.113   .     S
C1328  H1334   1.109   .     S
C1328  C1329   1.527   .     S
C1328  H1333   1.112   .     S
C1329  H1331   1.111   .     S
C1329  H1332   1.108   .     S
C1329  H1330   1.109   .     S
C1337  C1338   1.532   .     S
C1337  H1346   1.113   .     S
C1337  H1345   1.106   .     S
C1338  H1343   1.112   .     S
C1338  C1339   1.528   .     S
C1338  H1344   1.110   .     S
C1339  H1341   1.111   .     S
C1339  H1342   1.108   .     S
C1339  H1340   1.110   .     S
C1351  O1388   1.293   .     A
C1351  C1376   1.455   .     S
C1351  O1385   1.293   .     A
C1352  O1386   1.293   .     A
C1352  O1387   1.293   .     A
C1352  C1375   1.455   .     S
C1353  O1392   1.294   .     A
C1353  C1371   1.478   .     S
C1353  O1389   1.301   .     A
C1354  O1391   1.301   .     A
C1354  O1390   1.294   .     A
C1354  C1372   1.478   .     S
C1355  F1393   1.355   .     S
C1355  N1384   1.366   .     A
C1356  F1394   1.350   .     S
C1356  N1383   1.368   .     A
C1356  C817    1.414   1_565 S
C1357  F1395   1.355   .     S
C1357  N1384   1.366   .     A
C1358  N1383   1.368   .     A
C1358  F1396   1.350   .     S
C1358  C815    1.414   1_565 S
C1359  C1376   1.405   .     A
C1359  F1437   1.358   .     S
C1359  C1541   1.381   1_455 S
C1360  F1438   1.358   .     S
C1360  C1375   1.405   .     A
C1360  C1452   1.381   .     S
C1361  F1439   1.358   .     S
C1361  C1375   1.405   .     A
C1361  C1449   1.381   .     S
C1362  F1440   1.358   .     S
C1362  C1376   1.405   .     A
C1362  C1540   1.381   1_455 S
C1363  C1373   1.386   .     A
C1363  H1379   1.085   .     S
C1363  C1367   1.397   .     A
C1364  C1368   1.399   .     A
C1364  C1374   1.387   .     A
C1364  H1380   1.085   .     S
C1365  C1369   1.397   .     A
C1365  C1374   1.386   .     A
C1365  H1381   1.085   .     S
C1366  C1370   1.399   .     A
C1366  C1373   1.387   .     A
C1366  H1382   1.085   .     S
C1367  C1371   1.428   .     A
C1367  C1397   1.513   .     S
C1368  C1407   1.518   .     S
C1368  C1372   1.430   .     A
C1369  C1417   1.513   .     S
C1369  C1372   1.428   .     A
C1370  C1427   1.518   .     S
C1370  C1371   1.430   .     A
C1374  C563    1.453   1_556 S
Cu1377 N1383   2.014   .     S
Cu1377 O1389   1.965   .     S
Cu1377 O1385   1.972   .     S
Cu1377 O1391   1.965   .     S
Cu1377 O1387   1.972   .     S
Cu1377 Cu1378  2.680   .     S
Cu1378 O1390   1.965   .     S
Cu1378 N1384   2.014   .     S
Cu1378 O1388   1.972   .     S
Cu1378 O1392   1.965   .     S
Cu1378 O1386   1.972   .     S
C1397  C1398   1.533   .     S
C1397  H1405   1.101   .     S
C1397  H1406   1.113   .     S
C1398  H1404   1.109   .     S
C1398  H1403   1.112   .     S
C1398  C1399   1.528   .     S
C1399  H1401   1.111   .     S
C1399  H1402   1.108   .     S
C1399  H1400   1.109   .     S
C1407  H1416   1.113   .     S
C1407  H1415   1.106   .     S
C1407  C1408   1.532   .     S
C1408  H1414   1.110   .     S
C1408  C1409   1.528   .     S
C1408  H1413   1.112   .     S
C1409  H1410   1.110   .     S
C1409  H1411   1.111   .     S
C1409  H1412   1.108   .     S
C1417  C1418   1.533   .     S
C1417  H1425   1.100   .     S
C1417  H1426   1.113   .     S
C1418  H1424   1.109   .     S
C1418  C1419   1.527   .     S
C1418  H1423   1.112   .     S
C1419  H1421   1.111   .     S
C1419  H1422   1.108   .     S
C1419  H1420   1.109   .     S
C1427  C1428   1.532   .     S
C1427  H1436   1.113   .     S
C1427  H1435   1.106   .     S
C1428  H1433   1.112   .     S
C1428  C1429   1.528   .     S
C1428  H1434   1.110   .     S
C1429  H1431   1.111   .     S
C1429  H1432   1.108   .     S
C1429  H1430   1.110   .     S
C1441  O1478   1.293   .     A
C1441  C1466   1.455   .     S
C1441  O1475   1.293   .     A
C1442  O1476   1.293   .     A
C1442  O1477   1.293   .     A
C1442  C1465   1.455   .     S
C1443  O1482   1.294   .     A
C1443  C1461   1.478   .     S
C1443  O1479   1.301   .     A
C1444  O1481   1.301   .     A
C1444  O1480   1.294   .     A
C1444  C1462   1.478   .     S
C1445  F1483   1.355   .     S
C1445  N1474   1.366   .     A
C1446  F1484   1.350   .     S
C1446  N1473   1.368   .     A
C1446  C907    1.414   1_565 S
C1447  F1485   1.355   .     S
C1447  N1474   1.366   .     A
C1448  N1473   1.368   .     A
C1448  F1486   1.350   .     S
C1448  C905    1.414   1_565 S
C1449  C1466   1.405   .     A
C1449  F1527   1.358   .     S
C1450  F1528   1.358   .     S
C1450  C1465   1.405   .     A
C1450  C1542   1.381   .     S
C1451  F1529   1.358   .     S
C1451  C1465   1.405   .     A
C1451  C1539   1.381   .     S
C1452  F1530   1.358   .     S
C1452  C1466   1.405   .     A
C1453  C1463   1.386   .     A
C1453  H1469   1.085   .     S
C1453  C1457   1.397   .     A
C1454  C1458   1.399   .     A
C1454  C1464   1.387   .     A
C1454  H1470   1.085   .     S
C1455  C1459   1.397   .     A
C1455  C1464   1.386   .     A
C1455  H1471   1.085   .     S
C1456  C1460   1.399   .     A
C1456  C1463   1.387   .     A
C1456  H1472   1.085   .     S
C1457  C1461   1.428   .     A
C1457  C1487   1.513   .     S
C1458  C1497   1.518   .     S
C1458  C1462   1.430   .     A
C1459  C1507   1.513   .     S
C1459  C1462   1.428   .     A
C1460  C1517   1.518   .     S
C1460  C1461   1.430   .     A
C1464  C653    1.453   1_556 S
Cu1467 N1473   2.014   .     S
Cu1467 O1479   1.965   .     S
Cu1467 O1475   1.972   .     S
Cu1467 O1481   1.965   .     S
Cu1467 O1477   1.972   .     S
Cu1467 Cu1468  2.680   .     S
Cu1468 O1480   1.965   .     S
Cu1468 N1474   2.014   .     S
Cu1468 O1478   1.972   .     S
Cu1468 O1482   1.965   .     S
Cu1468 O1476   1.972   .     S
C1487  C1488   1.533   .     S
C1487  H1495   1.101   .     S
C1487  H1496   1.113   .     S
C1488  H1494   1.109   .     S
C1488  H1493   1.112   .     S
C1488  C1489   1.528   .     S
C1489  H1491   1.111   .     S
C1489  H1492   1.108   .     S
C1489  H1490   1.109   .     S
C1497  H1506   1.113   .     S
C1497  H1505   1.106   .     S
C1497  C1498   1.532   .     S
C1498  H1504   1.110   .     S
C1498  C1499   1.528   .     S
C1498  H1503   1.112   .     S
C1499  H1500   1.110   .     S
C1499  H1501   1.111   .     S
C1499  H1502   1.108   .     S
C1507  C1508   1.533   .     S
C1507  H1515   1.100   .     S
C1507  H1516   1.113   .     S
C1508  H1514   1.109   .     S
C1508  C1509   1.527   .     S
C1508  H1513   1.112   .     S
C1509  H1511   1.111   .     S
C1509  H1512   1.108   .     S
C1509  H1510   1.109   .     S
C1517  C1518   1.532   .     S
C1517  H1526   1.113   .     S
C1517  H1525   1.106   .     S
C1518  H1523   1.112   .     S
C1518  C1519   1.528   .     S
C1518  H1524   1.110   .     S
C1519  H1521   1.111   .     S
C1519  H1522   1.108   .     S
C1519  H1520   1.110   .     S
C1531  O1568   1.293   .     A
C1531  C1556   1.455   .     S
C1531  O1565   1.293   .     A
C1532  O1566   1.293   .     A
C1532  O1567   1.293   .     A
C1532  C1555   1.455   .     S
C1533  O1572   1.294   .     A
C1533  C1551   1.478   .     S
C1533  O1569   1.301   .     A
C1534  O1571   1.301   .     A
C1534  O1570   1.294   .     A
C1534  C1552   1.478   .     S
C1535  F1573   1.355   .     S
C1535  N1564   1.366   .     A
C1536  F1574   1.350   .     S
C1536  N1563   1.368   .     A
C1536  C997    1.414   1_565 S
C1537  F1575   1.355   .     S
C1537  N1564   1.366   .     A
C1538  N1563   1.368   .     A
C1538  F1576   1.350   .     S
C1538  C995    1.414   1_565 S
C1539  C1556   1.405   .     A
C1539  F1617   1.358   .     S
C1540  F1618   1.358   .     S
C1540  C1555   1.405   .     A
C1540  C1362   1.381   1_655 S
C1541  F1619   1.358   .     S
C1541  C1555   1.405   .     A
C1541  C1359   1.381   1_655 S
C1542  F1620   1.358   .     S
C1542  C1556   1.405   .     A
C1543  C1553   1.386   .     A
C1543  H1559   1.085   .     S
C1543  C1547   1.397   .     A
C1544  C1548   1.399   .     A
C1544  C1554   1.387   .     A
C1544  H1560   1.085   .     S
C1545  C1549   1.397   .     A
C1545  C1554   1.386   .     A
C1545  H1561   1.085   .     S
C1546  C1550   1.399   .     A
C1546  C1553   1.387   .     A
C1546  H1562   1.085   .     S
C1547  C1551   1.428   .     A
C1547  C1577   1.513   .     S
C1548  C1587   1.518   .     S
C1548  C1552   1.430   .     A
C1549  C1597   1.513   .     S
C1549  C1552   1.428   .     A
C1550  C1607   1.518   .     S
C1550  C1551   1.430   .     A
C1554  C743    1.453   1_556 S
Cu1557 N1563   2.014   .     S
Cu1557 O1569   1.965   .     S
Cu1557 O1565   1.972   .     S
Cu1557 O1571   1.965   .     S
Cu1557 O1567   1.972   .     S
Cu1557 Cu1558  2.680   .     S
Cu1558 O1570   1.965   .     S
Cu1558 N1564   2.014   .     S
Cu1558 O1568   1.972   .     S
Cu1558 O1572   1.965   .     S
Cu1558 O1566   1.972   .     S
C1577  C1578   1.533   .     S
C1577  H1585   1.101   .     S
C1577  H1586   1.113   .     S
C1578  H1584   1.109   .     S
C1578  H1583   1.112   .     S
C1578  C1579   1.528   .     S
C1579  H1581   1.111   .     S
C1579  H1582   1.108   .     S
C1579  H1580   1.109   .     S
C1587  H1596   1.113   .     S
C1587  H1595   1.106   .     S
C1587  C1588   1.532   .     S
C1588  H1594   1.110   .     S
C1588  C1589   1.528   .     S
C1588  H1593   1.112   .     S
C1589  H1590   1.110   .     S
C1589  H1591   1.111   .     S
C1589  H1592   1.108   .     S
C1597  C1598   1.533   .     S
C1597  H1605   1.100   .     S
C1597  H1606   1.113   .     S
C1598  H1604   1.109   .     S
C1598  C1599   1.527   .     S
C1598  H1603   1.112   .     S
C1599  H1601   1.111   .     S
C1599  H1602   1.108   .     S
C1599  H1600   1.109   .     S
C1607  C1608   1.532   .     S
C1607  H1616   1.113   .     S
C1607  H1615   1.106   .     S
C1608  H1613   1.112   .     S
C1608  C1609   1.528   .     S
C1608  H1614   1.110   .     S
C1609  H1611   1.111   .     S
C1609  H1612   1.108   .     S
C1609  H1610   1.110   .     S
