data_str_m3_o1_o10_pcu_sym.162
_audit_creation_date              2020-01-03
_audit_creation_method            'Materials Studio'
_symmetry_space_group_name_H-M    'P1'
_symmetry_Int_Tables_number       1
_symmetry_cell_setting            triclinic
loop_
_symmetry_equiv_pos_as_xyz
  x,y,z
_cell_length_a                    25.7762
_cell_length_b                    32.2542
_cell_length_c                    29.7030
_cell_angle_alpha                 89.3209
_cell_angle_beta                  97.9083
_cell_angle_gamma                 90.8357
loop_
_atom_site_label
_atom_site_type_symbol
_atom_site_fract_x
_atom_site_fract_y
_atom_site_fract_z
_atom_site_U_iso_or_equiv
_atom_site_adp_type
_atom_site_occupancy
C1     C     0.16779   0.08674   0.16714   0.00000  Uiso   1.00
C2     C     0.16554   0.24660   0.16619   0.00000  Uiso   1.00
C3     C     0.06718   0.16637   0.15489   0.00000  Uiso   1.00
C4     C     0.26615   0.16697   0.17844   0.00000  Uiso   1.00
C5     C     0.01229   0.16473   0.14864   0.00000  Uiso   1.00
C6     C     0.32105   0.16860   0.18470   0.00000  Uiso   1.00
C7     C     0.15049   0.02258   0.12704   0.00000  Uiso   1.00
C8     C     0.18284   0.31075   0.20629   0.00000  Uiso   1.00
C9     C     0.14830   0.31339   0.12527   0.00000  Uiso   1.00
C10    C     0.18503   0.01994   0.20806   0.00000  Uiso   1.00
C11    C     0.16485   0.29080   0.16551   0.00000  Uiso   1.00
C12    C     0.16848   0.04253   0.16782   0.00000  Uiso   1.00
C13    C     0.20700   0.18490   0.02773   0.00000  Uiso   1.00
C14    C     0.12634   0.14843   0.30560   0.00000  Uiso   1.00
C15    C     0.20694   0.18429   0.31342   0.00000  Uiso   1.00
C16    C     0.12639   0.14904   0.01992   0.00000  Uiso   1.00
H17    H     0.32558   0.15964   0.11449   0.00000  Uiso   1.00
H18    H     0.00776   0.17370   0.21884   0.00000  Uiso   1.00
H19    H     0.13678   0.04012   0.09644   0.00000  Uiso   1.00
H20    H     0.19656   0.29322   0.23690   0.00000  Uiso   1.00
H21    H     0.23880   0.19868   0.29842   0.00000  Uiso   1.00
H22    H     0.09453   0.13466   0.03492   0.00000  Uiso   1.00
N23    N     0.16665   0.16666   0.28573   0.00000  Uiso   1.00
N24    N     0.16668   0.16668   0.04760   0.00000  Uiso   1.00
O25    O     0.16666   0.10558   0.20487   0.00000  Uiso   1.00
O26    O     0.16667   0.22775   0.12846   0.00000  Uiso   1.00
O27    O     0.16666   0.10559   0.12843   0.00000  Uiso   1.00
O28    O     0.16667   0.22774   0.20490   0.00000  Uiso   1.00
O29    O     0.09058   0.16666   0.19595   0.00000  Uiso   1.00
O30    O     0.24275   0.16667   0.13739   0.00000  Uiso   1.00
O31    O     0.09058   0.16667   0.11950   0.00000  Uiso   1.00
O32    O     0.24275   0.16666   0.21383   0.00000  Uiso   1.00
Zn33   Zn    0.16667   0.16666   0.21771   0.00000  Uiso   1.00
Zn34   Zn    0.16667   0.16667   0.11563   0.00000  Uiso   1.00
C35    C     0.12868   0.29426   0.08096   0.00000  Uiso   1.00
C36    C     0.15966   0.29578   0.04561   0.00000  Uiso   1.00
C37    C     0.14194   0.27718   0.00397   0.00000  Uiso   1.00
C38    C     0.09293   0.25750   0.33043   0.00000  Uiso   1.00
C39    C     0.06164   0.25629   0.03196   0.00000  Uiso   1.00
C40    C     0.07939   0.27449   0.07390   0.00000  Uiso   1.00
H41    H     0.19786   0.31078   0.05062   0.00000  Uiso   1.00
H42    H     0.16632   0.27785   0.31044   0.00000  Uiso   1.00
H43    H     0.07926   0.24310   0.29815   0.00000  Uiso   1.00
H44    H     0.02365   0.24127   0.02638   0.00000  Uiso   1.00
H45    H     0.05495   0.27312   0.10078   0.00000  Uiso   1.00
C46    C     0.20465   0.03907   0.25237   0.00000  Uiso   1.00
C47    C     0.25395   0.05884   0.25943   0.00000  Uiso   1.00
C48    C     0.27171   0.07703   0.30137   0.00000  Uiso   1.00
C49    C     0.24042   0.07583   0.00290   0.00000  Uiso   1.00
C50    C     0.19141   0.05616   0.32936   0.00000  Uiso   1.00
C51    C     0.17368   0.03756   0.28772   0.00000  Uiso   1.00
H52    H     0.27839   0.06020   0.23255   0.00000  Uiso   1.00
H53    H     0.30970   0.09204   0.30695   0.00000  Uiso   1.00
H54    H     0.25409   0.09023   0.03518   0.00000  Uiso   1.00
H55    H     0.16702   0.05550   0.02289   0.00000  Uiso   1.00
H56    H     0.13547   0.02257   0.28271   0.00000  Uiso   1.00
C57    C     0.25188   0.20589   0.05423   0.00000  Uiso   1.00
H58    H     0.29100   0.19949   0.04698   0.00000  Uiso   1.00
O59    O     0.24587   0.23237   0.08186   0.00000  Uiso   1.00
C60    C     0.08146   0.12745   0.27910   0.00000  Uiso   1.00
H61    H     0.04234   0.13384   0.28635   0.00000  Uiso   1.00
O62    O     0.08746   0.10096   0.25148   0.00000  Uiso   1.00
C63    C     0.50112   0.08674   0.16714   0.00000  Uiso   1.00
C64    C     0.49888   0.24660   0.16619   0.00000  Uiso   1.00
C65    C     0.40052   0.16637   0.15489   0.00000  Uiso   1.00
C66    C     0.59948   0.16697   0.17844   0.00000  Uiso   1.00
C67    C     0.34562   0.16473   0.14864   0.00000  Uiso   1.00
C68    C     0.65438   0.16860   0.18470   0.00000  Uiso   1.00
C69    C     0.48382   0.02258   0.12704   0.00000  Uiso   1.00
C70    C     0.51618   0.31075   0.20629   0.00000  Uiso   1.00
C71    C     0.48164   0.31339   0.12527   0.00000  Uiso   1.00
C72    C     0.51836   0.01994   0.20806   0.00000  Uiso   1.00
C73    C     0.49818   0.29080   0.16551   0.00000  Uiso   1.00
C74    C     0.50182   0.04253   0.16782   0.00000  Uiso   1.00
C75    C     0.54033   0.18490   0.02773   0.00000  Uiso   1.00
C76    C     0.45967   0.14843   0.30560   0.00000  Uiso   1.00
C77    C     0.54027   0.18429   0.31342   0.00000  Uiso   1.00
C78    C     0.45973   0.14904   0.01992   0.00000  Uiso   1.00
H79    H     0.65891   0.15964   0.11449   0.00000  Uiso   1.00
H80    H     0.34109   0.17370   0.21884   0.00000  Uiso   1.00
H81    H     0.47011   0.04012   0.09644   0.00000  Uiso   1.00
H82    H     0.52989   0.29322   0.23690   0.00000  Uiso   1.00
H83    H     0.57213   0.19868   0.29842   0.00000  Uiso   1.00
H84    H     0.42787   0.13466   0.03492   0.00000  Uiso   1.00
N85    N     0.49999   0.16666   0.28573   0.00000  Uiso   1.00
N86    N     0.50001   0.16668   0.04760   0.00000  Uiso   1.00
O87    O     0.50000   0.10558   0.20487   0.00000  Uiso   1.00
O88    O     0.50000   0.22775   0.12846   0.00000  Uiso   1.00
O89    O     0.50000   0.10559   0.12843   0.00000  Uiso   1.00
O90    O     0.50000   0.22774   0.20490   0.00000  Uiso   1.00
O91    O     0.42392   0.16666   0.19595   0.00000  Uiso   1.00
O92    O     0.57608   0.16667   0.13739   0.00000  Uiso   1.00
O93    O     0.42392   0.16667   0.11950   0.00000  Uiso   1.00
O94    O     0.57608   0.16666   0.21383   0.00000  Uiso   1.00
Zn95   Zn    0.50000   0.16666   0.21771   0.00000  Uiso   1.00
Zn96   Zn    0.50000   0.16667   0.11563   0.00000  Uiso   1.00
C97    C     0.46202   0.29426   0.08096   0.00000  Uiso   1.00
C98    C     0.49299   0.29578   0.04561   0.00000  Uiso   1.00
C99    C     0.47527   0.27718   0.00397   0.00000  Uiso   1.00
C100   C     0.42626   0.25750   0.33043   0.00000  Uiso   1.00
C101   C     0.39497   0.25629   0.03196   0.00000  Uiso   1.00
C102   C     0.41272   0.27449   0.07390   0.00000  Uiso   1.00
H103   H     0.53119   0.31078   0.05062   0.00000  Uiso   1.00
H104   H     0.49965   0.27785   0.31044   0.00000  Uiso   1.00
H105   H     0.41260   0.24310   0.29815   0.00000  Uiso   1.00
H106   H     0.35699   0.24127   0.02638   0.00000  Uiso   1.00
H107   H     0.38828   0.27312   0.10078   0.00000  Uiso   1.00
C108   C     0.53799   0.03907   0.25237   0.00000  Uiso   1.00
C109   C     0.58729   0.05884   0.25943   0.00000  Uiso   1.00
C110   C     0.60505   0.07703   0.30137   0.00000  Uiso   1.00
C111   C     0.57376   0.07583   0.00290   0.00000  Uiso   1.00
C112   C     0.52474   0.05616   0.32936   0.00000  Uiso   1.00
C113   C     0.50701   0.03756   0.28772   0.00000  Uiso   1.00
H114   H     0.61173   0.06020   0.23255   0.00000  Uiso   1.00
H115   H     0.64304   0.09204   0.30695   0.00000  Uiso   1.00
H116   H     0.58743   0.09023   0.03518   0.00000  Uiso   1.00
H117   H     0.50036   0.05550   0.02289   0.00000  Uiso   1.00
H118   H     0.46881   0.02257   0.28271   0.00000  Uiso   1.00
C119   C     0.58521   0.20589   0.05423   0.00000  Uiso   1.00
H120   H     0.62433   0.19949   0.04698   0.00000  Uiso   1.00
O121   O     0.57920   0.23237   0.08186   0.00000  Uiso   1.00
C122   C     0.41479   0.12745   0.27910   0.00000  Uiso   1.00
H123   H     0.37567   0.13384   0.28635   0.00000  Uiso   1.00
O124   O     0.42080   0.10096   0.25148   0.00000  Uiso   1.00
C125   C     0.83446   0.08674   0.16714   0.00000  Uiso   1.00
C126   C     0.83221   0.24660   0.16619   0.00000  Uiso   1.00
C127   C     0.73385   0.16637   0.15489   0.00000  Uiso   1.00
C128   C     0.93282   0.16697   0.17844   0.00000  Uiso   1.00
C129   C     0.67895   0.16473   0.14864   0.00000  Uiso   1.00
C130   C     0.98771   0.16860   0.18470   0.00000  Uiso   1.00
C131   C     0.81715   0.02258   0.12704   0.00000  Uiso   1.00
C132   C     0.84951   0.31075   0.20629   0.00000  Uiso   1.00
C133   C     0.81497   0.31339   0.12527   0.00000  Uiso   1.00
C134   C     0.85169   0.01994   0.20806   0.00000  Uiso   1.00
C135   C     0.83151   0.29080   0.16551   0.00000  Uiso   1.00
C136   C     0.83515   0.04253   0.16782   0.00000  Uiso   1.00
C137   C     0.87366   0.18490   0.02773   0.00000  Uiso   1.00
C138   C     0.79301   0.14843   0.30560   0.00000  Uiso   1.00
C139   C     0.87361   0.18429   0.31342   0.00000  Uiso   1.00
C140   C     0.79306   0.14904   0.01992   0.00000  Uiso   1.00
H141   H     0.99224   0.15964   0.11449   0.00000  Uiso   1.00
H142   H     0.67442   0.17370   0.21884   0.00000  Uiso   1.00
H143   H     0.80344   0.04012   0.09644   0.00000  Uiso   1.00
H144   H     0.86322   0.29322   0.23690   0.00000  Uiso   1.00
H145   H     0.90547   0.19868   0.29842   0.00000  Uiso   1.00
H146   H     0.76120   0.13466   0.03492   0.00000  Uiso   1.00
N147   N     0.83332   0.16666   0.28573   0.00000  Uiso   1.00
N148   N     0.83335   0.16668   0.04760   0.00000  Uiso   1.00
O149   O     0.83333   0.10558   0.20487   0.00000  Uiso   1.00
O150   O     0.83334   0.22775   0.12846   0.00000  Uiso   1.00
O151   O     0.83333   0.10559   0.12843   0.00000  Uiso   1.00
O152   O     0.83334   0.22774   0.20490   0.00000  Uiso   1.00
O153   O     0.75725   0.16666   0.19595   0.00000  Uiso   1.00
O154   O     0.90942   0.16667   0.13739   0.00000  Uiso   1.00
O155   O     0.75725   0.16667   0.11950   0.00000  Uiso   1.00
O156   O     0.90942   0.16666   0.21383   0.00000  Uiso   1.00
Zn157  Zn    0.83333   0.16666   0.21771   0.00000  Uiso   1.00
Zn158  Zn    0.83333   0.16667   0.11563   0.00000  Uiso   1.00
C159   C     0.79535   0.29426   0.08096   0.00000  Uiso   1.00
C160   C     0.82633   0.29578   0.04561   0.00000  Uiso   1.00
C161   C     0.80860   0.27718   0.00397   0.00000  Uiso   1.00
C162   C     0.75959   0.25750   0.33043   0.00000  Uiso   1.00
C163   C     0.72830   0.25629   0.03196   0.00000  Uiso   1.00
C164   C     0.74605   0.27449   0.07390   0.00000  Uiso   1.00
H165   H     0.86453   0.31078   0.05062   0.00000  Uiso   1.00
H166   H     0.83299   0.27785   0.31044   0.00000  Uiso   1.00
H167   H     0.74593   0.24310   0.29815   0.00000  Uiso   1.00
H168   H     0.69032   0.24127   0.02638   0.00000  Uiso   1.00
H169   H     0.72162   0.27312   0.10078   0.00000  Uiso   1.00
C170   C     0.87132   0.03907   0.25237   0.00000  Uiso   1.00
C171   C     0.92062   0.05884   0.25943   0.00000  Uiso   1.00
C172   C     0.93838   0.07703   0.30137   0.00000  Uiso   1.00
C173   C     0.90709   0.07583   0.00290   0.00000  Uiso   1.00
C174   C     0.85807   0.05616   0.32936   0.00000  Uiso   1.00
C175   C     0.84034   0.03756   0.28772   0.00000  Uiso   1.00
H176   H     0.94506   0.06020   0.23255   0.00000  Uiso   1.00
H177   H     0.97637   0.09204   0.30695   0.00000  Uiso   1.00
H178   H     0.92076   0.09023   0.03518   0.00000  Uiso   1.00
H179   H     0.83369   0.05550   0.02289   0.00000  Uiso   1.00
H180   H     0.80214   0.02257   0.28271   0.00000  Uiso   1.00
C181   C     0.91854   0.20589   0.05423   0.00000  Uiso   1.00
H182   H     0.95766   0.19949   0.04698   0.00000  Uiso   1.00
O183   O     0.91253   0.23237   0.08186   0.00000  Uiso   1.00
C184   C     0.74812   0.12745   0.27910   0.00000  Uiso   1.00
H185   H     0.70900   0.13384   0.28635   0.00000  Uiso   1.00
O186   O     0.75413   0.10096   0.25148   0.00000  Uiso   1.00
C187   C     0.16779   0.42007   0.16714   0.00000  Uiso   1.00
C188   C     0.16554   0.57993   0.16619   0.00000  Uiso   1.00
C189   C     0.06718   0.49970   0.15489   0.00000  Uiso   1.00
C190   C     0.26615   0.50030   0.17844   0.00000  Uiso   1.00
C191   C     0.01229   0.49806   0.14864   0.00000  Uiso   1.00
C192   C     0.32105   0.50194   0.18470   0.00000  Uiso   1.00
C193   C     0.15049   0.35591   0.12704   0.00000  Uiso   1.00
C194   C     0.18284   0.64409   0.20629   0.00000  Uiso   1.00
C195   C     0.14830   0.64673   0.12527   0.00000  Uiso   1.00
C196   C     0.18503   0.35327   0.20806   0.00000  Uiso   1.00
C197   C     0.16485   0.62413   0.16551   0.00000  Uiso   1.00
C198   C     0.16848   0.37587   0.16782   0.00000  Uiso   1.00
C199   C     0.20700   0.51824   0.02773   0.00000  Uiso   1.00
C200   C     0.12634   0.48176   0.30560   0.00000  Uiso   1.00
C201   C     0.20694   0.51762   0.31342   0.00000  Uiso   1.00
C202   C     0.12639   0.48238   0.01992   0.00000  Uiso   1.00
H203   H     0.32558   0.49297   0.11449   0.00000  Uiso   1.00
H204   H     0.00776   0.50703   0.21884   0.00000  Uiso   1.00
H205   H     0.13678   0.37345   0.09644   0.00000  Uiso   1.00
H206   H     0.19656   0.62655   0.23690   0.00000  Uiso   1.00
H207   H     0.23880   0.53201   0.29842   0.00000  Uiso   1.00
H208   H     0.09453   0.46799   0.03492   0.00000  Uiso   1.00
N209   N     0.16665   0.49999   0.28573   0.00000  Uiso   1.00
N210   N     0.16668   0.50001   0.04760   0.00000  Uiso   1.00
O211   O     0.16666   0.43892   0.20487   0.00000  Uiso   1.00
O212   O     0.16667   0.56108   0.12846   0.00000  Uiso   1.00
O213   O     0.16666   0.43893   0.12843   0.00000  Uiso   1.00
O214   O     0.16667   0.56107   0.20490   0.00000  Uiso   1.00
O215   O     0.09058   0.50000   0.19595   0.00000  Uiso   1.00
O216   O     0.24275   0.50000   0.13739   0.00000  Uiso   1.00
O217   O     0.09058   0.50000   0.11950   0.00000  Uiso   1.00
O218   O     0.24275   0.50000   0.21383   0.00000  Uiso   1.00
Zn219  Zn    0.16667   0.49999   0.21771   0.00000  Uiso   1.00
Zn220  Zn    0.16667   0.50001   0.11563   0.00000  Uiso   1.00
C221   C     0.12868   0.62759   0.08096   0.00000  Uiso   1.00
C222   C     0.15966   0.62912   0.04561   0.00000  Uiso   1.00
C223   C     0.14194   0.61051   0.00397   0.00000  Uiso   1.00
C224   C     0.09293   0.59083   0.33043   0.00000  Uiso   1.00
C225   C     0.06164   0.58962   0.03196   0.00000  Uiso   1.00
C226   C     0.07939   0.60782   0.07390   0.00000  Uiso   1.00
H227   H     0.19786   0.64411   0.05062   0.00000  Uiso   1.00
H228   H     0.16632   0.61118   0.31044   0.00000  Uiso   1.00
H229   H     0.07926   0.57643   0.29815   0.00000  Uiso   1.00
H230   H     0.02365   0.57460   0.02638   0.00000  Uiso   1.00
H231   H     0.05495   0.60645   0.10078   0.00000  Uiso   1.00
C232   C     0.20465   0.37241   0.25237   0.00000  Uiso   1.00
C233   C     0.25395   0.39217   0.25943   0.00000  Uiso   1.00
C234   C     0.27171   0.41036   0.30137   0.00000  Uiso   1.00
C235   C     0.24042   0.40917   0.00290   0.00000  Uiso   1.00
C236   C     0.19141   0.38949   0.32936   0.00000  Uiso   1.00
C237   C     0.17368   0.37089   0.28772   0.00000  Uiso   1.00
H238   H     0.27839   0.39353   0.23255   0.00000  Uiso   1.00
H239   H     0.30970   0.42538   0.30695   0.00000  Uiso   1.00
H240   H     0.25409   0.42356   0.03518   0.00000  Uiso   1.00
H241   H     0.16702   0.38883   0.02289   0.00000  Uiso   1.00
H242   H     0.13547   0.35591   0.28271   0.00000  Uiso   1.00
C243   C     0.25188   0.53922   0.05423   0.00000  Uiso   1.00
H244   H     0.29100   0.53283   0.04698   0.00000  Uiso   1.00
O245   O     0.24587   0.56571   0.08186   0.00000  Uiso   1.00
C246   C     0.08146   0.46078   0.27910   0.00000  Uiso   1.00
H247   H     0.04234   0.46718   0.28635   0.00000  Uiso   1.00
O248   O     0.08746   0.43429   0.25148   0.00000  Uiso   1.00
C249   C     0.50112   0.42007   0.16714   0.00000  Uiso   1.00
C250   C     0.49888   0.57993   0.16619   0.00000  Uiso   1.00
C251   C     0.40052   0.49970   0.15489   0.00000  Uiso   1.00
C252   C     0.59948   0.50030   0.17844   0.00000  Uiso   1.00
C253   C     0.34562   0.49806   0.14864   0.00000  Uiso   1.00
C254   C     0.65438   0.50194   0.18470   0.00000  Uiso   1.00
C255   C     0.48382   0.35591   0.12704   0.00000  Uiso   1.00
C256   C     0.51618   0.64409   0.20629   0.00000  Uiso   1.00
C257   C     0.48164   0.64673   0.12527   0.00000  Uiso   1.00
C258   C     0.51836   0.35327   0.20806   0.00000  Uiso   1.00
C259   C     0.49818   0.62413   0.16551   0.00000  Uiso   1.00
C260   C     0.50182   0.37587   0.16782   0.00000  Uiso   1.00
C261   C     0.54033   0.51824   0.02773   0.00000  Uiso   1.00
C262   C     0.45967   0.48176   0.30560   0.00000  Uiso   1.00
C263   C     0.54027   0.51762   0.31342   0.00000  Uiso   1.00
C264   C     0.45973   0.48238   0.01992   0.00000  Uiso   1.00
H265   H     0.65891   0.49297   0.11449   0.00000  Uiso   1.00
H266   H     0.34109   0.50703   0.21884   0.00000  Uiso   1.00
H267   H     0.47011   0.37345   0.09644   0.00000  Uiso   1.00
H268   H     0.52989   0.62655   0.23690   0.00000  Uiso   1.00
H269   H     0.57213   0.53201   0.29842   0.00000  Uiso   1.00
H270   H     0.42787   0.46799   0.03492   0.00000  Uiso   1.00
N271   N     0.49999   0.49999   0.28573   0.00000  Uiso   1.00
N272   N     0.50001   0.50001   0.04760   0.00000  Uiso   1.00
O273   O     0.50000   0.43892   0.20487   0.00000  Uiso   1.00
O274   O     0.50000   0.56108   0.12846   0.00000  Uiso   1.00
O275   O     0.50000   0.43893   0.12843   0.00000  Uiso   1.00
O276   O     0.50000   0.56107   0.20490   0.00000  Uiso   1.00
O277   O     0.42392   0.50000   0.19595   0.00000  Uiso   1.00
O278   O     0.57608   0.50000   0.13739   0.00000  Uiso   1.00
O279   O     0.42392   0.50000   0.11950   0.00000  Uiso   1.00
O280   O     0.57608   0.50000   0.21383   0.00000  Uiso   1.00
Zn281  Zn    0.50000   0.49999   0.21771   0.00000  Uiso   1.00
Zn282  Zn    0.50000   0.50001   0.11563   0.00000  Uiso   1.00
C283   C     0.46202   0.62759   0.08096   0.00000  Uiso   1.00
C284   C     0.49299   0.62912   0.04561   0.00000  Uiso   1.00
C285   C     0.47527   0.61051   0.00397   0.00000  Uiso   1.00
C286   C     0.42626   0.59083   0.33043   0.00000  Uiso   1.00
C287   C     0.39497   0.58962   0.03196   0.00000  Uiso   1.00
C288   C     0.41272   0.60782   0.07390   0.00000  Uiso   1.00
H289   H     0.53119   0.64411   0.05062   0.00000  Uiso   1.00
H290   H     0.49965   0.61118   0.31044   0.00000  Uiso   1.00
H291   H     0.41260   0.57643   0.29815   0.00000  Uiso   1.00
H292   H     0.35699   0.57460   0.02638   0.00000  Uiso   1.00
H293   H     0.38828   0.60645   0.10078   0.00000  Uiso   1.00
C294   C     0.53799   0.37241   0.25237   0.00000  Uiso   1.00
C295   C     0.58729   0.39217   0.25943   0.00000  Uiso   1.00
C296   C     0.60505   0.41036   0.30137   0.00000  Uiso   1.00
C297   C     0.57376   0.40917   0.00290   0.00000  Uiso   1.00
C298   C     0.52474   0.38949   0.32936   0.00000  Uiso   1.00
C299   C     0.50701   0.37089   0.28772   0.00000  Uiso   1.00
H300   H     0.61173   0.39353   0.23255   0.00000  Uiso   1.00
H301   H     0.64304   0.42538   0.30695   0.00000  Uiso   1.00
H302   H     0.58743   0.42356   0.03518   0.00000  Uiso   1.00
H303   H     0.50036   0.38883   0.02289   0.00000  Uiso   1.00
H304   H     0.46881   0.35591   0.28271   0.00000  Uiso   1.00
C305   C     0.58521   0.53922   0.05423   0.00000  Uiso   1.00
H306   H     0.62433   0.53283   0.04698   0.00000  Uiso   1.00
O307   O     0.57920   0.56571   0.08186   0.00000  Uiso   1.00
C308   C     0.41479   0.46078   0.27910   0.00000  Uiso   1.00
H309   H     0.37567   0.46718   0.28635   0.00000  Uiso   1.00
O310   O     0.42080   0.43429   0.25148   0.00000  Uiso   1.00
C311   C     0.83446   0.42007   0.16714   0.00000  Uiso   1.00
C312   C     0.83221   0.57993   0.16619   0.00000  Uiso   1.00
C313   C     0.73385   0.49970   0.15489   0.00000  Uiso   1.00
C314   C     0.93282   0.50030   0.17844   0.00000  Uiso   1.00
C315   C     0.67895   0.49806   0.14864   0.00000  Uiso   1.00
C316   C     0.98771   0.50194   0.18470   0.00000  Uiso   1.00
C317   C     0.81715   0.35591   0.12704   0.00000  Uiso   1.00
C318   C     0.84951   0.64409   0.20629   0.00000  Uiso   1.00
C319   C     0.81497   0.64673   0.12527   0.00000  Uiso   1.00
C320   C     0.85169   0.35327   0.20806   0.00000  Uiso   1.00
C321   C     0.83151   0.62413   0.16551   0.00000  Uiso   1.00
C322   C     0.83515   0.37587   0.16782   0.00000  Uiso   1.00
C323   C     0.87366   0.51824   0.02773   0.00000  Uiso   1.00
C324   C     0.79301   0.48176   0.30560   0.00000  Uiso   1.00
C325   C     0.87361   0.51762   0.31342   0.00000  Uiso   1.00
C326   C     0.79306   0.48238   0.01992   0.00000  Uiso   1.00
H327   H     0.99224   0.49297   0.11449   0.00000  Uiso   1.00
H328   H     0.67442   0.50703   0.21884   0.00000  Uiso   1.00
H329   H     0.80344   0.37345   0.09644   0.00000  Uiso   1.00
H330   H     0.86322   0.62655   0.23690   0.00000  Uiso   1.00
H331   H     0.90547   0.53201   0.29842   0.00000  Uiso   1.00
H332   H     0.76120   0.46799   0.03492   0.00000  Uiso   1.00
N333   N     0.83332   0.49999   0.28573   0.00000  Uiso   1.00
N334   N     0.83335   0.50001   0.04760   0.00000  Uiso   1.00
O335   O     0.83333   0.43892   0.20487   0.00000  Uiso   1.00
O336   O     0.83334   0.56108   0.12846   0.00000  Uiso   1.00
O337   O     0.83333   0.43893   0.12843   0.00000  Uiso   1.00
O338   O     0.83334   0.56107   0.20490   0.00000  Uiso   1.00
O339   O     0.75725   0.50000   0.19595   0.00000  Uiso   1.00
O340   O     0.90942   0.50000   0.13739   0.00000  Uiso   1.00
O341   O     0.75725   0.50000   0.11950   0.00000  Uiso   1.00
O342   O     0.90942   0.50000   0.21383   0.00000  Uiso   1.00
Zn343  Zn    0.83333   0.49999   0.21771   0.00000  Uiso   1.00
Zn344  Zn    0.83333   0.50001   0.11563   0.00000  Uiso   1.00
C345   C     0.79535   0.62759   0.08096   0.00000  Uiso   1.00
C346   C     0.82633   0.62912   0.04561   0.00000  Uiso   1.00
C347   C     0.80860   0.61051   0.00397   0.00000  Uiso   1.00
C348   C     0.75959   0.59083   0.33043   0.00000  Uiso   1.00
C349   C     0.72830   0.58962   0.03196   0.00000  Uiso   1.00
C350   C     0.74605   0.60782   0.07390   0.00000  Uiso   1.00
H351   H     0.86453   0.64411   0.05062   0.00000  Uiso   1.00
H352   H     0.83299   0.61118   0.31044   0.00000  Uiso   1.00
H353   H     0.74593   0.57643   0.29815   0.00000  Uiso   1.00
H354   H     0.69032   0.57460   0.02638   0.00000  Uiso   1.00
H355   H     0.72162   0.60645   0.10078   0.00000  Uiso   1.00
C356   C     0.87132   0.37241   0.25237   0.00000  Uiso   1.00
C357   C     0.92062   0.39217   0.25943   0.00000  Uiso   1.00
C358   C     0.93838   0.41036   0.30137   0.00000  Uiso   1.00
C359   C     0.90709   0.40917   0.00290   0.00000  Uiso   1.00
C360   C     0.85807   0.38949   0.32936   0.00000  Uiso   1.00
C361   C     0.84034   0.37089   0.28772   0.00000  Uiso   1.00
H362   H     0.94506   0.39353   0.23255   0.00000  Uiso   1.00
H363   H     0.97637   0.42538   0.30695   0.00000  Uiso   1.00
H364   H     0.92076   0.42356   0.03518   0.00000  Uiso   1.00
H365   H     0.83369   0.38883   0.02289   0.00000  Uiso   1.00
H366   H     0.80214   0.35591   0.28271   0.00000  Uiso   1.00
C367   C     0.91854   0.53922   0.05423   0.00000  Uiso   1.00
H368   H     0.95766   0.53283   0.04698   0.00000  Uiso   1.00
O369   O     0.91253   0.56571   0.08186   0.00000  Uiso   1.00
C370   C     0.74812   0.46078   0.27910   0.00000  Uiso   1.00
H371   H     0.70900   0.46718   0.28635   0.00000  Uiso   1.00
O372   O     0.75413   0.43429   0.25148   0.00000  Uiso   1.00
C373   C     0.16779   0.75340   0.16714   0.00000  Uiso   1.00
C374   C     0.16554   0.91326   0.16619   0.00000  Uiso   1.00
C375   C     0.06718   0.83303   0.15489   0.00000  Uiso   1.00
C376   C     0.26615   0.83363   0.17844   0.00000  Uiso   1.00
C377   C     0.01229   0.83140   0.14864   0.00000  Uiso   1.00
C378   C     0.32105   0.83527   0.18470   0.00000  Uiso   1.00
C379   C     0.15049   0.68925   0.12704   0.00000  Uiso   1.00
C380   C     0.18284   0.97742   0.20629   0.00000  Uiso   1.00
C381   C     0.14830   0.98006   0.12527   0.00000  Uiso   1.00
C382   C     0.18503   0.68661   0.20806   0.00000  Uiso   1.00
C383   C     0.16485   0.95747   0.16551   0.00000  Uiso   1.00
C384   C     0.16848   0.70920   0.16782   0.00000  Uiso   1.00
C385   C     0.20700   0.85157   0.02773   0.00000  Uiso   1.00
C386   C     0.12634   0.81510   0.30560   0.00000  Uiso   1.00
C387   C     0.20694   0.85096   0.31342   0.00000  Uiso   1.00
C388   C     0.12639   0.81571   0.01992   0.00000  Uiso   1.00
H389   H     0.32558   0.82631   0.11449   0.00000  Uiso   1.00
H390   H     0.00776   0.84036   0.21884   0.00000  Uiso   1.00
H391   H     0.13678   0.70678   0.09644   0.00000  Uiso   1.00
H392   H     0.19656   0.95988   0.23690   0.00000  Uiso   1.00
H393   H     0.23880   0.86534   0.29842   0.00000  Uiso   1.00
H394   H     0.09453   0.80132   0.03492   0.00000  Uiso   1.00
N395   N     0.16665   0.83332   0.28573   0.00000  Uiso   1.00
N396   N     0.16668   0.83334   0.04760   0.00000  Uiso   1.00
O397   O     0.16666   0.77225   0.20487   0.00000  Uiso   1.00
O398   O     0.16667   0.89442   0.12846   0.00000  Uiso   1.00
O399   O     0.16666   0.77226   0.12843   0.00000  Uiso   1.00
O400   O     0.16667   0.89441   0.20490   0.00000  Uiso   1.00
O401   O     0.09058   0.83333   0.19595   0.00000  Uiso   1.00
O402   O     0.24275   0.83334   0.13739   0.00000  Uiso   1.00
O403   O     0.09058   0.83334   0.11950   0.00000  Uiso   1.00
O404   O     0.24275   0.83333   0.21383   0.00000  Uiso   1.00
Zn405  Zn    0.16667   0.83333   0.21771   0.00000  Uiso   1.00
Zn406  Zn    0.16667   0.83334   0.11563   0.00000  Uiso   1.00
C407   C     0.12868   0.96093   0.08096   0.00000  Uiso   1.00
C408   C     0.15966   0.96245   0.04561   0.00000  Uiso   1.00
C409   C     0.14194   0.94385   0.00397   0.00000  Uiso   1.00
C410   C     0.09293   0.92416   0.33043   0.00000  Uiso   1.00
C411   C     0.06164   0.92296   0.03196   0.00000  Uiso   1.00
C412   C     0.07939   0.94115   0.07390   0.00000  Uiso   1.00
H413   H     0.19786   0.97744   0.05062   0.00000  Uiso   1.00
H414   H     0.16632   0.94452   0.31044   0.00000  Uiso   1.00
H415   H     0.07926   0.90976   0.29815   0.00000  Uiso   1.00
H416   H     0.02365   0.90793   0.02638   0.00000  Uiso   1.00
H417   H     0.05495   0.93978   0.10078   0.00000  Uiso   1.00
C418   C     0.20465   0.70574   0.25237   0.00000  Uiso   1.00
C419   C     0.25395   0.72550   0.25943   0.00000  Uiso   1.00
C420   C     0.27171   0.74370   0.30137   0.00000  Uiso   1.00
C421   C     0.24042   0.74250   0.00290   0.00000  Uiso   1.00
C422   C     0.19141   0.72283   0.32936   0.00000  Uiso   1.00
C423   C     0.17368   0.70422   0.28772   0.00000  Uiso   1.00
H424   H     0.27839   0.72686   0.23255   0.00000  Uiso   1.00
H425   H     0.30970   0.75871   0.30695   0.00000  Uiso   1.00
H426   H     0.25409   0.75690   0.03518   0.00000  Uiso   1.00
H427   H     0.16702   0.72216   0.02289   0.00000  Uiso   1.00
H428   H     0.13547   0.68924   0.28271   0.00000  Uiso   1.00
C429   C     0.25188   0.87255   0.05423   0.00000  Uiso   1.00
H430   H     0.29100   0.86616   0.04698   0.00000  Uiso   1.00
O431   O     0.24587   0.89904   0.08186   0.00000  Uiso   1.00
C432   C     0.08146   0.79411   0.27910   0.00000  Uiso   1.00
H433   H     0.04234   0.80051   0.28635   0.00000  Uiso   1.00
O434   O     0.08746   0.76763   0.25148   0.00000  Uiso   1.00
C435   C     0.50112   0.75340   0.16714   0.00000  Uiso   1.00
C436   C     0.49888   0.91326   0.16619   0.00000  Uiso   1.00
C437   C     0.40052   0.83303   0.15489   0.00000  Uiso   1.00
C438   C     0.59948   0.83363   0.17844   0.00000  Uiso   1.00
C439   C     0.34562   0.83140   0.14864   0.00000  Uiso   1.00
C440   C     0.65438   0.83527   0.18470   0.00000  Uiso   1.00
C441   C     0.48382   0.68925   0.12704   0.00000  Uiso   1.00
C442   C     0.51618   0.97742   0.20629   0.00000  Uiso   1.00
C443   C     0.48164   0.98006   0.12527   0.00000  Uiso   1.00
C444   C     0.51836   0.68661   0.20806   0.00000  Uiso   1.00
C445   C     0.49818   0.95747   0.16551   0.00000  Uiso   1.00
C446   C     0.50182   0.70920   0.16782   0.00000  Uiso   1.00
C447   C     0.54033   0.85157   0.02773   0.00000  Uiso   1.00
C448   C     0.45967   0.81510   0.30560   0.00000  Uiso   1.00
C449   C     0.54027   0.85096   0.31342   0.00000  Uiso   1.00
C450   C     0.45973   0.81571   0.01992   0.00000  Uiso   1.00
H451   H     0.65891   0.82631   0.11449   0.00000  Uiso   1.00
H452   H     0.34109   0.84036   0.21884   0.00000  Uiso   1.00
H453   H     0.47011   0.70678   0.09644   0.00000  Uiso   1.00
H454   H     0.52989   0.95988   0.23690   0.00000  Uiso   1.00
H455   H     0.57213   0.86534   0.29842   0.00000  Uiso   1.00
H456   H     0.42787   0.80132   0.03492   0.00000  Uiso   1.00
N457   N     0.49999   0.83332   0.28573   0.00000  Uiso   1.00
N458   N     0.50001   0.83334   0.04760   0.00000  Uiso   1.00
O459   O     0.50000   0.77225   0.20487   0.00000  Uiso   1.00
O460   O     0.50000   0.89442   0.12846   0.00000  Uiso   1.00
O461   O     0.50000   0.77226   0.12843   0.00000  Uiso   1.00
O462   O     0.50000   0.89441   0.20490   0.00000  Uiso   1.00
O463   O     0.42392   0.83333   0.19595   0.00000  Uiso   1.00
O464   O     0.57608   0.83334   0.13739   0.00000  Uiso   1.00
O465   O     0.42392   0.83334   0.11950   0.00000  Uiso   1.00
O466   O     0.57608   0.83333   0.21383   0.00000  Uiso   1.00
Zn467  Zn    0.50000   0.83333   0.21771   0.00000  Uiso   1.00
Zn468  Zn    0.50000   0.83334   0.11563   0.00000  Uiso   1.00
C469   C     0.46202   0.96093   0.08096   0.00000  Uiso   1.00
C470   C     0.49299   0.96245   0.04561   0.00000  Uiso   1.00
C471   C     0.47527   0.94385   0.00397   0.00000  Uiso   1.00
C472   C     0.42626   0.92416   0.33043   0.00000  Uiso   1.00
C473   C     0.39497   0.92296   0.03196   0.00000  Uiso   1.00
C474   C     0.41272   0.94115   0.07390   0.00000  Uiso   1.00
H475   H     0.53119   0.97744   0.05062   0.00000  Uiso   1.00
H476   H     0.49965   0.94452   0.31044   0.00000  Uiso   1.00
H477   H     0.41260   0.90976   0.29815   0.00000  Uiso   1.00
H478   H     0.35699   0.90793   0.02638   0.00000  Uiso   1.00
H479   H     0.38828   0.93978   0.10078   0.00000  Uiso   1.00
C480   C     0.53799   0.70574   0.25237   0.00000  Uiso   1.00
C481   C     0.58729   0.72550   0.25943   0.00000  Uiso   1.00
C482   C     0.60505   0.74370   0.30137   0.00000  Uiso   1.00
C483   C     0.57376   0.74250   0.00290   0.00000  Uiso   1.00
C484   C     0.52474   0.72283   0.32936   0.00000  Uiso   1.00
C485   C     0.50701   0.70422   0.28772   0.00000  Uiso   1.00
H486   H     0.61173   0.72686   0.23255   0.00000  Uiso   1.00
H487   H     0.64304   0.75871   0.30695   0.00000  Uiso   1.00
H488   H     0.58743   0.75690   0.03518   0.00000  Uiso   1.00
H489   H     0.50036   0.72216   0.02289   0.00000  Uiso   1.00
H490   H     0.46881   0.68924   0.28271   0.00000  Uiso   1.00
C491   C     0.58521   0.87255   0.05423   0.00000  Uiso   1.00
H492   H     0.62433   0.86616   0.04698   0.00000  Uiso   1.00
O493   O     0.57920   0.89904   0.08186   0.00000  Uiso   1.00
C494   C     0.41479   0.79411   0.27910   0.00000  Uiso   1.00
H495   H     0.37567   0.80051   0.28635   0.00000  Uiso   1.00
O496   O     0.42080   0.76763   0.25148   0.00000  Uiso   1.00
C497   C     0.83446   0.75340   0.16714   0.00000  Uiso   1.00
C498   C     0.83221   0.91326   0.16619   0.00000  Uiso   1.00
C499   C     0.73385   0.83303   0.15489   0.00000  Uiso   1.00
C500   C     0.93282   0.83363   0.17844   0.00000  Uiso   1.00
C501   C     0.67895   0.83140   0.14864   0.00000  Uiso   1.00
C502   C     0.98771   0.83527   0.18470   0.00000  Uiso   1.00
C503   C     0.81715   0.68925   0.12704   0.00000  Uiso   1.00
C504   C     0.84951   0.97742   0.20629   0.00000  Uiso   1.00
C505   C     0.81497   0.98006   0.12527   0.00000  Uiso   1.00
C506   C     0.85169   0.68661   0.20806   0.00000  Uiso   1.00
C507   C     0.83151   0.95747   0.16551   0.00000  Uiso   1.00
C508   C     0.83515   0.70920   0.16782   0.00000  Uiso   1.00
C509   C     0.87366   0.85157   0.02773   0.00000  Uiso   1.00
C510   C     0.79301   0.81510   0.30560   0.00000  Uiso   1.00
C511   C     0.87361   0.85096   0.31342   0.00000  Uiso   1.00
C512   C     0.79306   0.81571   0.01992   0.00000  Uiso   1.00
H513   H     0.99224   0.82631   0.11449   0.00000  Uiso   1.00
H514   H     0.67442   0.84036   0.21884   0.00000  Uiso   1.00
H515   H     0.80344   0.70678   0.09644   0.00000  Uiso   1.00
H516   H     0.86322   0.95988   0.23690   0.00000  Uiso   1.00
H517   H     0.90547   0.86534   0.29842   0.00000  Uiso   1.00
H518   H     0.76120   0.80132   0.03492   0.00000  Uiso   1.00
N519   N     0.83332   0.83332   0.28573   0.00000  Uiso   1.00
N520   N     0.83335   0.83334   0.04760   0.00000  Uiso   1.00
O521   O     0.83333   0.77225   0.20487   0.00000  Uiso   1.00
O522   O     0.83334   0.89442   0.12846   0.00000  Uiso   1.00
O523   O     0.83333   0.77226   0.12843   0.00000  Uiso   1.00
O524   O     0.83334   0.89441   0.20490   0.00000  Uiso   1.00
O525   O     0.75725   0.83333   0.19595   0.00000  Uiso   1.00
O526   O     0.90942   0.83334   0.13739   0.00000  Uiso   1.00
O527   O     0.75725   0.83334   0.11950   0.00000  Uiso   1.00
O528   O     0.90942   0.83333   0.21383   0.00000  Uiso   1.00
Zn529  Zn    0.83333   0.83333   0.21771   0.00000  Uiso   1.00
Zn530  Zn    0.83333   0.83334   0.11563   0.00000  Uiso   1.00
C531   C     0.79535   0.96093   0.08096   0.00000  Uiso   1.00
C532   C     0.82633   0.96245   0.04561   0.00000  Uiso   1.00
C533   C     0.80860   0.94385   0.00397   0.00000  Uiso   1.00
C534   C     0.75959   0.92416   0.33043   0.00000  Uiso   1.00
C535   C     0.72830   0.92296   0.03196   0.00000  Uiso   1.00
C536   C     0.74605   0.94115   0.07390   0.00000  Uiso   1.00
H537   H     0.86453   0.97744   0.05062   0.00000  Uiso   1.00
H538   H     0.83299   0.94452   0.31044   0.00000  Uiso   1.00
H539   H     0.74593   0.90976   0.29815   0.00000  Uiso   1.00
H540   H     0.69032   0.90793   0.02638   0.00000  Uiso   1.00
H541   H     0.72162   0.93978   0.10078   0.00000  Uiso   1.00
C542   C     0.87132   0.70574   0.25237   0.00000  Uiso   1.00
C543   C     0.92062   0.72550   0.25943   0.00000  Uiso   1.00
C544   C     0.93838   0.74370   0.30137   0.00000  Uiso   1.00
C545   C     0.90709   0.74250   0.00290   0.00000  Uiso   1.00
C546   C     0.85807   0.72283   0.32936   0.00000  Uiso   1.00
C547   C     0.84034   0.70422   0.28772   0.00000  Uiso   1.00
H548   H     0.94506   0.72686   0.23255   0.00000  Uiso   1.00
H549   H     0.97637   0.75871   0.30695   0.00000  Uiso   1.00
H550   H     0.92076   0.75690   0.03518   0.00000  Uiso   1.00
H551   H     0.83369   0.72216   0.02289   0.00000  Uiso   1.00
H552   H     0.80214   0.68924   0.28271   0.00000  Uiso   1.00
C553   C     0.91854   0.87255   0.05423   0.00000  Uiso   1.00
H554   H     0.95766   0.86616   0.04698   0.00000  Uiso   1.00
O555   O     0.91253   0.89904   0.08186   0.00000  Uiso   1.00
C556   C     0.74812   0.79411   0.27910   0.00000  Uiso   1.00
H557   H     0.70900   0.80051   0.28635   0.00000  Uiso   1.00
O558   O     0.75413   0.76763   0.25148   0.00000  Uiso   1.00
C559   C     0.16779   0.08674   0.50047   0.00000  Uiso   1.00
C560   C     0.16554   0.24660   0.49952   0.00000  Uiso   1.00
C561   C     0.06718   0.16637   0.48823   0.00000  Uiso   1.00
C562   C     0.26615   0.16697   0.51177   0.00000  Uiso   1.00
C563   C     0.01229   0.16473   0.48197   0.00000  Uiso   1.00
C564   C     0.32105   0.16860   0.51803   0.00000  Uiso   1.00
C565   C     0.15049   0.02258   0.46037   0.00000  Uiso   1.00
C566   C     0.18284   0.31075   0.53962   0.00000  Uiso   1.00
C567   C     0.14830   0.31339   0.45860   0.00000  Uiso   1.00
C568   C     0.18503   0.01994   0.54139   0.00000  Uiso   1.00
C569   C     0.16485   0.29080   0.49884   0.00000  Uiso   1.00
C570   C     0.16848   0.04253   0.50116   0.00000  Uiso   1.00
C571   C     0.20700   0.18490   0.36107   0.00000  Uiso   1.00
C572   C     0.12634   0.14843   0.63893   0.00000  Uiso   1.00
C573   C     0.20694   0.18429   0.64675   0.00000  Uiso   1.00
C574   C     0.12639   0.14904   0.35325   0.00000  Uiso   1.00
H575   H     0.32558   0.15964   0.44782   0.00000  Uiso   1.00
H576   H     0.00776   0.17370   0.55218   0.00000  Uiso   1.00
H577   H     0.13678   0.04012   0.42977   0.00000  Uiso   1.00
H578   H     0.19656   0.29322   0.57023   0.00000  Uiso   1.00
H579   H     0.23880   0.19868   0.63175   0.00000  Uiso   1.00
H580   H     0.09453   0.13466   0.36825   0.00000  Uiso   1.00
N581   N     0.16665   0.16666   0.61907   0.00000  Uiso   1.00
N582   N     0.16668   0.16668   0.38093   0.00000  Uiso   1.00
O583   O     0.16666   0.10558   0.53821   0.00000  Uiso   1.00
O584   O     0.16667   0.22775   0.46179   0.00000  Uiso   1.00
O585   O     0.16666   0.10559   0.46176   0.00000  Uiso   1.00
O586   O     0.16667   0.22774   0.53824   0.00000  Uiso   1.00
O587   O     0.09058   0.16666   0.52928   0.00000  Uiso   1.00
O588   O     0.24275   0.16667   0.47072   0.00000  Uiso   1.00
O589   O     0.09058   0.16667   0.45284   0.00000  Uiso   1.00
O590   O     0.24275   0.16666   0.54716   0.00000  Uiso   1.00
Zn591  Zn    0.16667   0.16666   0.55104   0.00000  Uiso   1.00
Zn592  Zn    0.16667   0.16667   0.44896   0.00000  Uiso   1.00
C593   C     0.12868   0.29426   0.41430   0.00000  Uiso   1.00
C594   C     0.15966   0.29578   0.37895   0.00000  Uiso   1.00
C595   C     0.14194   0.27718   0.33730   0.00000  Uiso   1.00
C596   C     0.09293   0.25750   0.66377   0.00000  Uiso   1.00
C597   C     0.06164   0.25629   0.36530   0.00000  Uiso   1.00
C598   C     0.07939   0.27449   0.40723   0.00000  Uiso   1.00
H599   H     0.19786   0.31078   0.38395   0.00000  Uiso   1.00
H600   H     0.16632   0.27785   0.64377   0.00000  Uiso   1.00
H601   H     0.07926   0.24310   0.63149   0.00000  Uiso   1.00
H602   H     0.02365   0.24127   0.35971   0.00000  Uiso   1.00
H603   H     0.05495   0.27312   0.43412   0.00000  Uiso   1.00
C604   C     0.20465   0.03907   0.58570   0.00000  Uiso   1.00
C605   C     0.25395   0.05884   0.59276   0.00000  Uiso   1.00
C606   C     0.27171   0.07703   0.63470   0.00000  Uiso   1.00
C607   C     0.24042   0.07583   0.33623   0.00000  Uiso   1.00
C608   C     0.19141   0.05616   0.66270   0.00000  Uiso   1.00
C609   C     0.17368   0.03756   0.62105   0.00000  Uiso   1.00
H610   H     0.27839   0.06020   0.56588   0.00000  Uiso   1.00
H611   H     0.30970   0.09204   0.64029   0.00000  Uiso   1.00
H612   H     0.25409   0.09023   0.36851   0.00000  Uiso   1.00
H613   H     0.16702   0.05550   0.35622   0.00000  Uiso   1.00
H614   H     0.13547   0.02257   0.61605   0.00000  Uiso   1.00
C615   C     0.25188   0.20589   0.38756   0.00000  Uiso   1.00
H616   H     0.29100   0.19949   0.38031   0.00000  Uiso   1.00
O617   O     0.24587   0.23237   0.41519   0.00000  Uiso   1.00
C618   C     0.08146   0.12745   0.61244   0.00000  Uiso   1.00
H619   H     0.04234   0.13384   0.61969   0.00000  Uiso   1.00
O620   O     0.08746   0.10096   0.58481   0.00000  Uiso   1.00
C621   C     0.50112   0.08674   0.50047   0.00000  Uiso   1.00
C622   C     0.49888   0.24660   0.49952   0.00000  Uiso   1.00
C623   C     0.40052   0.16637   0.48823   0.00000  Uiso   1.00
C624   C     0.59948   0.16697   0.51177   0.00000  Uiso   1.00
C625   C     0.34562   0.16473   0.48197   0.00000  Uiso   1.00
C626   C     0.65438   0.16860   0.51803   0.00000  Uiso   1.00
C627   C     0.48382   0.02258   0.46037   0.00000  Uiso   1.00
C628   C     0.51618   0.31075   0.53962   0.00000  Uiso   1.00
C629   C     0.48164   0.31339   0.45860   0.00000  Uiso   1.00
C630   C     0.51836   0.01994   0.54139   0.00000  Uiso   1.00
C631   C     0.49818   0.29080   0.49884   0.00000  Uiso   1.00
C632   C     0.50182   0.04253   0.50116   0.00000  Uiso   1.00
C633   C     0.54033   0.18490   0.36107   0.00000  Uiso   1.00
C634   C     0.45967   0.14843   0.63893   0.00000  Uiso   1.00
C635   C     0.54027   0.18429   0.64675   0.00000  Uiso   1.00
C636   C     0.45973   0.14904   0.35325   0.00000  Uiso   1.00
H637   H     0.65891   0.15964   0.44782   0.00000  Uiso   1.00
H638   H     0.34109   0.17370   0.55218   0.00000  Uiso   1.00
H639   H     0.47011   0.04012   0.42977   0.00000  Uiso   1.00
H640   H     0.52989   0.29322   0.57023   0.00000  Uiso   1.00
H641   H     0.57213   0.19868   0.63175   0.00000  Uiso   1.00
H642   H     0.42787   0.13466   0.36825   0.00000  Uiso   1.00
N643   N     0.49999   0.16666   0.61907   0.00000  Uiso   1.00
N644   N     0.50001   0.16668   0.38093   0.00000  Uiso   1.00
O645   O     0.50000   0.10558   0.53821   0.00000  Uiso   1.00
O646   O     0.50000   0.22775   0.46179   0.00000  Uiso   1.00
O647   O     0.50000   0.10559   0.46176   0.00000  Uiso   1.00
O648   O     0.50000   0.22774   0.53824   0.00000  Uiso   1.00
O649   O     0.42392   0.16666   0.52928   0.00000  Uiso   1.00
O650   O     0.57608   0.16667   0.47072   0.00000  Uiso   1.00
O651   O     0.42392   0.16667   0.45284   0.00000  Uiso   1.00
O652   O     0.57608   0.16666   0.54716   0.00000  Uiso   1.00
Zn653  Zn    0.50000   0.16666   0.55104   0.00000  Uiso   1.00
Zn654  Zn    0.50000   0.16667   0.44896   0.00000  Uiso   1.00
C655   C     0.46202   0.29426   0.41430   0.00000  Uiso   1.00
C656   C     0.49299   0.29578   0.37895   0.00000  Uiso   1.00
C657   C     0.47527   0.27718   0.33730   0.00000  Uiso   1.00
C658   C     0.42626   0.25750   0.66377   0.00000  Uiso   1.00
C659   C     0.39497   0.25629   0.36530   0.00000  Uiso   1.00
C660   C     0.41272   0.27449   0.40723   0.00000  Uiso   1.00
H661   H     0.53119   0.31078   0.38395   0.00000  Uiso   1.00
H662   H     0.49965   0.27785   0.64377   0.00000  Uiso   1.00
H663   H     0.41260   0.24310   0.63149   0.00000  Uiso   1.00
H664   H     0.35699   0.24127   0.35971   0.00000  Uiso   1.00
H665   H     0.38828   0.27312   0.43412   0.00000  Uiso   1.00
C666   C     0.53799   0.03907   0.58570   0.00000  Uiso   1.00
C667   C     0.58729   0.05884   0.59276   0.00000  Uiso   1.00
C668   C     0.60505   0.07703   0.63470   0.00000  Uiso   1.00
C669   C     0.57376   0.07583   0.33623   0.00000  Uiso   1.00
C670   C     0.52474   0.05616   0.66270   0.00000  Uiso   1.00
C671   C     0.50701   0.03756   0.62105   0.00000  Uiso   1.00
H672   H     0.61173   0.06020   0.56588   0.00000  Uiso   1.00
H673   H     0.64304   0.09204   0.64029   0.00000  Uiso   1.00
H674   H     0.58743   0.09023   0.36851   0.00000  Uiso   1.00
H675   H     0.50036   0.05550   0.35622   0.00000  Uiso   1.00
H676   H     0.46881   0.02257   0.61605   0.00000  Uiso   1.00
C677   C     0.58521   0.20589   0.38756   0.00000  Uiso   1.00
H678   H     0.62433   0.19949   0.38031   0.00000  Uiso   1.00
O679   O     0.57920   0.23237   0.41519   0.00000  Uiso   1.00
C680   C     0.41479   0.12745   0.61244   0.00000  Uiso   1.00
H681   H     0.37567   0.13384   0.61969   0.00000  Uiso   1.00
O682   O     0.42080   0.10096   0.58481   0.00000  Uiso   1.00
C683   C     0.83446   0.08674   0.50047   0.00000  Uiso   1.00
C684   C     0.83221   0.24660   0.49952   0.00000  Uiso   1.00
C685   C     0.73385   0.16637   0.48823   0.00000  Uiso   1.00
C686   C     0.93282   0.16697   0.51177   0.00000  Uiso   1.00
C687   C     0.67895   0.16473   0.48197   0.00000  Uiso   1.00
C688   C     0.98771   0.16860   0.51803   0.00000  Uiso   1.00
C689   C     0.81715   0.02258   0.46037   0.00000  Uiso   1.00
C690   C     0.84951   0.31075   0.53962   0.00000  Uiso   1.00
C691   C     0.81497   0.31339   0.45860   0.00000  Uiso   1.00
C692   C     0.85169   0.01994   0.54139   0.00000  Uiso   1.00
C693   C     0.83151   0.29080   0.49884   0.00000  Uiso   1.00
C694   C     0.83515   0.04253   0.50116   0.00000  Uiso   1.00
C695   C     0.87366   0.18490   0.36107   0.00000  Uiso   1.00
C696   C     0.79301   0.14843   0.63893   0.00000  Uiso   1.00
C697   C     0.87361   0.18429   0.64675   0.00000  Uiso   1.00
C698   C     0.79306   0.14904   0.35325   0.00000  Uiso   1.00
H699   H     0.99224   0.15964   0.44782   0.00000  Uiso   1.00
H700   H     0.67442   0.17370   0.55218   0.00000  Uiso   1.00
H701   H     0.80344   0.04012   0.42977   0.00000  Uiso   1.00
H702   H     0.86322   0.29322   0.57023   0.00000  Uiso   1.00
H703   H     0.90547   0.19868   0.63175   0.00000  Uiso   1.00
H704   H     0.76120   0.13466   0.36825   0.00000  Uiso   1.00
N705   N     0.83332   0.16666   0.61907   0.00000  Uiso   1.00
N706   N     0.83335   0.16668   0.38093   0.00000  Uiso   1.00
O707   O     0.83333   0.10558   0.53821   0.00000  Uiso   1.00
O708   O     0.83334   0.22775   0.46179   0.00000  Uiso   1.00
O709   O     0.83333   0.10559   0.46176   0.00000  Uiso   1.00
O710   O     0.83334   0.22774   0.53824   0.00000  Uiso   1.00
O711   O     0.75725   0.16666   0.52928   0.00000  Uiso   1.00
O712   O     0.90942   0.16667   0.47072   0.00000  Uiso   1.00
O713   O     0.75725   0.16667   0.45284   0.00000  Uiso   1.00
O714   O     0.90942   0.16666   0.54716   0.00000  Uiso   1.00
Zn715  Zn    0.83333   0.16666   0.55104   0.00000  Uiso   1.00
Zn716  Zn    0.83333   0.16667   0.44896   0.00000  Uiso   1.00
C717   C     0.79535   0.29426   0.41430   0.00000  Uiso   1.00
C718   C     0.82633   0.29578   0.37895   0.00000  Uiso   1.00
C719   C     0.80860   0.27718   0.33730   0.00000  Uiso   1.00
C720   C     0.75959   0.25750   0.66377   0.00000  Uiso   1.00
C721   C     0.72830   0.25629   0.36530   0.00000  Uiso   1.00
C722   C     0.74605   0.27449   0.40723   0.00000  Uiso   1.00
H723   H     0.86453   0.31078   0.38395   0.00000  Uiso   1.00
H724   H     0.83299   0.27785   0.64377   0.00000  Uiso   1.00
H725   H     0.74593   0.24310   0.63149   0.00000  Uiso   1.00
H726   H     0.69032   0.24127   0.35971   0.00000  Uiso   1.00
H727   H     0.72162   0.27312   0.43412   0.00000  Uiso   1.00
C728   C     0.87132   0.03907   0.58570   0.00000  Uiso   1.00
C729   C     0.92062   0.05884   0.59276   0.00000  Uiso   1.00
C730   C     0.93838   0.07703   0.63470   0.00000  Uiso   1.00
C731   C     0.90709   0.07583   0.33623   0.00000  Uiso   1.00
C732   C     0.85807   0.05616   0.66270   0.00000  Uiso   1.00
C733   C     0.84034   0.03756   0.62105   0.00000  Uiso   1.00
H734   H     0.94506   0.06020   0.56588   0.00000  Uiso   1.00
H735   H     0.97637   0.09204   0.64029   0.00000  Uiso   1.00
H736   H     0.92076   0.09023   0.36851   0.00000  Uiso   1.00
H737   H     0.83369   0.05550   0.35622   0.00000  Uiso   1.00
H738   H     0.80214   0.02257   0.61605   0.00000  Uiso   1.00
C739   C     0.91854   0.20589   0.38756   0.00000  Uiso   1.00
H740   H     0.95766   0.19949   0.38031   0.00000  Uiso   1.00
O741   O     0.91253   0.23237   0.41519   0.00000  Uiso   1.00
C742   C     0.74812   0.12745   0.61244   0.00000  Uiso   1.00
H743   H     0.70900   0.13384   0.61969   0.00000  Uiso   1.00
O744   O     0.75413   0.10096   0.58481   0.00000  Uiso   1.00
C745   C     0.16779   0.42007   0.50047   0.00000  Uiso   1.00
C746   C     0.16554   0.57993   0.49952   0.00000  Uiso   1.00
C747   C     0.06718   0.49970   0.48823   0.00000  Uiso   1.00
C748   C     0.26615   0.50030   0.51177   0.00000  Uiso   1.00
C749   C     0.01229   0.49806   0.48197   0.00000  Uiso   1.00
C750   C     0.32105   0.50194   0.51803   0.00000  Uiso   1.00
C751   C     0.15049   0.35591   0.46037   0.00000  Uiso   1.00
C752   C     0.18284   0.64409   0.53962   0.00000  Uiso   1.00
C753   C     0.14830   0.64673   0.45860   0.00000  Uiso   1.00
C754   C     0.18503   0.35327   0.54139   0.00000  Uiso   1.00
C755   C     0.16485   0.62413   0.49884   0.00000  Uiso   1.00
C756   C     0.16848   0.37587   0.50116   0.00000  Uiso   1.00
C757   C     0.20700   0.51824   0.36107   0.00000  Uiso   1.00
C758   C     0.12634   0.48176   0.63893   0.00000  Uiso   1.00
C759   C     0.20694   0.51762   0.64675   0.00000  Uiso   1.00
C760   C     0.12639   0.48238   0.35325   0.00000  Uiso   1.00
H761   H     0.32558   0.49297   0.44782   0.00000  Uiso   1.00
H762   H     0.00776   0.50703   0.55218   0.00000  Uiso   1.00
H763   H     0.13678   0.37345   0.42977   0.00000  Uiso   1.00
H764   H     0.19656   0.62655   0.57023   0.00000  Uiso   1.00
H765   H     0.23880   0.53201   0.63175   0.00000  Uiso   1.00
H766   H     0.09453   0.46799   0.36825   0.00000  Uiso   1.00
N767   N     0.16665   0.49999   0.61907   0.00000  Uiso   1.00
N768   N     0.16668   0.50001   0.38093   0.00000  Uiso   1.00
O769   O     0.16666   0.43892   0.53821   0.00000  Uiso   1.00
O770   O     0.16667   0.56108   0.46179   0.00000  Uiso   1.00
O771   O     0.16666   0.43893   0.46176   0.00000  Uiso   1.00
O772   O     0.16667   0.56107   0.53824   0.00000  Uiso   1.00
O773   O     0.09058   0.50000   0.52928   0.00000  Uiso   1.00
O774   O     0.24275   0.50000   0.47072   0.00000  Uiso   1.00
O775   O     0.09058   0.50000   0.45284   0.00000  Uiso   1.00
O776   O     0.24275   0.50000   0.54716   0.00000  Uiso   1.00
Zn777  Zn    0.16667   0.49999   0.55104   0.00000  Uiso   1.00
Zn778  Zn    0.16667   0.50001   0.44896   0.00000  Uiso   1.00
C779   C     0.12868   0.62759   0.41430   0.00000  Uiso   1.00
C780   C     0.15966   0.62912   0.37895   0.00000  Uiso   1.00
C781   C     0.14194   0.61051   0.33730   0.00000  Uiso   1.00
C782   C     0.09293   0.59083   0.66377   0.00000  Uiso   1.00
C783   C     0.06164   0.58962   0.36530   0.00000  Uiso   1.00
C784   C     0.07939   0.60782   0.40723   0.00000  Uiso   1.00
H785   H     0.19786   0.64411   0.38395   0.00000  Uiso   1.00
H786   H     0.16632   0.61118   0.64377   0.00000  Uiso   1.00
H787   H     0.07926   0.57643   0.63149   0.00000  Uiso   1.00
H788   H     0.02365   0.57460   0.35971   0.00000  Uiso   1.00
H789   H     0.05495   0.60645   0.43412   0.00000  Uiso   1.00
C790   C     0.20465   0.37241   0.58570   0.00000  Uiso   1.00
C791   C     0.25395   0.39217   0.59276   0.00000  Uiso   1.00
C792   C     0.27171   0.41036   0.63470   0.00000  Uiso   1.00
C793   C     0.24042   0.40917   0.33623   0.00000  Uiso   1.00
C794   C     0.19141   0.38949   0.66270   0.00000  Uiso   1.00
C795   C     0.17368   0.37089   0.62105   0.00000  Uiso   1.00
H796   H     0.27839   0.39353   0.56588   0.00000  Uiso   1.00
H797   H     0.30970   0.42538   0.64029   0.00000  Uiso   1.00
H798   H     0.25409   0.42356   0.36851   0.00000  Uiso   1.00
H799   H     0.16702   0.38883   0.35622   0.00000  Uiso   1.00
H800   H     0.13547   0.35591   0.61605   0.00000  Uiso   1.00
C801   C     0.25188   0.53922   0.38756   0.00000  Uiso   1.00
H802   H     0.29100   0.53283   0.38031   0.00000  Uiso   1.00
O803   O     0.24587   0.56571   0.41519   0.00000  Uiso   1.00
C804   C     0.08146   0.46078   0.61244   0.00000  Uiso   1.00
H805   H     0.04234   0.46718   0.61969   0.00000  Uiso   1.00
O806   O     0.08746   0.43429   0.58481   0.00000  Uiso   1.00
C807   C     0.50112   0.42007   0.50047   0.00000  Uiso   1.00
C808   C     0.49888   0.57993   0.49952   0.00000  Uiso   1.00
C809   C     0.40052   0.49970   0.48823   0.00000  Uiso   1.00
C810   C     0.59948   0.50030   0.51177   0.00000  Uiso   1.00
C811   C     0.34562   0.49806   0.48197   0.00000  Uiso   1.00
C812   C     0.65438   0.50194   0.51803   0.00000  Uiso   1.00
C813   C     0.48382   0.35591   0.46037   0.00000  Uiso   1.00
C814   C     0.51618   0.64409   0.53962   0.00000  Uiso   1.00
C815   C     0.48164   0.64673   0.45860   0.00000  Uiso   1.00
C816   C     0.51836   0.35327   0.54139   0.00000  Uiso   1.00
C817   C     0.49818   0.62413   0.49884   0.00000  Uiso   1.00
C818   C     0.50182   0.37587   0.50116   0.00000  Uiso   1.00
C819   C     0.54033   0.51824   0.36107   0.00000  Uiso   1.00
C820   C     0.45967   0.48176   0.63893   0.00000  Uiso   1.00
C821   C     0.54027   0.51762   0.64675   0.00000  Uiso   1.00
C822   C     0.45973   0.48238   0.35325   0.00000  Uiso   1.00
H823   H     0.65891   0.49297   0.44782   0.00000  Uiso   1.00
H824   H     0.34109   0.50703   0.55218   0.00000  Uiso   1.00
H825   H     0.47011   0.37345   0.42977   0.00000  Uiso   1.00
H826   H     0.52989   0.62655   0.57023   0.00000  Uiso   1.00
H827   H     0.57213   0.53201   0.63175   0.00000  Uiso   1.00
H828   H     0.42787   0.46799   0.36825   0.00000  Uiso   1.00
N829   N     0.49999   0.49999   0.61907   0.00000  Uiso   1.00
N830   N     0.50001   0.50001   0.38093   0.00000  Uiso   1.00
O831   O     0.50000   0.43892   0.53821   0.00000  Uiso   1.00
O832   O     0.50000   0.56108   0.46179   0.00000  Uiso   1.00
O833   O     0.50000   0.43893   0.46176   0.00000  Uiso   1.00
O834   O     0.50000   0.56107   0.53824   0.00000  Uiso   1.00
O835   O     0.42392   0.50000   0.52928   0.00000  Uiso   1.00
O836   O     0.57608   0.50000   0.47072   0.00000  Uiso   1.00
O837   O     0.42392   0.50000   0.45284   0.00000  Uiso   1.00
O838   O     0.57608   0.50000   0.54716   0.00000  Uiso   1.00
Zn839  Zn    0.50000   0.49999   0.55104   0.00000  Uiso   1.00
Zn840  Zn    0.50000   0.50001   0.44896   0.00000  Uiso   1.00
C841   C     0.46202   0.62759   0.41430   0.00000  Uiso   1.00
C842   C     0.49299   0.62912   0.37895   0.00000  Uiso   1.00
C843   C     0.47527   0.61051   0.33730   0.00000  Uiso   1.00
C844   C     0.42626   0.59083   0.66377   0.00000  Uiso   1.00
C845   C     0.39497   0.58962   0.36530   0.00000  Uiso   1.00
C846   C     0.41272   0.60782   0.40723   0.00000  Uiso   1.00
H847   H     0.53119   0.64411   0.38395   0.00000  Uiso   1.00
H848   H     0.49965   0.61118   0.64377   0.00000  Uiso   1.00
H849   H     0.41260   0.57643   0.63149   0.00000  Uiso   1.00
H850   H     0.35699   0.57460   0.35971   0.00000  Uiso   1.00
H851   H     0.38828   0.60645   0.43412   0.00000  Uiso   1.00
C852   C     0.53799   0.37241   0.58570   0.00000  Uiso   1.00
C853   C     0.58729   0.39217   0.59276   0.00000  Uiso   1.00
C854   C     0.60505   0.41036   0.63470   0.00000  Uiso   1.00
C855   C     0.57376   0.40917   0.33623   0.00000  Uiso   1.00
C856   C     0.52474   0.38949   0.66270   0.00000  Uiso   1.00
C857   C     0.50701   0.37089   0.62105   0.00000  Uiso   1.00
H858   H     0.61173   0.39353   0.56588   0.00000  Uiso   1.00
H859   H     0.64304   0.42538   0.64029   0.00000  Uiso   1.00
H860   H     0.58743   0.42356   0.36851   0.00000  Uiso   1.00
H861   H     0.50036   0.38883   0.35622   0.00000  Uiso   1.00
H862   H     0.46881   0.35591   0.61605   0.00000  Uiso   1.00
C863   C     0.58521   0.53922   0.38756   0.00000  Uiso   1.00
H864   H     0.62433   0.53283   0.38031   0.00000  Uiso   1.00
O865   O     0.57920   0.56571   0.41519   0.00000  Uiso   1.00
C866   C     0.41479   0.46078   0.61244   0.00000  Uiso   1.00
H867   H     0.37567   0.46718   0.61969   0.00000  Uiso   1.00
O868   O     0.42080   0.43429   0.58481   0.00000  Uiso   1.00
C869   C     0.83446   0.42007   0.50047   0.00000  Uiso   1.00
C870   C     0.83221   0.57993   0.49952   0.00000  Uiso   1.00
C871   C     0.73385   0.49970   0.48823   0.00000  Uiso   1.00
C872   C     0.93282   0.50030   0.51177   0.00000  Uiso   1.00
C873   C     0.67895   0.49806   0.48197   0.00000  Uiso   1.00
C874   C     0.98771   0.50194   0.51803   0.00000  Uiso   1.00
C875   C     0.81715   0.35591   0.46037   0.00000  Uiso   1.00
C876   C     0.84951   0.64409   0.53962   0.00000  Uiso   1.00
C877   C     0.81497   0.64673   0.45860   0.00000  Uiso   1.00
C878   C     0.85169   0.35327   0.54139   0.00000  Uiso   1.00
C879   C     0.83151   0.62413   0.49884   0.00000  Uiso   1.00
C880   C     0.83515   0.37587   0.50116   0.00000  Uiso   1.00
C881   C     0.87366   0.51824   0.36107   0.00000  Uiso   1.00
C882   C     0.79301   0.48176   0.63893   0.00000  Uiso   1.00
C883   C     0.87361   0.51762   0.64675   0.00000  Uiso   1.00
C884   C     0.79306   0.48238   0.35325   0.00000  Uiso   1.00
H885   H     0.99224   0.49297   0.44782   0.00000  Uiso   1.00
H886   H     0.67442   0.50703   0.55218   0.00000  Uiso   1.00
H887   H     0.80344   0.37345   0.42977   0.00000  Uiso   1.00
H888   H     0.86322   0.62655   0.57023   0.00000  Uiso   1.00
H889   H     0.90547   0.53201   0.63175   0.00000  Uiso   1.00
H890   H     0.76120   0.46799   0.36825   0.00000  Uiso   1.00
N891   N     0.83332   0.49999   0.61907   0.00000  Uiso   1.00
N892   N     0.83335   0.50001   0.38093   0.00000  Uiso   1.00
O893   O     0.83333   0.43892   0.53821   0.00000  Uiso   1.00
O894   O     0.83334   0.56108   0.46179   0.00000  Uiso   1.00
O895   O     0.83333   0.43893   0.46176   0.00000  Uiso   1.00
O896   O     0.83334   0.56107   0.53824   0.00000  Uiso   1.00
O897   O     0.75725   0.50000   0.52928   0.00000  Uiso   1.00
O898   O     0.90942   0.50000   0.47072   0.00000  Uiso   1.00
O899   O     0.75725   0.50000   0.45284   0.00000  Uiso   1.00
O900   O     0.90942   0.50000   0.54716   0.00000  Uiso   1.00
Zn901  Zn    0.83333   0.49999   0.55104   0.00000  Uiso   1.00
Zn902  Zn    0.83333   0.50001   0.44896   0.00000  Uiso   1.00
C903   C     0.79535   0.62759   0.41430   0.00000  Uiso   1.00
C904   C     0.82633   0.62912   0.37895   0.00000  Uiso   1.00
C905   C     0.80860   0.61051   0.33730   0.00000  Uiso   1.00
C906   C     0.75959   0.59083   0.66377   0.00000  Uiso   1.00
C907   C     0.72830   0.58962   0.36530   0.00000  Uiso   1.00
C908   C     0.74605   0.60782   0.40723   0.00000  Uiso   1.00
H909   H     0.86453   0.64411   0.38395   0.00000  Uiso   1.00
H910   H     0.83299   0.61118   0.64377   0.00000  Uiso   1.00
H911   H     0.74593   0.57643   0.63149   0.00000  Uiso   1.00
H912   H     0.69032   0.57460   0.35971   0.00000  Uiso   1.00
H913   H     0.72162   0.60645   0.43412   0.00000  Uiso   1.00
C914   C     0.87132   0.37241   0.58570   0.00000  Uiso   1.00
C915   C     0.92062   0.39217   0.59276   0.00000  Uiso   1.00
C916   C     0.93838   0.41036   0.63470   0.00000  Uiso   1.00
C917   C     0.90709   0.40917   0.33623   0.00000  Uiso   1.00
C918   C     0.85807   0.38949   0.66270   0.00000  Uiso   1.00
C919   C     0.84034   0.37089   0.62105   0.00000  Uiso   1.00
H920   H     0.94506   0.39353   0.56588   0.00000  Uiso   1.00
H921   H     0.97637   0.42538   0.64029   0.00000  Uiso   1.00
H922   H     0.92076   0.42356   0.36851   0.00000  Uiso   1.00
H923   H     0.83369   0.38883   0.35622   0.00000  Uiso   1.00
H924   H     0.80214   0.35591   0.61605   0.00000  Uiso   1.00
C925   C     0.91854   0.53922   0.38756   0.00000  Uiso   1.00
H926   H     0.95766   0.53283   0.38031   0.00000  Uiso   1.00
O927   O     0.91253   0.56571   0.41519   0.00000  Uiso   1.00
C928   C     0.74812   0.46078   0.61244   0.00000  Uiso   1.00
H929   H     0.70900   0.46718   0.61969   0.00000  Uiso   1.00
O930   O     0.75413   0.43429   0.58481   0.00000  Uiso   1.00
C931   C     0.16779   0.75340   0.50047   0.00000  Uiso   1.00
C932   C     0.16554   0.91326   0.49952   0.00000  Uiso   1.00
C933   C     0.06718   0.83303   0.48823   0.00000  Uiso   1.00
C934   C     0.26615   0.83363   0.51177   0.00000  Uiso   1.00
C935   C     0.01229   0.83140   0.48197   0.00000  Uiso   1.00
C936   C     0.32105   0.83527   0.51803   0.00000  Uiso   1.00
C937   C     0.15049   0.68925   0.46037   0.00000  Uiso   1.00
C938   C     0.18284   0.97742   0.53962   0.00000  Uiso   1.00
C939   C     0.14830   0.98006   0.45860   0.00000  Uiso   1.00
C940   C     0.18503   0.68661   0.54139   0.00000  Uiso   1.00
C941   C     0.16485   0.95747   0.49884   0.00000  Uiso   1.00
C942   C     0.16848   0.70920   0.50116   0.00000  Uiso   1.00
C943   C     0.20700   0.85157   0.36107   0.00000  Uiso   1.00
C944   C     0.12634   0.81510   0.63893   0.00000  Uiso   1.00
C945   C     0.20694   0.85096   0.64675   0.00000  Uiso   1.00
C946   C     0.12639   0.81571   0.35325   0.00000  Uiso   1.00
H947   H     0.32558   0.82631   0.44782   0.00000  Uiso   1.00
H948   H     0.00776   0.84036   0.55218   0.00000  Uiso   1.00
H949   H     0.13678   0.70678   0.42977   0.00000  Uiso   1.00
H950   H     0.19656   0.95988   0.57023   0.00000  Uiso   1.00
H951   H     0.23880   0.86534   0.63175   0.00000  Uiso   1.00
H952   H     0.09453   0.80132   0.36825   0.00000  Uiso   1.00
N953   N     0.16665   0.83332   0.61907   0.00000  Uiso   1.00
N954   N     0.16668   0.83334   0.38093   0.00000  Uiso   1.00
O955   O     0.16666   0.77225   0.53821   0.00000  Uiso   1.00
O956   O     0.16667   0.89442   0.46179   0.00000  Uiso   1.00
O957   O     0.16666   0.77226   0.46176   0.00000  Uiso   1.00
O958   O     0.16667   0.89441   0.53824   0.00000  Uiso   1.00
O959   O     0.09058   0.83333   0.52928   0.00000  Uiso   1.00
O960   O     0.24275   0.83334   0.47072   0.00000  Uiso   1.00
O961   O     0.09058   0.83334   0.45284   0.00000  Uiso   1.00
O962   O     0.24275   0.83333   0.54716   0.00000  Uiso   1.00
Zn963  Zn    0.16667   0.83333   0.55104   0.00000  Uiso   1.00
Zn964  Zn    0.16667   0.83334   0.44896   0.00000  Uiso   1.00
C965   C     0.12868   0.96093   0.41430   0.00000  Uiso   1.00
C966   C     0.15966   0.96245   0.37895   0.00000  Uiso   1.00
C967   C     0.14194   0.94385   0.33730   0.00000  Uiso   1.00
C968   C     0.09293   0.92416   0.66377   0.00000  Uiso   1.00
C969   C     0.06164   0.92296   0.36530   0.00000  Uiso   1.00
C970   C     0.07939   0.94115   0.40723   0.00000  Uiso   1.00
H971   H     0.19786   0.97744   0.38395   0.00000  Uiso   1.00
H972   H     0.16632   0.94452   0.64377   0.00000  Uiso   1.00
H973   H     0.07926   0.90976   0.63149   0.00000  Uiso   1.00
H974   H     0.02365   0.90793   0.35971   0.00000  Uiso   1.00
H975   H     0.05495   0.93978   0.43412   0.00000  Uiso   1.00
C976   C     0.20465   0.70574   0.58570   0.00000  Uiso   1.00
C977   C     0.25395   0.72550   0.59276   0.00000  Uiso   1.00
C978   C     0.27171   0.74370   0.63470   0.00000  Uiso   1.00
C979   C     0.24042   0.74250   0.33623   0.00000  Uiso   1.00
C980   C     0.19141   0.72283   0.66270   0.00000  Uiso   1.00
C981   C     0.17368   0.70422   0.62105   0.00000  Uiso   1.00
H982   H     0.27839   0.72686   0.56588   0.00000  Uiso   1.00
H983   H     0.30970   0.75871   0.64029   0.00000  Uiso   1.00
H984   H     0.25409   0.75690   0.36851   0.00000  Uiso   1.00
H985   H     0.16702   0.72216   0.35622   0.00000  Uiso   1.00
H986   H     0.13547   0.68924   0.61605   0.00000  Uiso   1.00
C987   C     0.25188   0.87255   0.38756   0.00000  Uiso   1.00
H988   H     0.29100   0.86616   0.38031   0.00000  Uiso   1.00
O989   O     0.24587   0.89904   0.41519   0.00000  Uiso   1.00
C990   C     0.08146   0.79411   0.61244   0.00000  Uiso   1.00
H991   H     0.04234   0.80051   0.61969   0.00000  Uiso   1.00
O992   O     0.08746   0.76763   0.58481   0.00000  Uiso   1.00
C993   C     0.50112   0.75340   0.50047   0.00000  Uiso   1.00
C994   C     0.49888   0.91326   0.49952   0.00000  Uiso   1.00
C995   C     0.40052   0.83303   0.48823   0.00000  Uiso   1.00
C996   C     0.59948   0.83363   0.51177   0.00000  Uiso   1.00
C997   C     0.34562   0.83140   0.48197   0.00000  Uiso   1.00
C998   C     0.65438   0.83527   0.51803   0.00000  Uiso   1.00
C999   C     0.48382   0.68925   0.46037   0.00000  Uiso   1.00
C1000  C     0.51618   0.97742   0.53962   0.00000  Uiso   1.00
C1001  C     0.48164   0.98006   0.45860   0.00000  Uiso   1.00
C1002  C     0.51836   0.68661   0.54139   0.00000  Uiso   1.00
C1003  C     0.49818   0.95747   0.49884   0.00000  Uiso   1.00
C1004  C     0.50182   0.70920   0.50116   0.00000  Uiso   1.00
C1005  C     0.54033   0.85157   0.36107   0.00000  Uiso   1.00
C1006  C     0.45967   0.81510   0.63893   0.00000  Uiso   1.00
C1007  C     0.54027   0.85096   0.64675   0.00000  Uiso   1.00
C1008  C     0.45973   0.81571   0.35325   0.00000  Uiso   1.00
H1009  H     0.65891   0.82631   0.44782   0.00000  Uiso   1.00
H1010  H     0.34109   0.84036   0.55218   0.00000  Uiso   1.00
H1011  H     0.47011   0.70678   0.42977   0.00000  Uiso   1.00
H1012  H     0.52989   0.95988   0.57023   0.00000  Uiso   1.00
H1013  H     0.57213   0.86534   0.63175   0.00000  Uiso   1.00
H1014  H     0.42787   0.80132   0.36825   0.00000  Uiso   1.00
N1015  N     0.49999   0.83332   0.61907   0.00000  Uiso   1.00
N1016  N     0.50001   0.83334   0.38093   0.00000  Uiso   1.00
O1017  O     0.50000   0.77225   0.53821   0.00000  Uiso   1.00
O1018  O     0.50000   0.89442   0.46179   0.00000  Uiso   1.00
O1019  O     0.50000   0.77226   0.46176   0.00000  Uiso   1.00
O1020  O     0.50000   0.89441   0.53824   0.00000  Uiso   1.00
O1021  O     0.42392   0.83333   0.52928   0.00000  Uiso   1.00
O1022  O     0.57608   0.83334   0.47072   0.00000  Uiso   1.00
O1023  O     0.42392   0.83334   0.45284   0.00000  Uiso   1.00
O1024  O     0.57608   0.83333   0.54716   0.00000  Uiso   1.00
Zn1025 Zn    0.50000   0.83333   0.55104   0.00000  Uiso   1.00
Zn1026 Zn    0.50000   0.83334   0.44896   0.00000  Uiso   1.00
C1027  C     0.46202   0.96093   0.41430   0.00000  Uiso   1.00
C1028  C     0.49299   0.96245   0.37895   0.00000  Uiso   1.00
C1029  C     0.47527   0.94385   0.33730   0.00000  Uiso   1.00
C1030  C     0.42626   0.92416   0.66377   0.00000  Uiso   1.00
C1031  C     0.39497   0.92296   0.36530   0.00000  Uiso   1.00
C1032  C     0.41272   0.94115   0.40723   0.00000  Uiso   1.00
H1033  H     0.53119   0.97744   0.38395   0.00000  Uiso   1.00
H1034  H     0.49965   0.94452   0.64377   0.00000  Uiso   1.00
H1035  H     0.41260   0.90976   0.63149   0.00000  Uiso   1.00
H1036  H     0.35699   0.90793   0.35971   0.00000  Uiso   1.00
H1037  H     0.38828   0.93978   0.43412   0.00000  Uiso   1.00
C1038  C     0.53799   0.70574   0.58570   0.00000  Uiso   1.00
C1039  C     0.58729   0.72550   0.59276   0.00000  Uiso   1.00
C1040  C     0.60505   0.74370   0.63470   0.00000  Uiso   1.00
C1041  C     0.57376   0.74250   0.33623   0.00000  Uiso   1.00
C1042  C     0.52474   0.72283   0.66270   0.00000  Uiso   1.00
C1043  C     0.50701   0.70422   0.62105   0.00000  Uiso   1.00
H1044  H     0.61173   0.72686   0.56588   0.00000  Uiso   1.00
H1045  H     0.64304   0.75871   0.64029   0.00000  Uiso   1.00
H1046  H     0.58743   0.75690   0.36851   0.00000  Uiso   1.00
H1047  H     0.50036   0.72216   0.35622   0.00000  Uiso   1.00
H1048  H     0.46881   0.68924   0.61605   0.00000  Uiso   1.00
C1049  C     0.58521   0.87255   0.38756   0.00000  Uiso   1.00
H1050  H     0.62433   0.86616   0.38031   0.00000  Uiso   1.00
O1051  O     0.57920   0.89904   0.41519   0.00000  Uiso   1.00
C1052  C     0.41479   0.79411   0.61244   0.00000  Uiso   1.00
H1053  H     0.37567   0.80051   0.61969   0.00000  Uiso   1.00
O1054  O     0.42080   0.76763   0.58481   0.00000  Uiso   1.00
C1055  C     0.83446   0.75340   0.50047   0.00000  Uiso   1.00
C1056  C     0.83221   0.91326   0.49952   0.00000  Uiso   1.00
C1057  C     0.73385   0.83303   0.48823   0.00000  Uiso   1.00
C1058  C     0.93282   0.83363   0.51177   0.00000  Uiso   1.00
C1059  C     0.67895   0.83140   0.48197   0.00000  Uiso   1.00
C1060  C     0.98771   0.83527   0.51803   0.00000  Uiso   1.00
C1061  C     0.81715   0.68925   0.46037   0.00000  Uiso   1.00
C1062  C     0.84951   0.97742   0.53962   0.00000  Uiso   1.00
C1063  C     0.81497   0.98006   0.45860   0.00000  Uiso   1.00
C1064  C     0.85169   0.68661   0.54139   0.00000  Uiso   1.00
C1065  C     0.83151   0.95747   0.49884   0.00000  Uiso   1.00
C1066  C     0.83515   0.70920   0.50116   0.00000  Uiso   1.00
C1067  C     0.87366   0.85157   0.36107   0.00000  Uiso   1.00
C1068  C     0.79301   0.81510   0.63893   0.00000  Uiso   1.00
C1069  C     0.87361   0.85096   0.64675   0.00000  Uiso   1.00
C1070  C     0.79306   0.81571   0.35325   0.00000  Uiso   1.00
H1071  H     0.99224   0.82631   0.44782   0.00000  Uiso   1.00
H1072  H     0.67442   0.84036   0.55218   0.00000  Uiso   1.00
H1073  H     0.80344   0.70678   0.42977   0.00000  Uiso   1.00
H1074  H     0.86322   0.95988   0.57023   0.00000  Uiso   1.00
H1075  H     0.90547   0.86534   0.63175   0.00000  Uiso   1.00
H1076  H     0.76120   0.80132   0.36825   0.00000  Uiso   1.00
N1077  N     0.83332   0.83332   0.61907   0.00000  Uiso   1.00
N1078  N     0.83335   0.83334   0.38093   0.00000  Uiso   1.00
O1079  O     0.83333   0.77225   0.53821   0.00000  Uiso   1.00
O1080  O     0.83334   0.89442   0.46179   0.00000  Uiso   1.00
O1081  O     0.83333   0.77226   0.46176   0.00000  Uiso   1.00
O1082  O     0.83334   0.89441   0.53824   0.00000  Uiso   1.00
O1083  O     0.75725   0.83333   0.52928   0.00000  Uiso   1.00
O1084  O     0.90942   0.83334   0.47072   0.00000  Uiso   1.00
O1085  O     0.75725   0.83334   0.45284   0.00000  Uiso   1.00
O1086  O     0.90942   0.83333   0.54716   0.00000  Uiso   1.00
Zn1087 Zn    0.83333   0.83333   0.55104   0.00000  Uiso   1.00
Zn1088 Zn    0.83333   0.83334   0.44896   0.00000  Uiso   1.00
C1089  C     0.79535   0.96093   0.41430   0.00000  Uiso   1.00
C1090  C     0.82633   0.96245   0.37895   0.00000  Uiso   1.00
C1091  C     0.80860   0.94385   0.33730   0.00000  Uiso   1.00
C1092  C     0.75959   0.92416   0.66377   0.00000  Uiso   1.00
C1093  C     0.72830   0.92296   0.36530   0.00000  Uiso   1.00
C1094  C     0.74605   0.94115   0.40723   0.00000  Uiso   1.00
H1095  H     0.86453   0.97744   0.38395   0.00000  Uiso   1.00
H1096  H     0.83299   0.94452   0.64377   0.00000  Uiso   1.00
H1097  H     0.74593   0.90976   0.63149   0.00000  Uiso   1.00
H1098  H     0.69032   0.90793   0.35971   0.00000  Uiso   1.00
H1099  H     0.72162   0.93978   0.43412   0.00000  Uiso   1.00
C1100  C     0.87132   0.70574   0.58570   0.00000  Uiso   1.00
C1101  C     0.92062   0.72550   0.59276   0.00000  Uiso   1.00
C1102  C     0.93838   0.74370   0.63470   0.00000  Uiso   1.00
C1103  C     0.90709   0.74250   0.33623   0.00000  Uiso   1.00
C1104  C     0.85807   0.72283   0.66270   0.00000  Uiso   1.00
C1105  C     0.84034   0.70422   0.62105   0.00000  Uiso   1.00
H1106  H     0.94506   0.72686   0.56588   0.00000  Uiso   1.00
H1107  H     0.97637   0.75871   0.64029   0.00000  Uiso   1.00
H1108  H     0.92076   0.75690   0.36851   0.00000  Uiso   1.00
H1109  H     0.83369   0.72216   0.35622   0.00000  Uiso   1.00
H1110  H     0.80214   0.68924   0.61605   0.00000  Uiso   1.00
C1111  C     0.91854   0.87255   0.38756   0.00000  Uiso   1.00
H1112  H     0.95766   0.86616   0.38031   0.00000  Uiso   1.00
O1113  O     0.91253   0.89904   0.41519   0.00000  Uiso   1.00
C1114  C     0.74812   0.79411   0.61244   0.00000  Uiso   1.00
H1115  H     0.70900   0.80051   0.61969   0.00000  Uiso   1.00
O1116  O     0.75413   0.76763   0.58481   0.00000  Uiso   1.00
C1117  C     0.16779   0.08674   0.83381   0.00000  Uiso   1.00
C1118  C     0.16554   0.24660   0.83286   0.00000  Uiso   1.00
C1119  C     0.06718   0.16637   0.82156   0.00000  Uiso   1.00
C1120  C     0.26615   0.16697   0.84511   0.00000  Uiso   1.00
C1121  C     0.01229   0.16473   0.81530   0.00000  Uiso   1.00
C1122  C     0.32105   0.16860   0.85136   0.00000  Uiso   1.00
C1123  C     0.15049   0.02258   0.79371   0.00000  Uiso   1.00
C1124  C     0.18284   0.31075   0.87296   0.00000  Uiso   1.00
C1125  C     0.14830   0.31339   0.79194   0.00000  Uiso   1.00
C1126  C     0.18503   0.01994   0.87473   0.00000  Uiso   1.00
C1127  C     0.16485   0.29080   0.83218   0.00000  Uiso   1.00
C1128  C     0.16848   0.04253   0.83449   0.00000  Uiso   1.00
C1129  C     0.20700   0.18490   0.69440   0.00000  Uiso   1.00
C1130  C     0.12634   0.14843   0.97226   0.00000  Uiso   1.00
C1131  C     0.20694   0.18429   0.98008   0.00000  Uiso   1.00
C1132  C     0.12639   0.14904   0.68658   0.00000  Uiso   1.00
H1133  H     0.32558   0.15964   0.78116   0.00000  Uiso   1.00
H1134  H     0.00776   0.17370   0.88551   0.00000  Uiso   1.00
H1135  H     0.13678   0.04012   0.76310   0.00000  Uiso   1.00
H1136  H     0.19656   0.29322   0.90356   0.00000  Uiso   1.00
H1137  H     0.23880   0.19868   0.96508   0.00000  Uiso   1.00
H1138  H     0.09453   0.13466   0.70158   0.00000  Uiso   1.00
N1139  N     0.16665   0.16666   0.95240   0.00000  Uiso   1.00
N1140  N     0.16668   0.16668   0.71427   0.00000  Uiso   1.00
O1141  O     0.16666   0.10558   0.87154   0.00000  Uiso   1.00
O1142  O     0.16667   0.22775   0.79513   0.00000  Uiso   1.00
O1143  O     0.16666   0.10559   0.79510   0.00000  Uiso   1.00
O1144  O     0.16667   0.22774   0.87157   0.00000  Uiso   1.00
O1145  O     0.09058   0.16666   0.86261   0.00000  Uiso   1.00
O1146  O     0.24275   0.16667   0.80405   0.00000  Uiso   1.00
O1147  O     0.09058   0.16667   0.78617   0.00000  Uiso   1.00
O1148  O     0.24275   0.16666   0.88050   0.00000  Uiso   1.00
Zn1149 Zn    0.16667   0.16666   0.88437   0.00000  Uiso   1.00
Zn1150 Zn    0.16667   0.16667   0.78229   0.00000  Uiso   1.00
C1151  C     0.12868   0.29426   0.74763   0.00000  Uiso   1.00
C1152  C     0.15966   0.29578   0.71228   0.00000  Uiso   1.00
C1153  C     0.14194   0.27718   0.67063   0.00000  Uiso   1.00
C1154  C     0.09293   0.25750   0.99710   0.00000  Uiso   1.00
C1155  C     0.06164   0.25629   0.69863   0.00000  Uiso   1.00
C1156  C     0.07939   0.27449   0.74057   0.00000  Uiso   1.00
H1157  H     0.19786   0.31078   0.71728   0.00000  Uiso   1.00
H1158  H     0.16632   0.27785   0.97711   0.00000  Uiso   1.00
H1159  H     0.07926   0.24310   0.96482   0.00000  Uiso   1.00
H1160  H     0.02365   0.24127   0.69304   0.00000  Uiso   1.00
H1161  H     0.05495   0.27312   0.76745   0.00000  Uiso   1.00
C1162  C     0.20465   0.03907   0.91903   0.00000  Uiso   1.00
C1163  C     0.25395   0.05884   0.92610   0.00000  Uiso   1.00
C1164  C     0.27171   0.07703   0.96803   0.00000  Uiso   1.00
C1165  C     0.24042   0.07583   0.66956   0.00000  Uiso   1.00
C1166  C     0.19141   0.05616   0.99603   0.00000  Uiso   1.00
C1167  C     0.17368   0.03756   0.95439   0.00000  Uiso   1.00
H1168  H     0.27839   0.06020   0.89921   0.00000  Uiso   1.00
H1169  H     0.30970   0.09204   0.97362   0.00000  Uiso   1.00
H1170  H     0.25409   0.09023   0.70184   0.00000  Uiso   1.00
H1171  H     0.16702   0.05550   0.68956   0.00000  Uiso   1.00
H1172  H     0.13547   0.02257   0.94938   0.00000  Uiso   1.00
C1173  C     0.25188   0.20589   0.72090   0.00000  Uiso   1.00
H1174  H     0.29100   0.19949   0.71365   0.00000  Uiso   1.00
O1175  O     0.24587   0.23237   0.74852   0.00000  Uiso   1.00
C1176  C     0.08146   0.12745   0.94577   0.00000  Uiso   1.00
H1177  H     0.04234   0.13384   0.95302   0.00000  Uiso   1.00
O1178  O     0.08746   0.10096   0.91814   0.00000  Uiso   1.00
C1179  C     0.50112   0.08674   0.83381   0.00000  Uiso   1.00
C1180  C     0.49888   0.24660   0.83286   0.00000  Uiso   1.00
C1181  C     0.40052   0.16637   0.82156   0.00000  Uiso   1.00
C1182  C     0.59948   0.16697   0.84511   0.00000  Uiso   1.00
C1183  C     0.34562   0.16473   0.81530   0.00000  Uiso   1.00
C1184  C     0.65438   0.16860   0.85136   0.00000  Uiso   1.00
C1185  C     0.48382   0.02258   0.79371   0.00000  Uiso   1.00
C1186  C     0.51618   0.31075   0.87296   0.00000  Uiso   1.00
C1187  C     0.48164   0.31339   0.79194   0.00000  Uiso   1.00
C1188  C     0.51836   0.01994   0.87473   0.00000  Uiso   1.00
C1189  C     0.49818   0.29080   0.83218   0.00000  Uiso   1.00
C1190  C     0.50182   0.04253   0.83449   0.00000  Uiso   1.00
C1191  C     0.54033   0.18490   0.69440   0.00000  Uiso   1.00
C1192  C     0.45967   0.14843   0.97226   0.00000  Uiso   1.00
C1193  C     0.54027   0.18429   0.98008   0.00000  Uiso   1.00
C1194  C     0.45973   0.14904   0.68658   0.00000  Uiso   1.00
H1195  H     0.65891   0.15964   0.78116   0.00000  Uiso   1.00
H1196  H     0.34109   0.17370   0.88551   0.00000  Uiso   1.00
H1197  H     0.47011   0.04012   0.76310   0.00000  Uiso   1.00
H1198  H     0.52989   0.29322   0.90356   0.00000  Uiso   1.00
H1199  H     0.57213   0.19868   0.96508   0.00000  Uiso   1.00
H1200  H     0.42787   0.13466   0.70158   0.00000  Uiso   1.00
N1201  N     0.49999   0.16666   0.95240   0.00000  Uiso   1.00
N1202  N     0.50001   0.16668   0.71427   0.00000  Uiso   1.00
O1203  O     0.50000   0.10558   0.87154   0.00000  Uiso   1.00
O1204  O     0.50000   0.22775   0.79513   0.00000  Uiso   1.00
O1205  O     0.50000   0.10559   0.79510   0.00000  Uiso   1.00
O1206  O     0.50000   0.22774   0.87157   0.00000  Uiso   1.00
O1207  O     0.42392   0.16666   0.86261   0.00000  Uiso   1.00
O1208  O     0.57608   0.16667   0.80405   0.00000  Uiso   1.00
O1209  O     0.42392   0.16667   0.78617   0.00000  Uiso   1.00
O1210  O     0.57608   0.16666   0.88050   0.00000  Uiso   1.00
Zn1211 Zn    0.50000   0.16666   0.88437   0.00000  Uiso   1.00
Zn1212 Zn    0.50000   0.16667   0.78229   0.00000  Uiso   1.00
C1213  C     0.46202   0.29426   0.74763   0.00000  Uiso   1.00
C1214  C     0.49299   0.29578   0.71228   0.00000  Uiso   1.00
C1215  C     0.47527   0.27718   0.67063   0.00000  Uiso   1.00
C1216  C     0.42626   0.25750   0.99710   0.00000  Uiso   1.00
C1217  C     0.39497   0.25629   0.69863   0.00000  Uiso   1.00
C1218  C     0.41272   0.27449   0.74057   0.00000  Uiso   1.00
H1219  H     0.53119   0.31078   0.71728   0.00000  Uiso   1.00
H1220  H     0.49965   0.27785   0.97711   0.00000  Uiso   1.00
H1221  H     0.41260   0.24310   0.96482   0.00000  Uiso   1.00
H1222  H     0.35699   0.24127   0.69304   0.00000  Uiso   1.00
H1223  H     0.38828   0.27312   0.76745   0.00000  Uiso   1.00
C1224  C     0.53799   0.03907   0.91903   0.00000  Uiso   1.00
C1225  C     0.58729   0.05884   0.92610   0.00000  Uiso   1.00
C1226  C     0.60505   0.07703   0.96803   0.00000  Uiso   1.00
C1227  C     0.57376   0.07583   0.66956   0.00000  Uiso   1.00
C1228  C     0.52474   0.05616   0.99603   0.00000  Uiso   1.00
C1229  C     0.50701   0.03756   0.95439   0.00000  Uiso   1.00
H1230  H     0.61173   0.06020   0.89921   0.00000  Uiso   1.00
H1231  H     0.64304   0.09204   0.97362   0.00000  Uiso   1.00
H1232  H     0.58743   0.09023   0.70184   0.00000  Uiso   1.00
H1233  H     0.50036   0.05550   0.68956   0.00000  Uiso   1.00
H1234  H     0.46881   0.02257   0.94938   0.00000  Uiso   1.00
C1235  C     0.58521   0.20589   0.72090   0.00000  Uiso   1.00
H1236  H     0.62433   0.19949   0.71365   0.00000  Uiso   1.00
O1237  O     0.57920   0.23237   0.74852   0.00000  Uiso   1.00
C1238  C     0.41479   0.12745   0.94577   0.00000  Uiso   1.00
H1239  H     0.37567   0.13384   0.95302   0.00000  Uiso   1.00
O1240  O     0.42080   0.10096   0.91814   0.00000  Uiso   1.00
C1241  C     0.83446   0.08674   0.83381   0.00000  Uiso   1.00
C1242  C     0.83221   0.24660   0.83286   0.00000  Uiso   1.00
C1243  C     0.73385   0.16637   0.82156   0.00000  Uiso   1.00
C1244  C     0.93282   0.16697   0.84511   0.00000  Uiso   1.00
C1245  C     0.67895   0.16473   0.81530   0.00000  Uiso   1.00
C1246  C     0.98771   0.16860   0.85136   0.00000  Uiso   1.00
C1247  C     0.81715   0.02258   0.79371   0.00000  Uiso   1.00
C1248  C     0.84951   0.31075   0.87296   0.00000  Uiso   1.00
C1249  C     0.81497   0.31339   0.79194   0.00000  Uiso   1.00
C1250  C     0.85169   0.01994   0.87473   0.00000  Uiso   1.00
C1251  C     0.83151   0.29080   0.83218   0.00000  Uiso   1.00
C1252  C     0.83515   0.04253   0.83449   0.00000  Uiso   1.00
C1253  C     0.87366   0.18490   0.69440   0.00000  Uiso   1.00
C1254  C     0.79301   0.14843   0.97226   0.00000  Uiso   1.00
C1255  C     0.87361   0.18429   0.98008   0.00000  Uiso   1.00
C1256  C     0.79306   0.14904   0.68658   0.00000  Uiso   1.00
H1257  H     0.99224   0.15964   0.78116   0.00000  Uiso   1.00
H1258  H     0.67442   0.17370   0.88551   0.00000  Uiso   1.00
H1259  H     0.80344   0.04012   0.76310   0.00000  Uiso   1.00
H1260  H     0.86322   0.29322   0.90356   0.00000  Uiso   1.00
H1261  H     0.90547   0.19868   0.96508   0.00000  Uiso   1.00
H1262  H     0.76120   0.13466   0.70158   0.00000  Uiso   1.00
N1263  N     0.83332   0.16666   0.95240   0.00000  Uiso   1.00
N1264  N     0.83335   0.16668   0.71427   0.00000  Uiso   1.00
O1265  O     0.83333   0.10558   0.87154   0.00000  Uiso   1.00
O1266  O     0.83334   0.22775   0.79513   0.00000  Uiso   1.00
O1267  O     0.83333   0.10559   0.79510   0.00000  Uiso   1.00
O1268  O     0.83334   0.22774   0.87157   0.00000  Uiso   1.00
O1269  O     0.75725   0.16666   0.86261   0.00000  Uiso   1.00
O1270  O     0.90942   0.16667   0.80405   0.00000  Uiso   1.00
O1271  O     0.75725   0.16667   0.78617   0.00000  Uiso   1.00
O1272  O     0.90942   0.16666   0.88050   0.00000  Uiso   1.00
Zn1273 Zn    0.83333   0.16666   0.88437   0.00000  Uiso   1.00
Zn1274 Zn    0.83333   0.16667   0.78229   0.00000  Uiso   1.00
C1275  C     0.79535   0.29426   0.74763   0.00000  Uiso   1.00
C1276  C     0.82633   0.29578   0.71228   0.00000  Uiso   1.00
C1277  C     0.80860   0.27718   0.67063   0.00000  Uiso   1.00
C1278  C     0.75959   0.25750   0.99710   0.00000  Uiso   1.00
C1279  C     0.72830   0.25629   0.69863   0.00000  Uiso   1.00
C1280  C     0.74605   0.27449   0.74057   0.00000  Uiso   1.00
H1281  H     0.86453   0.31078   0.71728   0.00000  Uiso   1.00
H1282  H     0.83299   0.27785   0.97711   0.00000  Uiso   1.00
H1283  H     0.74593   0.24310   0.96482   0.00000  Uiso   1.00
H1284  H     0.69032   0.24127   0.69304   0.00000  Uiso   1.00
H1285  H     0.72162   0.27312   0.76745   0.00000  Uiso   1.00
C1286  C     0.87132   0.03907   0.91903   0.00000  Uiso   1.00
C1287  C     0.92062   0.05884   0.92610   0.00000  Uiso   1.00
C1288  C     0.93838   0.07703   0.96803   0.00000  Uiso   1.00
C1289  C     0.90709   0.07583   0.66956   0.00000  Uiso   1.00
C1290  C     0.85807   0.05616   0.99603   0.00000  Uiso   1.00
C1291  C     0.84034   0.03756   0.95439   0.00000  Uiso   1.00
H1292  H     0.94506   0.06020   0.89921   0.00000  Uiso   1.00
H1293  H     0.97637   0.09204   0.97362   0.00000  Uiso   1.00
H1294  H     0.92076   0.09023   0.70184   0.00000  Uiso   1.00
H1295  H     0.83369   0.05550   0.68956   0.00000  Uiso   1.00
H1296  H     0.80214   0.02257   0.94938   0.00000  Uiso   1.00
C1297  C     0.91854   0.20589   0.72090   0.00000  Uiso   1.00
H1298  H     0.95766   0.19949   0.71365   0.00000  Uiso   1.00
O1299  O     0.91253   0.23237   0.74852   0.00000  Uiso   1.00
C1300  C     0.74812   0.12745   0.94577   0.00000  Uiso   1.00
H1301  H     0.70900   0.13384   0.95302   0.00000  Uiso   1.00
O1302  O     0.75413   0.10096   0.91814   0.00000  Uiso   1.00
C1303  C     0.16779   0.42007   0.83381   0.00000  Uiso   1.00
C1304  C     0.16554   0.57993   0.83286   0.00000  Uiso   1.00
C1305  C     0.06718   0.49970   0.82156   0.00000  Uiso   1.00
C1306  C     0.26615   0.50030   0.84511   0.00000  Uiso   1.00
C1307  C     0.01229   0.49806   0.81530   0.00000  Uiso   1.00
C1308  C     0.32105   0.50194   0.85136   0.00000  Uiso   1.00
C1309  C     0.15049   0.35591   0.79371   0.00000  Uiso   1.00
C1310  C     0.18284   0.64409   0.87296   0.00000  Uiso   1.00
C1311  C     0.14830   0.64673   0.79194   0.00000  Uiso   1.00
C1312  C     0.18503   0.35327   0.87473   0.00000  Uiso   1.00
C1313  C     0.16485   0.62413   0.83218   0.00000  Uiso   1.00
C1314  C     0.16848   0.37587   0.83449   0.00000  Uiso   1.00
C1315  C     0.20700   0.51824   0.69440   0.00000  Uiso   1.00
C1316  C     0.12634   0.48176   0.97226   0.00000  Uiso   1.00
C1317  C     0.20694   0.51762   0.98008   0.00000  Uiso   1.00
C1318  C     0.12639   0.48238   0.68658   0.00000  Uiso   1.00
H1319  H     0.32558   0.49297   0.78116   0.00000  Uiso   1.00
H1320  H     0.00776   0.50703   0.88551   0.00000  Uiso   1.00
H1321  H     0.13678   0.37345   0.76310   0.00000  Uiso   1.00
H1322  H     0.19656   0.62655   0.90356   0.00000  Uiso   1.00
H1323  H     0.23880   0.53201   0.96508   0.00000  Uiso   1.00
H1324  H     0.09453   0.46799   0.70158   0.00000  Uiso   1.00
N1325  N     0.16665   0.49999   0.95240   0.00000  Uiso   1.00
N1326  N     0.16668   0.50001   0.71427   0.00000  Uiso   1.00
O1327  O     0.16666   0.43892   0.87154   0.00000  Uiso   1.00
O1328  O     0.16667   0.56108   0.79513   0.00000  Uiso   1.00
O1329  O     0.16666   0.43893   0.79510   0.00000  Uiso   1.00
O1330  O     0.16667   0.56107   0.87157   0.00000  Uiso   1.00
O1331  O     0.09058   0.50000   0.86261   0.00000  Uiso   1.00
O1332  O     0.24275   0.50000   0.80405   0.00000  Uiso   1.00
O1333  O     0.09058   0.50000   0.78617   0.00000  Uiso   1.00
O1334  O     0.24275   0.50000   0.88050   0.00000  Uiso   1.00
Zn1335 Zn    0.16667   0.49999   0.88437   0.00000  Uiso   1.00
Zn1336 Zn    0.16667   0.50001   0.78229   0.00000  Uiso   1.00
C1337  C     0.12868   0.62759   0.74763   0.00000  Uiso   1.00
C1338  C     0.15966   0.62912   0.71228   0.00000  Uiso   1.00
C1339  C     0.14194   0.61051   0.67063   0.00000  Uiso   1.00
C1340  C     0.09293   0.59083   0.99710   0.00000  Uiso   1.00
C1341  C     0.06164   0.58962   0.69863   0.00000  Uiso   1.00
C1342  C     0.07939   0.60782   0.74057   0.00000  Uiso   1.00
H1343  H     0.19786   0.64411   0.71728   0.00000  Uiso   1.00
H1344  H     0.16632   0.61118   0.97711   0.00000  Uiso   1.00
H1345  H     0.07926   0.57643   0.96482   0.00000  Uiso   1.00
H1346  H     0.02365   0.57460   0.69304   0.00000  Uiso   1.00
H1347  H     0.05495   0.60645   0.76745   0.00000  Uiso   1.00
C1348  C     0.20465   0.37241   0.91903   0.00000  Uiso   1.00
C1349  C     0.25395   0.39217   0.92610   0.00000  Uiso   1.00
C1350  C     0.27171   0.41036   0.96803   0.00000  Uiso   1.00
C1351  C     0.24042   0.40917   0.66956   0.00000  Uiso   1.00
C1352  C     0.19141   0.38949   0.99603   0.00000  Uiso   1.00
C1353  C     0.17368   0.37089   0.95439   0.00000  Uiso   1.00
H1354  H     0.27839   0.39353   0.89921   0.00000  Uiso   1.00
H1355  H     0.30970   0.42538   0.97362   0.00000  Uiso   1.00
H1356  H     0.25409   0.42356   0.70184   0.00000  Uiso   1.00
H1357  H     0.16702   0.38883   0.68956   0.00000  Uiso   1.00
H1358  H     0.13547   0.35591   0.94938   0.00000  Uiso   1.00
C1359  C     0.25188   0.53922   0.72090   0.00000  Uiso   1.00
H1360  H     0.29100   0.53283   0.71365   0.00000  Uiso   1.00
O1361  O     0.24587   0.56571   0.74852   0.00000  Uiso   1.00
C1362  C     0.08146   0.46078   0.94577   0.00000  Uiso   1.00
H1363  H     0.04234   0.46718   0.95302   0.00000  Uiso   1.00
O1364  O     0.08746   0.43429   0.91814   0.00000  Uiso   1.00
C1365  C     0.50112   0.42007   0.83381   0.00000  Uiso   1.00
C1366  C     0.49888   0.57993   0.83286   0.00000  Uiso   1.00
C1367  C     0.40052   0.49970   0.82156   0.00000  Uiso   1.00
C1368  C     0.59948   0.50030   0.84511   0.00000  Uiso   1.00
C1369  C     0.34562   0.49806   0.81530   0.00000  Uiso   1.00
C1370  C     0.65438   0.50194   0.85136   0.00000  Uiso   1.00
C1371  C     0.48382   0.35591   0.79371   0.00000  Uiso   1.00
C1372  C     0.51618   0.64409   0.87296   0.00000  Uiso   1.00
C1373  C     0.48164   0.64673   0.79194   0.00000  Uiso   1.00
C1374  C     0.51836   0.35327   0.87473   0.00000  Uiso   1.00
C1375  C     0.49818   0.62413   0.83218   0.00000  Uiso   1.00
C1376  C     0.50182   0.37587   0.83449   0.00000  Uiso   1.00
C1377  C     0.54033   0.51824   0.69440   0.00000  Uiso   1.00
C1378  C     0.45967   0.48176   0.97226   0.00000  Uiso   1.00
C1379  C     0.54027   0.51762   0.98008   0.00000  Uiso   1.00
C1380  C     0.45973   0.48238   0.68658   0.00000  Uiso   1.00
H1381  H     0.65891   0.49297   0.78116   0.00000  Uiso   1.00
H1382  H     0.34109   0.50703   0.88551   0.00000  Uiso   1.00
H1383  H     0.47011   0.37345   0.76310   0.00000  Uiso   1.00
H1384  H     0.52989   0.62655   0.90356   0.00000  Uiso   1.00
H1385  H     0.57213   0.53201   0.96508   0.00000  Uiso   1.00
H1386  H     0.42787   0.46799   0.70158   0.00000  Uiso   1.00
N1387  N     0.49999   0.49999   0.95240   0.00000  Uiso   1.00
N1388  N     0.50001   0.50001   0.71427   0.00000  Uiso   1.00
O1389  O     0.50000   0.43892   0.87154   0.00000  Uiso   1.00
O1390  O     0.50000   0.56108   0.79513   0.00000  Uiso   1.00
O1391  O     0.50000   0.43893   0.79510   0.00000  Uiso   1.00
O1392  O     0.50000   0.56107   0.87157   0.00000  Uiso   1.00
O1393  O     0.42392   0.50000   0.86261   0.00000  Uiso   1.00
O1394  O     0.57608   0.50000   0.80405   0.00000  Uiso   1.00
O1395  O     0.42392   0.50000   0.78617   0.00000  Uiso   1.00
O1396  O     0.57608   0.50000   0.88050   0.00000  Uiso   1.00
Zn1397 Zn    0.50000   0.49999   0.88437   0.00000  Uiso   1.00
Zn1398 Zn    0.50000   0.50001   0.78229   0.00000  Uiso   1.00
C1399  C     0.46202   0.62759   0.74763   0.00000  Uiso   1.00
C1400  C     0.49299   0.62912   0.71228   0.00000  Uiso   1.00
C1401  C     0.47527   0.61051   0.67063   0.00000  Uiso   1.00
C1402  C     0.42626   0.59083   0.99710   0.00000  Uiso   1.00
C1403  C     0.39497   0.58962   0.69863   0.00000  Uiso   1.00
C1404  C     0.41272   0.60782   0.74057   0.00000  Uiso   1.00
H1405  H     0.53119   0.64411   0.71728   0.00000  Uiso   1.00
H1406  H     0.49965   0.61118   0.97711   0.00000  Uiso   1.00
H1407  H     0.41260   0.57643   0.96482   0.00000  Uiso   1.00
H1408  H     0.35699   0.57460   0.69304   0.00000  Uiso   1.00
H1409  H     0.38828   0.60645   0.76745   0.00000  Uiso   1.00
C1410  C     0.53799   0.37241   0.91903   0.00000  Uiso   1.00
C1411  C     0.58729   0.39217   0.92610   0.00000  Uiso   1.00
C1412  C     0.60505   0.41036   0.96803   0.00000  Uiso   1.00
C1413  C     0.57376   0.40917   0.66956   0.00000  Uiso   1.00
C1414  C     0.52474   0.38949   0.99603   0.00000  Uiso   1.00
C1415  C     0.50701   0.37089   0.95439   0.00000  Uiso   1.00
H1416  H     0.61173   0.39353   0.89921   0.00000  Uiso   1.00
H1417  H     0.64304   0.42538   0.97362   0.00000  Uiso   1.00
H1418  H     0.58743   0.42356   0.70184   0.00000  Uiso   1.00
H1419  H     0.50036   0.38883   0.68956   0.00000  Uiso   1.00
H1420  H     0.46881   0.35591   0.94938   0.00000  Uiso   1.00
C1421  C     0.58521   0.53922   0.72090   0.00000  Uiso   1.00
H1422  H     0.62433   0.53283   0.71365   0.00000  Uiso   1.00
O1423  O     0.57920   0.56571   0.74852   0.00000  Uiso   1.00
C1424  C     0.41479   0.46078   0.94577   0.00000  Uiso   1.00
H1425  H     0.37567   0.46718   0.95302   0.00000  Uiso   1.00
O1426  O     0.42080   0.43429   0.91814   0.00000  Uiso   1.00
C1427  C     0.83446   0.42007   0.83381   0.00000  Uiso   1.00
C1428  C     0.83221   0.57993   0.83286   0.00000  Uiso   1.00
C1429  C     0.73385   0.49970   0.82156   0.00000  Uiso   1.00
C1430  C     0.93282   0.50030   0.84511   0.00000  Uiso   1.00
C1431  C     0.67895   0.49806   0.81530   0.00000  Uiso   1.00
C1432  C     0.98771   0.50194   0.85136   0.00000  Uiso   1.00
C1433  C     0.81715   0.35591   0.79371   0.00000  Uiso   1.00
C1434  C     0.84951   0.64409   0.87296   0.00000  Uiso   1.00
C1435  C     0.81497   0.64673   0.79194   0.00000  Uiso   1.00
C1436  C     0.85169   0.35327   0.87473   0.00000  Uiso   1.00
C1437  C     0.83151   0.62413   0.83218   0.00000  Uiso   1.00
C1438  C     0.83515   0.37587   0.83449   0.00000  Uiso   1.00
C1439  C     0.87366   0.51824   0.69440   0.00000  Uiso   1.00
C1440  C     0.79301   0.48176   0.97226   0.00000  Uiso   1.00
C1441  C     0.87361   0.51762   0.98008   0.00000  Uiso   1.00
C1442  C     0.79306   0.48238   0.68658   0.00000  Uiso   1.00
H1443  H     0.99224   0.49297   0.78116   0.00000  Uiso   1.00
H1444  H     0.67442   0.50703   0.88551   0.00000  Uiso   1.00
H1445  H     0.80344   0.37345   0.76310   0.00000  Uiso   1.00
H1446  H     0.86322   0.62655   0.90356   0.00000  Uiso   1.00
H1447  H     0.90547   0.53201   0.96508   0.00000  Uiso   1.00
H1448  H     0.76120   0.46799   0.70158   0.00000  Uiso   1.00
N1449  N     0.83332   0.49999   0.95240   0.00000  Uiso   1.00
N1450  N     0.83335   0.50001   0.71427   0.00000  Uiso   1.00
O1451  O     0.83333   0.43892   0.87154   0.00000  Uiso   1.00
O1452  O     0.83334   0.56108   0.79513   0.00000  Uiso   1.00
O1453  O     0.83333   0.43893   0.79510   0.00000  Uiso   1.00
O1454  O     0.83334   0.56107   0.87157   0.00000  Uiso   1.00
O1455  O     0.75725   0.50000   0.86261   0.00000  Uiso   1.00
O1456  O     0.90942   0.50000   0.80405   0.00000  Uiso   1.00
O1457  O     0.75725   0.50000   0.78617   0.00000  Uiso   1.00
O1458  O     0.90942   0.50000   0.88050   0.00000  Uiso   1.00
Zn1459 Zn    0.83333   0.49999   0.88437   0.00000  Uiso   1.00
Zn1460 Zn    0.83333   0.50001   0.78229   0.00000  Uiso   1.00
C1461  C     0.79535   0.62759   0.74763   0.00000  Uiso   1.00
C1462  C     0.82633   0.62912   0.71228   0.00000  Uiso   1.00
C1463  C     0.80860   0.61051   0.67063   0.00000  Uiso   1.00
C1464  C     0.75959   0.59083   0.99710   0.00000  Uiso   1.00
C1465  C     0.72830   0.58962   0.69863   0.00000  Uiso   1.00
C1466  C     0.74605   0.60782   0.74057   0.00000  Uiso   1.00
H1467  H     0.86453   0.64411   0.71728   0.00000  Uiso   1.00
H1468  H     0.83299   0.61118   0.97711   0.00000  Uiso   1.00
H1469  H     0.74593   0.57643   0.96482   0.00000  Uiso   1.00
H1470  H     0.69032   0.57460   0.69304   0.00000  Uiso   1.00
H1471  H     0.72162   0.60645   0.76745   0.00000  Uiso   1.00
C1472  C     0.87132   0.37241   0.91903   0.00000  Uiso   1.00
C1473  C     0.92062   0.39217   0.92610   0.00000  Uiso   1.00
C1474  C     0.93838   0.41036   0.96803   0.00000  Uiso   1.00
C1475  C     0.90709   0.40917   0.66956   0.00000  Uiso   1.00
C1476  C     0.85807   0.38949   0.99603   0.00000  Uiso   1.00
C1477  C     0.84034   0.37089   0.95439   0.00000  Uiso   1.00
H1478  H     0.94506   0.39353   0.89921   0.00000  Uiso   1.00
H1479  H     0.97637   0.42538   0.97362   0.00000  Uiso   1.00
H1480  H     0.92076   0.42356   0.70184   0.00000  Uiso   1.00
H1481  H     0.83369   0.38883   0.68956   0.00000  Uiso   1.00
H1482  H     0.80214   0.35591   0.94938   0.00000  Uiso   1.00
C1483  C     0.91854   0.53922   0.72090   0.00000  Uiso   1.00
H1484  H     0.95766   0.53283   0.71365   0.00000  Uiso   1.00
O1485  O     0.91253   0.56571   0.74852   0.00000  Uiso   1.00
C1486  C     0.74812   0.46078   0.94577   0.00000  Uiso   1.00
H1487  H     0.70900   0.46718   0.95302   0.00000  Uiso   1.00
O1488  O     0.75413   0.43429   0.91814   0.00000  Uiso   1.00
C1489  C     0.16779   0.75340   0.83381   0.00000  Uiso   1.00
C1490  C     0.16554   0.91326   0.83286   0.00000  Uiso   1.00
C1491  C     0.06718   0.83303   0.82156   0.00000  Uiso   1.00
C1492  C     0.26615   0.83363   0.84511   0.00000  Uiso   1.00
C1493  C     0.01229   0.83140   0.81530   0.00000  Uiso   1.00
C1494  C     0.32105   0.83527   0.85136   0.00000  Uiso   1.00
C1495  C     0.15049   0.68925   0.79371   0.00000  Uiso   1.00
C1496  C     0.18284   0.97742   0.87296   0.00000  Uiso   1.00
C1497  C     0.14830   0.98006   0.79194   0.00000  Uiso   1.00
C1498  C     0.18503   0.68661   0.87473   0.00000  Uiso   1.00
C1499  C     0.16485   0.95747   0.83218   0.00000  Uiso   1.00
C1500  C     0.16848   0.70920   0.83449   0.00000  Uiso   1.00
C1501  C     0.20700   0.85157   0.69440   0.00000  Uiso   1.00
C1502  C     0.12634   0.81510   0.97226   0.00000  Uiso   1.00
C1503  C     0.20694   0.85096   0.98008   0.00000  Uiso   1.00
C1504  C     0.12639   0.81571   0.68658   0.00000  Uiso   1.00
H1505  H     0.32558   0.82631   0.78116   0.00000  Uiso   1.00
H1506  H     0.00776   0.84036   0.88551   0.00000  Uiso   1.00
H1507  H     0.13678   0.70678   0.76310   0.00000  Uiso   1.00
H1508  H     0.19656   0.95988   0.90356   0.00000  Uiso   1.00
H1509  H     0.23880   0.86534   0.96508   0.00000  Uiso   1.00
H1510  H     0.09453   0.80132   0.70158   0.00000  Uiso   1.00
N1511  N     0.16665   0.83332   0.95240   0.00000  Uiso   1.00
N1512  N     0.16668   0.83334   0.71427   0.00000  Uiso   1.00
O1513  O     0.16666   0.77225   0.87154   0.00000  Uiso   1.00
O1514  O     0.16667   0.89442   0.79513   0.00000  Uiso   1.00
O1515  O     0.16666   0.77226   0.79510   0.00000  Uiso   1.00
O1516  O     0.16667   0.89441   0.87157   0.00000  Uiso   1.00
O1517  O     0.09058   0.83333   0.86261   0.00000  Uiso   1.00
O1518  O     0.24275   0.83334   0.80405   0.00000  Uiso   1.00
O1519  O     0.09058   0.83334   0.78617   0.00000  Uiso   1.00
O1520  O     0.24275   0.83333   0.88050   0.00000  Uiso   1.00
Zn1521 Zn    0.16667   0.83333   0.88437   0.00000  Uiso   1.00
Zn1522 Zn    0.16667   0.83334   0.78229   0.00000  Uiso   1.00
C1523  C     0.12868   0.96093   0.74763   0.00000  Uiso   1.00
C1524  C     0.15966   0.96245   0.71228   0.00000  Uiso   1.00
C1525  C     0.14194   0.94385   0.67063   0.00000  Uiso   1.00
C1526  C     0.09293   0.92416   0.99710   0.00000  Uiso   1.00
C1527  C     0.06164   0.92296   0.69863   0.00000  Uiso   1.00
C1528  C     0.07939   0.94115   0.74057   0.00000  Uiso   1.00
H1529  H     0.19786   0.97744   0.71728   0.00000  Uiso   1.00
H1530  H     0.16632   0.94452   0.97711   0.00000  Uiso   1.00
H1531  H     0.07926   0.90976   0.96482   0.00000  Uiso   1.00
H1532  H     0.02365   0.90793   0.69304   0.00000  Uiso   1.00
H1533  H     0.05495   0.93978   0.76745   0.00000  Uiso   1.00
C1534  C     0.20465   0.70574   0.91903   0.00000  Uiso   1.00
C1535  C     0.25395   0.72550   0.92610   0.00000  Uiso   1.00
C1536  C     0.27171   0.74370   0.96803   0.00000  Uiso   1.00
C1537  C     0.24042   0.74250   0.66956   0.00000  Uiso   1.00
C1538  C     0.19141   0.72283   0.99603   0.00000  Uiso   1.00
C1539  C     0.17368   0.70422   0.95439   0.00000  Uiso   1.00
H1540  H     0.27839   0.72686   0.89921   0.00000  Uiso   1.00
H1541  H     0.30970   0.75871   0.97362   0.00000  Uiso   1.00
H1542  H     0.25409   0.75690   0.70184   0.00000  Uiso   1.00
H1543  H     0.16702   0.72216   0.68956   0.00000  Uiso   1.00
H1544  H     0.13547   0.68924   0.94938   0.00000  Uiso   1.00
C1545  C     0.25188   0.87255   0.72090   0.00000  Uiso   1.00
H1546  H     0.29100   0.86616   0.71365   0.00000  Uiso   1.00
O1547  O     0.24587   0.89904   0.74852   0.00000  Uiso   1.00
C1548  C     0.08146   0.79411   0.94577   0.00000  Uiso   1.00
H1549  H     0.04234   0.80051   0.95302   0.00000  Uiso   1.00
O1550  O     0.08746   0.76763   0.91814   0.00000  Uiso   1.00
C1551  C     0.50112   0.75340   0.83381   0.00000  Uiso   1.00
C1552  C     0.49888   0.91326   0.83286   0.00000  Uiso   1.00
C1553  C     0.40052   0.83303   0.82156   0.00000  Uiso   1.00
C1554  C     0.59948   0.83363   0.84511   0.00000  Uiso   1.00
C1555  C     0.34562   0.83140   0.81530   0.00000  Uiso   1.00
C1556  C     0.65438   0.83527   0.85136   0.00000  Uiso   1.00
C1557  C     0.48382   0.68925   0.79371   0.00000  Uiso   1.00
C1558  C     0.51618   0.97742   0.87296   0.00000  Uiso   1.00
C1559  C     0.48164   0.98006   0.79194   0.00000  Uiso   1.00
C1560  C     0.51836   0.68661   0.87473   0.00000  Uiso   1.00
C1561  C     0.49818   0.95747   0.83218   0.00000  Uiso   1.00
C1562  C     0.50182   0.70920   0.83449   0.00000  Uiso   1.00
C1563  C     0.54033   0.85157   0.69440   0.00000  Uiso   1.00
C1564  C     0.45967   0.81510   0.97226   0.00000  Uiso   1.00
C1565  C     0.54027   0.85096   0.98008   0.00000  Uiso   1.00
C1566  C     0.45973   0.81571   0.68658   0.00000  Uiso   1.00
H1567  H     0.65891   0.82631   0.78116   0.00000  Uiso   1.00
H1568  H     0.34109   0.84036   0.88551   0.00000  Uiso   1.00
H1569  H     0.47011   0.70678   0.76310   0.00000  Uiso   1.00
H1570  H     0.52989   0.95988   0.90356   0.00000  Uiso   1.00
H1571  H     0.57213   0.86534   0.96508   0.00000  Uiso   1.00
H1572  H     0.42787   0.80132   0.70158   0.00000  Uiso   1.00
N1573  N     0.49999   0.83332   0.95240   0.00000  Uiso   1.00
N1574  N     0.50001   0.83334   0.71427   0.00000  Uiso   1.00
O1575  O     0.50000   0.77225   0.87154   0.00000  Uiso   1.00
O1576  O     0.50000   0.89442   0.79513   0.00000  Uiso   1.00
O1577  O     0.50000   0.77226   0.79510   0.00000  Uiso   1.00
O1578  O     0.50000   0.89441   0.87157   0.00000  Uiso   1.00
O1579  O     0.42392   0.83333   0.86261   0.00000  Uiso   1.00
O1580  O     0.57608   0.83334   0.80405   0.00000  Uiso   1.00
O1581  O     0.42392   0.83334   0.78617   0.00000  Uiso   1.00
O1582  O     0.57608   0.83333   0.88050   0.00000  Uiso   1.00
Zn1583 Zn    0.50000   0.83333   0.88437   0.00000  Uiso   1.00
Zn1584 Zn    0.50000   0.83334   0.78229   0.00000  Uiso   1.00
C1585  C     0.46202   0.96093   0.74763   0.00000  Uiso   1.00
C1586  C     0.49299   0.96245   0.71228   0.00000  Uiso   1.00
C1587  C     0.47527   0.94385   0.67063   0.00000  Uiso   1.00
C1588  C     0.42626   0.92416   0.99710   0.00000  Uiso   1.00
C1589  C     0.39497   0.92296   0.69863   0.00000  Uiso   1.00
C1590  C     0.41272   0.94115   0.74057   0.00000  Uiso   1.00
H1591  H     0.53119   0.97744   0.71728   0.00000  Uiso   1.00
H1592  H     0.49965   0.94452   0.97711   0.00000  Uiso   1.00
H1593  H     0.41260   0.90976   0.96482   0.00000  Uiso   1.00
H1594  H     0.35699   0.90793   0.69304   0.00000  Uiso   1.00
H1595  H     0.38828   0.93978   0.76745   0.00000  Uiso   1.00
C1596  C     0.53799   0.70574   0.91903   0.00000  Uiso   1.00
C1597  C     0.58729   0.72550   0.92610   0.00000  Uiso   1.00
C1598  C     0.60505   0.74370   0.96803   0.00000  Uiso   1.00
C1599  C     0.57376   0.74250   0.66956   0.00000  Uiso   1.00
C1600  C     0.52474   0.72283   0.99603   0.00000  Uiso   1.00
C1601  C     0.50701   0.70422   0.95439   0.00000  Uiso   1.00
H1602  H     0.61173   0.72686   0.89921   0.00000  Uiso   1.00
H1603  H     0.64304   0.75871   0.97362   0.00000  Uiso   1.00
H1604  H     0.58743   0.75690   0.70184   0.00000  Uiso   1.00
H1605  H     0.50036   0.72216   0.68956   0.00000  Uiso   1.00
H1606  H     0.46881   0.68924   0.94938   0.00000  Uiso   1.00
C1607  C     0.58521   0.87255   0.72090   0.00000  Uiso   1.00
H1608  H     0.62433   0.86616   0.71365   0.00000  Uiso   1.00
O1609  O     0.57920   0.89904   0.74852   0.00000  Uiso   1.00
C1610  C     0.41479   0.79411   0.94577   0.00000  Uiso   1.00
H1611  H     0.37567   0.80051   0.95302   0.00000  Uiso   1.00
O1612  O     0.42080   0.76763   0.91814   0.00000  Uiso   1.00
C1613  C     0.83446   0.75340   0.83381   0.00000  Uiso   1.00
C1614  C     0.83221   0.91326   0.83286   0.00000  Uiso   1.00
C1615  C     0.73385   0.83303   0.82156   0.00000  Uiso   1.00
C1616  C     0.93282   0.83363   0.84511   0.00000  Uiso   1.00
C1617  C     0.67895   0.83140   0.81530   0.00000  Uiso   1.00
C1618  C     0.98771   0.83527   0.85136   0.00000  Uiso   1.00
C1619  C     0.81715   0.68925   0.79371   0.00000  Uiso   1.00
C1620  C     0.84951   0.97742   0.87296   0.00000  Uiso   1.00
C1621  C     0.81497   0.98006   0.79194   0.00000  Uiso   1.00
C1622  C     0.85169   0.68661   0.87473   0.00000  Uiso   1.00
C1623  C     0.83151   0.95747   0.83218   0.00000  Uiso   1.00
C1624  C     0.83515   0.70920   0.83449   0.00000  Uiso   1.00
C1625  C     0.87366   0.85157   0.69440   0.00000  Uiso   1.00
C1626  C     0.79301   0.81510   0.97226   0.00000  Uiso   1.00
C1627  C     0.87361   0.85096   0.98008   0.00000  Uiso   1.00
C1628  C     0.79306   0.81571   0.68658   0.00000  Uiso   1.00
H1629  H     0.99224   0.82631   0.78116   0.00000  Uiso   1.00
H1630  H     0.67442   0.84036   0.88551   0.00000  Uiso   1.00
H1631  H     0.80344   0.70678   0.76310   0.00000  Uiso   1.00
H1632  H     0.86322   0.95988   0.90356   0.00000  Uiso   1.00
H1633  H     0.90547   0.86534   0.96508   0.00000  Uiso   1.00
H1634  H     0.76120   0.80132   0.70158   0.00000  Uiso   1.00
N1635  N     0.83332   0.83332   0.95240   0.00000  Uiso   1.00
N1636  N     0.83335   0.83334   0.71427   0.00000  Uiso   1.00
O1637  O     0.83333   0.77225   0.87154   0.00000  Uiso   1.00
O1638  O     0.83334   0.89442   0.79513   0.00000  Uiso   1.00
O1639  O     0.83333   0.77226   0.79510   0.00000  Uiso   1.00
O1640  O     0.83334   0.89441   0.87157   0.00000  Uiso   1.00
O1641  O     0.75725   0.83333   0.86261   0.00000  Uiso   1.00
O1642  O     0.90942   0.83334   0.80405   0.00000  Uiso   1.00
O1643  O     0.75725   0.83334   0.78617   0.00000  Uiso   1.00
O1644  O     0.90942   0.83333   0.88050   0.00000  Uiso   1.00
Zn1645 Zn    0.83333   0.83333   0.88437   0.00000  Uiso   1.00
Zn1646 Zn    0.83333   0.83334   0.78229   0.00000  Uiso   1.00
C1647  C     0.79535   0.96093   0.74763   0.00000  Uiso   1.00
C1648  C     0.82633   0.96245   0.71228   0.00000  Uiso   1.00
C1649  C     0.80860   0.94385   0.67063   0.00000  Uiso   1.00
C1650  C     0.75959   0.92416   0.99710   0.00000  Uiso   1.00
C1651  C     0.72830   0.92296   0.69863   0.00000  Uiso   1.00
C1652  C     0.74605   0.94115   0.74057   0.00000  Uiso   1.00
H1653  H     0.86453   0.97744   0.71728   0.00000  Uiso   1.00
H1654  H     0.83299   0.94452   0.97711   0.00000  Uiso   1.00
H1655  H     0.74593   0.90976   0.96482   0.00000  Uiso   1.00
H1656  H     0.69032   0.90793   0.69304   0.00000  Uiso   1.00
H1657  H     0.72162   0.93978   0.76745   0.00000  Uiso   1.00
C1658  C     0.87132   0.70574   0.91903   0.00000  Uiso   1.00
C1659  C     0.92062   0.72550   0.92610   0.00000  Uiso   1.00
C1660  C     0.93838   0.74370   0.96803   0.00000  Uiso   1.00
C1661  C     0.90709   0.74250   0.66956   0.00000  Uiso   1.00
C1662  C     0.85807   0.72283   0.99603   0.00000  Uiso   1.00
C1663  C     0.84034   0.70422   0.95439   0.00000  Uiso   1.00
H1664  H     0.94506   0.72686   0.89921   0.00000  Uiso   1.00
H1665  H     0.97637   0.75871   0.97362   0.00000  Uiso   1.00
H1666  H     0.92076   0.75690   0.70184   0.00000  Uiso   1.00
H1667  H     0.83369   0.72216   0.68956   0.00000  Uiso   1.00
H1668  H     0.80214   0.68924   0.94938   0.00000  Uiso   1.00
C1669  C     0.91854   0.87255   0.72090   0.00000  Uiso   1.00
H1670  H     0.95766   0.86616   0.71365   0.00000  Uiso   1.00
O1671  O     0.91253   0.89904   0.74852   0.00000  Uiso   1.00
C1672  C     0.74812   0.79411   0.94577   0.00000  Uiso   1.00
H1673  H     0.70900   0.80051   0.95302   0.00000  Uiso   1.00
O1674  O     0.75413   0.76763   0.91814   0.00000  Uiso   1.00
loop_
_geom_bond_atom_site_label_1
_geom_bond_atom_site_label_2
_geom_bond_distance
_geom_bond_site_symmetry_2
_ccdc_geom_bond_type
C1     O25     1.285   .     A
C1     C12     1.426   .     S
C1     O27     1.291   .     A
C2     O28     1.291   .     A
C2     C11     1.426   .     S
C2     O26     1.285   .     A
C3     O31     1.282   .     A
C3     O29     1.284   .     A
C3     C5      1.402   .     S
C4     O30     1.284   .     A
C4     O32     1.282   .     A
C4     C6      1.402   .     S
C5     C130    1.325   1_455 S
C5     H141    1.086   1_455 S
C6     C67     1.325   .     S
C6     H80     1.086   .     S
C7     H19     1.085   .     S
C7     C12     1.397   .     A
C7     C381    1.373   1_545 S
C8     H20     1.085   .     S
C8     C11     1.397   .     A
C8     C196    1.373   .     S
C9     C11     1.411   .     A
C9     C35     1.482   .     S
C9     C193    1.373   .     S
C10    C46     1.482   .     S
C10    C12     1.411   .     A
C10    C380    1.373   1_545 S
C13    C57     1.468   .     S
C13    N24     1.384   .     A
C13    C1131   1.416   1_554 S
C14    N23     1.384   .     A
C14    C60     1.468   .     S
C14    C574    1.416   .     S
C15    N23     1.355   .     A
C15    H21     1.083   .     S
C15    C571    1.416   .     S
C16    N24     1.355   .     A
C16    H22     1.083   .     S
C16    C1130   1.416   1_554 S
H17    C67     1.086   .     S
H18    C130    1.086   1_455 S
N23    Zn33    2.021   .     S
N24    Zn34    2.021   .     S
O25    Zn33    2.011   .     S
O26    Zn34    2.011   .     S
O27    Zn34    2.002   .     S
O28    Zn33    2.002   .     S
O29    Zn33    1.979   .     S
O30    Zn34    1.979   .     S
O31    Zn34    1.980   .     S
O32    Zn33    1.980   .     S
C35    C40     1.404   .     A
C35    C36     1.404   .     A
C36    H41     1.083   .     S
C36    C37     1.398   .     A
C37    C1154   1.396   1_554 S
C37    H1158   1.081   1_554 S
C38    H43     1.083   .     S
C38    C595    1.396   .     S
C38    C597    1.397   .     S
C39    H44     1.079   .     S
C39    C40     1.399   .     A
C39    C1154   1.397   1_554 S
C40    H45     1.083   .     S
H42    C595    1.081   .     S
C46    C47     1.404   .     A
C46    C51     1.404   .     A
C47    H52     1.083   .     S
C47    C48     1.399   .     A
C48    H53     1.079   .     S
C48    C607    1.397   .     S
C49    H54     1.083   .     S
C49    C1164   1.397   1_554 S
C49    C1166   1.396   1_554 S
C50    C51     1.398   .     A
C50    C607    1.396   .     S
C50    H613    1.081   .     S
C51    H56     1.083   .     S
H55    C1166   1.081   1_554 S
C57    H58     1.083   .     S
C57    O59     1.218   .     D
C60    O62     1.218   .     D
C60    H61     1.083   .     S
C63    O87     1.285   .     A
C63    C74     1.426   .     S
C63    O89     1.291   .     A
C64    O90     1.291   .     A
C64    C73     1.426   .     S
C64    O88     1.285   .     A
C65    O93     1.282   .     A
C65    O91     1.284   .     A
C65    C67     1.402   .     S
C66    O92     1.284   .     A
C66    O94     1.282   .     A
C66    C68     1.402   .     S
C68    C129    1.325   .     S
C68    H142    1.086   .     S
C69    H81     1.085   .     S
C69    C74     1.397   .     A
C69    C443    1.373   1_545 S
C70    H82     1.085   .     S
C70    C73     1.397   .     A
C70    C258    1.373   .     S
C71    C73     1.411   .     A
C71    C97     1.482   .     S
C71    C255    1.373   .     S
C72    C108    1.482   .     S
C72    C74     1.411   .     A
C72    C442    1.373   1_545 S
C75    C119    1.468   .     S
C75    N86     1.384   .     A
C75    C1193   1.416   1_554 S
C76    N85     1.384   .     A
C76    C122    1.468   .     S
C76    C636    1.416   .     S
C77    N85     1.355   .     A
C77    H83     1.083   .     S
C77    C633    1.416   .     S
C78    N86     1.355   .     A
C78    H84     1.083   .     S
C78    C1192   1.416   1_554 S
H79    C129    1.086   .     S
N85    Zn95    2.021   .     S
N86    Zn96    2.021   .     S
O87    Zn95    2.011   .     S
O88    Zn96    2.011   .     S
O89    Zn96    2.002   .     S
O90    Zn95    2.002   .     S
O91    Zn95    1.979   .     S
O92    Zn96    1.979   .     S
O93    Zn96    1.980   .     S
O94    Zn95    1.980   .     S
C97    C102    1.404   .     A
C97    C98     1.404   .     A
C98    H103    1.083   .     S
C98    C99     1.398   .     A
C99    C1216   1.396   1_554 S
C99    H1220   1.081   1_554 S
C100   H105    1.083   .     S
C100   C657    1.396   .     S
C100   C659    1.397   .     S
C101   H106    1.079   .     S
C101   C102    1.399   .     A
C101   C1216   1.397   1_554 S
C102   H107    1.083   .     S
H104   C657    1.081   .     S
C108   C109    1.404   .     A
C108   C113    1.404   .     A
C109   H114    1.083   .     S
C109   C110    1.399   .     A
C110   H115    1.079   .     S
C110   C669    1.397   .     S
C111   H116    1.083   .     S
C111   C1226   1.397   1_554 S
C111   C1228   1.396   1_554 S
C112   C113    1.398   .     A
C112   C669    1.396   .     S
C112   H675    1.081   .     S
C113   H118    1.083   .     S
H117   C1228   1.081   1_554 S
C119   H120    1.083   .     S
C119   O121    1.218   .     D
C122   O124    1.218   .     D
C122   H123    1.083   .     S
C125   O149    1.285   .     A
C125   C136    1.426   .     S
C125   O151    1.291   .     A
C126   O152    1.291   .     A
C126   C135    1.426   .     S
C126   O150    1.285   .     A
C127   O155    1.282   .     A
C127   O153    1.284   .     A
C127   C129    1.402   .     S
C128   O154    1.284   .     A
C128   O156    1.282   .     A
C128   C130    1.402   .     S
C130   C5      1.325   1_655 S
C130   H18     1.086   1_655 S
C131   H143    1.085   .     S
C131   C136    1.397   .     A
C131   C505    1.373   1_545 S
C132   H144    1.085   .     S
C132   C135    1.397   .     A
C132   C320    1.373   .     S
C133   C135    1.411   .     A
C133   C159    1.482   .     S
C133   C317    1.373   .     S
C134   C170    1.482   .     S
C134   C136    1.411   .     A
C134   C504    1.373   1_545 S
C137   C181    1.468   .     S
C137   N148    1.384   .     A
C137   C1255   1.416   1_554 S
C138   N147    1.384   .     A
C138   C184    1.468   .     S
C138   C698    1.416   .     S
C139   N147    1.355   .     A
C139   H145    1.083   .     S
C139   C695    1.416   .     S
C140   N148    1.355   .     A
C140   H146    1.083   .     S
C140   C1254   1.416   1_554 S
H141   C5      1.086   1_655 S
N147   Zn157   2.021   .     S
N148   Zn158   2.021   .     S
O149   Zn157   2.011   .     S
O150   Zn158   2.011   .     S
O151   Zn158   2.002   .     S
O152   Zn157   2.002   .     S
O153   Zn157   1.979   .     S
O154   Zn158   1.979   .     S
O155   Zn158   1.980   .     S
O156   Zn157   1.980   .     S
C159   C164    1.404   .     A
C159   C160    1.404   .     A
C160   H165    1.083   .     S
C160   C161    1.398   .     A
C161   C1278   1.396   1_554 S
C161   H1282   1.081   1_554 S
C162   H167    1.083   .     S
C162   C719    1.396   .     S
C162   C721    1.397   .     S
C163   H168    1.079   .     S
C163   C164    1.399   .     A
C163   C1278   1.397   1_554 S
C164   H169    1.083   .     S
H166   C719    1.081   .     S
C170   C171    1.404   .     A
C170   C175    1.404   .     A
C171   H176    1.083   .     S
C171   C172    1.399   .     A
C172   H177    1.079   .     S
C172   C731    1.397   .     S
C173   H178    1.083   .     S
C173   C1288   1.397   1_554 S
C173   C1290   1.396   1_554 S
C174   C175    1.398   .     A
C174   C731    1.396   .     S
C174   H737    1.081   .     S
C175   H180    1.083   .     S
H179   C1290   1.081   1_554 S
C181   H182    1.083   .     S
C181   O183    1.218   .     D
C184   O186    1.218   .     D
C184   H185    1.083   .     S
C187   O211    1.285   .     A
C187   C198    1.426   .     S
C187   O213    1.291   .     A
C188   O214    1.291   .     A
C188   C197    1.426   .     S
C188   O212    1.285   .     A
C189   O217    1.282   .     A
C189   O215    1.284   .     A
C189   C191    1.402   .     S
C190   O216    1.284   .     A
C190   O218    1.282   .     A
C190   C192    1.402   .     S
C191   C316    1.325   1_455 S
C191   H327    1.086   1_455 S
C192   C253    1.325   .     S
C192   H266    1.086   .     S
C193   H205    1.085   .     S
C193   C198    1.397   .     A
C194   H206    1.085   .     S
C194   C197    1.397   .     A
C194   C382    1.373   .     S
C195   C197    1.411   .     A
C195   C221    1.482   .     S
C195   C379    1.373   .     S
C196   C232    1.482   .     S
C196   C198    1.411   .     A
C199   C243    1.468   .     S
C199   N210    1.384   .     A
C199   C1317   1.416   1_554 S
C200   N209    1.384   .     A
C200   C246    1.468   .     S
C200   C760    1.416   .     S
C201   N209    1.355   .     A
C201   H207    1.083   .     S
C201   C757    1.416   .     S
C202   N210    1.355   .     A
C202   H208    1.083   .     S
C202   C1316   1.416   1_554 S
H203   C253    1.086   .     S
H204   C316    1.086   1_455 S
N209   Zn219   2.021   .     S
N210   Zn220   2.021   .     S
O211   Zn219   2.011   .     S
O212   Zn220   2.011   .     S
O213   Zn220   2.002   .     S
O214   Zn219   2.002   .     S
O215   Zn219   1.979   .     S
O216   Zn220   1.979   .     S
O217   Zn220   1.980   .     S
O218   Zn219   1.980   .     S
C221   C226    1.404   .     A
C221   C222    1.404   .     A
C222   H227    1.083   .     S
C222   C223    1.398   .     A
C223   C1340   1.396   1_554 S
C223   H1344   1.081   1_554 S
C224   H229    1.083   .     S
C224   C781    1.396   .     S
C224   C783    1.397   .     S
C225   H230    1.079   .     S
C225   C226    1.399   .     A
C225   C1340   1.397   1_554 S
C226   H231    1.083   .     S
H228   C781    1.081   .     S
C232   C233    1.404   .     A
C232   C237    1.404   .     A
C233   H238    1.083   .     S
C233   C234    1.399   .     A
C234   H239    1.079   .     S
C234   C793    1.397   .     S
C235   H240    1.083   .     S
C235   C1350   1.397   1_554 S
C235   C1352   1.396   1_554 S
C236   C237    1.398   .     A
C236   C793    1.396   .     S
C236   H799    1.081   .     S
C237   H242    1.083   .     S
H241   C1352   1.081   1_554 S
C243   H244    1.083   .     S
C243   O245    1.218   .     D
C246   O248    1.218   .     D
C246   H247    1.083   .     S
C249   O273    1.285   .     A
C249   C260    1.426   .     S
C249   O275    1.291   .     A
C250   O276    1.291   .     A
C250   C259    1.426   .     S
C250   O274    1.285   .     A
C251   O279    1.282   .     A
C251   O277    1.284   .     A
C251   C253    1.402   .     S
C252   O278    1.284   .     A
C252   O280    1.282   .     A
C252   C254    1.402   .     S
C254   C315    1.325   .     S
C254   H328    1.086   .     S
C255   H267    1.085   .     S
C255   C260    1.397   .     A
C256   H268    1.085   .     S
C256   C259    1.397   .     A
C256   C444    1.373   .     S
C257   C259    1.411   .     A
C257   C283    1.482   .     S
C257   C441    1.373   .     S
C258   C294    1.482   .     S
C258   C260    1.411   .     A
C261   C305    1.468   .     S
C261   N272    1.384   .     A
C261   C1379   1.416   1_554 S
C262   N271    1.384   .     A
C262   C308    1.468   .     S
C262   C822    1.416   .     S
C263   N271    1.355   .     A
C263   H269    1.083   .     S
C263   C819    1.416   .     S
C264   N272    1.355   .     A
C264   H270    1.083   .     S
C264   C1378   1.416   1_554 S
H265   C315    1.086   .     S
N271   Zn281   2.021   .     S
N272   Zn282   2.021   .     S
O273   Zn281   2.011   .     S
O274   Zn282   2.011   .     S
O275   Zn282   2.002   .     S
O276   Zn281   2.002   .     S
O277   Zn281   1.979   .     S
O278   Zn282   1.979   .     S
O279   Zn282   1.980   .     S
O280   Zn281   1.980   .     S
C283   C288    1.404   .     A
C283   C284    1.404   .     A
C284   H289    1.083   .     S
C284   C285    1.398   .     A
C285   C1402   1.396   1_554 S
C285   H1406   1.081   1_554 S
C286   H291    1.083   .     S
C286   C843    1.396   .     S
C286   C845    1.397   .     S
C287   H292    1.079   .     S
C287   C288    1.399   .     A
C287   C1402   1.397   1_554 S
C288   H293    1.083   .     S
H290   C843    1.081   .     S
C294   C295    1.404   .     A
C294   C299    1.404   .     A
C295   H300    1.083   .     S
C295   C296    1.399   .     A
C296   H301    1.079   .     S
C296   C855    1.397   .     S
C297   H302    1.083   .     S
C297   C1412   1.397   1_554 S
C297   C1414   1.396   1_554 S
C298   C299    1.398   .     A
C298   C855    1.396   .     S
C298   H861    1.081   .     S
C299   H304    1.083   .     S
H303   C1414   1.081   1_554 S
C305   H306    1.083   .     S
C305   O307    1.218   .     D
C308   O310    1.218   .     D
C308   H309    1.083   .     S
C311   O335    1.285   .     A
C311   C322    1.426   .     S
C311   O337    1.291   .     A
C312   O338    1.291   .     A
C312   C321    1.426   .     S
C312   O336    1.285   .     A
C313   O341    1.282   .     A
C313   O339    1.284   .     A
C313   C315    1.402   .     S
C314   O340    1.284   .     A
C314   O342    1.282   .     A
C314   C316    1.402   .     S
C316   C191    1.325   1_655 S
C316   H204    1.086   1_655 S
C317   H329    1.085   .     S
C317   C322    1.397   .     A
C318   H330    1.085   .     S
C318   C321    1.397   .     A
C318   C506    1.373   .     S
C319   C321    1.411   .     A
C319   C345    1.482   .     S
C319   C503    1.373   .     S
C320   C356    1.482   .     S
C320   C322    1.411   .     A
C323   C367    1.468   .     S
C323   N334    1.384   .     A
C323   C1441   1.416   1_554 S
C324   N333    1.384   .     A
C324   C370    1.468   .     S
C324   C884    1.416   .     S
C325   N333    1.355   .     A
C325   H331    1.083   .     S
C325   C881    1.416   .     S
C326   N334    1.355   .     A
C326   H332    1.083   .     S
C326   C1440   1.416   1_554 S
H327   C191    1.086   1_655 S
N333   Zn343   2.021   .     S
N334   Zn344   2.021   .     S
O335   Zn343   2.011   .     S
O336   Zn344   2.011   .     S
O337   Zn344   2.002   .     S
O338   Zn343   2.002   .     S
O339   Zn343   1.979   .     S
O340   Zn344   1.979   .     S
O341   Zn344   1.980   .     S
O342   Zn343   1.980   .     S
C345   C350    1.404   .     A
C345   C346    1.404   .     A
C346   H351    1.083   .     S
C346   C347    1.398   .     A
C347   C1464   1.396   1_554 S
C347   H1468   1.081   1_554 S
C348   H353    1.083   .     S
C348   C905    1.396   .     S
C348   C907    1.397   .     S
C349   H354    1.079   .     S
C349   C350    1.399   .     A
C349   C1464   1.397   1_554 S
C350   H355    1.083   .     S
H352   C905    1.081   .     S
C356   C357    1.404   .     A
C356   C361    1.404   .     A
C357   H362    1.083   .     S
C357   C358    1.399   .     A
C358   H363    1.079   .     S
C358   C917    1.397   .     S
C359   H364    1.083   .     S
C359   C1474   1.397   1_554 S
C359   C1476   1.396   1_554 S
C360   C361    1.398   .     A
C360   C917    1.396   .     S
C360   H923    1.081   .     S
C361   H366    1.083   .     S
H365   C1476   1.081   1_554 S
C367   H368    1.083   .     S
C367   O369    1.218   .     D
C370   O372    1.218   .     D
C370   H371    1.083   .     S
C373   O397    1.285   .     A
C373   C384    1.426   .     S
C373   O399    1.291   .     A
C374   O400    1.291   .     A
C374   C383    1.426   .     S
C374   O398    1.285   .     A
C375   O403    1.282   .     A
C375   O401    1.284   .     A
C375   C377    1.402   .     S
C376   O402    1.284   .     A
C376   O404    1.282   .     A
C376   C378    1.402   .     S
C377   C502    1.325   1_455 S
C377   H513    1.086   1_455 S
C378   C439    1.325   .     S
C378   H452    1.086   .     S
C379   H391    1.085   .     S
C379   C384    1.397   .     A
C380   H392    1.085   .     S
C380   C383    1.397   .     A
C380   C10     1.373   1_565 S
C381   C383    1.411   .     A
C381   C407    1.482   .     S
C381   C7      1.373   1_565 S
C382   C418    1.482   .     S
C382   C384    1.411   .     A
C385   C429    1.468   .     S
C385   N396    1.384   .     A
C385   C1503   1.416   1_554 S
C386   N395    1.384   .     A
C386   C432    1.468   .     S
C386   C946    1.416   .     S
C387   N395    1.355   .     A
C387   H393    1.083   .     S
C387   C943    1.416   .     S
C388   N396    1.355   .     A
C388   H394    1.083   .     S
C388   C1502   1.416   1_554 S
H389   C439    1.086   .     S
H390   C502    1.086   1_455 S
N395   Zn405   2.021   .     S
N396   Zn406   2.021   .     S
O397   Zn405   2.011   .     S
O398   Zn406   2.011   .     S
O399   Zn406   2.002   .     S
O400   Zn405   2.002   .     S
O401   Zn405   1.979   .     S
O402   Zn406   1.979   .     S
O403   Zn406   1.980   .     S
O404   Zn405   1.980   .     S
C407   C412    1.404   .     A
C407   C408    1.404   .     A
C408   H413    1.083   .     S
C408   C409    1.398   .     A
C409   C1526   1.396   1_554 S
C409   H1530   1.081   1_554 S
C410   H415    1.083   .     S
C410   C967    1.396   .     S
C410   C969    1.397   .     S
C411   H416    1.079   .     S
C411   C412    1.399   .     A
C411   C1526   1.397   1_554 S
C412   H417    1.083   .     S
H414   C967    1.081   .     S
C418   C419    1.404   .     A
C418   C423    1.404   .     A
C419   H424    1.083   .     S
C419   C420    1.399   .     A
C420   H425    1.079   .     S
C420   C979    1.397   .     S
C421   H426    1.083   .     S
C421   C1536   1.397   1_554 S
C421   C1538   1.396   1_554 S
C422   C423    1.398   .     A
C422   C979    1.396   .     S
C422   H985    1.081   .     S
C423   H428    1.083   .     S
H427   C1538   1.081   1_554 S
C429   H430    1.083   .     S
C429   O431    1.218   .     D
C432   O434    1.218   .     D
C432   H433    1.083   .     S
C435   O459    1.285   .     A
C435   C446    1.426   .     S
C435   O461    1.291   .     A
C436   O462    1.291   .     A
C436   C445    1.426   .     S
C436   O460    1.285   .     A
C437   O465    1.282   .     A
C437   O463    1.284   .     A
C437   C439    1.402   .     S
C438   O464    1.284   .     A
C438   O466    1.282   .     A
C438   C440    1.402   .     S
C440   C501    1.325   .     S
C440   H514    1.086   .     S
C441   H453    1.085   .     S
C441   C446    1.397   .     A
C442   H454    1.085   .     S
C442   C445    1.397   .     A
C442   C72     1.373   1_565 S
C443   C445    1.411   .     A
C443   C469    1.482   .     S
C443   C69     1.373   1_565 S
C444   C480    1.482   .     S
C444   C446    1.411   .     A
C447   C491    1.468   .     S
C447   N458    1.384   .     A
C447   C1565   1.416   1_554 S
C448   N457    1.384   .     A
C448   C494    1.468   .     S
C448   C1008   1.416   .     S
C449   N457    1.355   .     A
C449   H455    1.083   .     S
C449   C1005   1.416   .     S
C450   N458    1.355   .     A
C450   H456    1.083   .     S
C450   C1564   1.416   1_554 S
H451   C501    1.086   .     S
N457   Zn467   2.021   .     S
N458   Zn468   2.021   .     S
O459   Zn467   2.011   .     S
O460   Zn468   2.011   .     S
O461   Zn468   2.002   .     S
O462   Zn467   2.002   .     S
O463   Zn467   1.979   .     S
O464   Zn468   1.979   .     S
O465   Zn468   1.980   .     S
O466   Zn467   1.980   .     S
C469   C474    1.404   .     A
C469   C470    1.404   .     A
C470   H475    1.083   .     S
C470   C471    1.398   .     A
C471   C1588   1.396   1_554 S
C471   H1592   1.081   1_554 S
C472   H477    1.083   .     S
C472   C1029   1.396   .     S
C472   C1031   1.397   .     S
C473   H478    1.079   .     S
C473   C474    1.399   .     A
C473   C1588   1.397   1_554 S
C474   H479    1.083   .     S
H476   C1029   1.081   .     S
C480   C481    1.404   .     A
C480   C485    1.404   .     A
C481   H486    1.083   .     S
C481   C482    1.399   .     A
C482   H487    1.079   .     S
C482   C1041   1.397   .     S
C483   H488    1.083   .     S
C483   C1598   1.397   1_554 S
C483   C1600   1.396   1_554 S
C484   C485    1.398   .     A
C484   C1041   1.396   .     S
C484   H1047   1.081   .     S
C485   H490    1.083   .     S
H489   C1600   1.081   1_554 S
C491   H492    1.083   .     S
C491   O493    1.218   .     D
C494   O496    1.218   .     D
C494   H495    1.083   .     S
C497   O521    1.285   .     A
C497   C508    1.426   .     S
C497   O523    1.291   .     A
C498   O524    1.291   .     A
C498   C507    1.426   .     S
C498   O522    1.285   .     A
C499   O527    1.282   .     A
C499   O525    1.284   .     A
C499   C501    1.402   .     S
C500   O526    1.284   .     A
C500   O528    1.282   .     A
C500   C502    1.402   .     S
C502   C377    1.325   1_655 S
C502   H390    1.086   1_655 S
C503   H515    1.085   .     S
C503   C508    1.397   .     A
C504   H516    1.085   .     S
C504   C507    1.397   .     A
C504   C134    1.373   1_565 S
C505   C507    1.411   .     A
C505   C531    1.482   .     S
C505   C131    1.373   1_565 S
C506   C542    1.482   .     S
C506   C508    1.411   .     A
C509   C553    1.468   .     S
C509   N520    1.384   .     A
C509   C1627   1.416   1_554 S
C510   N519    1.384   .     A
C510   C556    1.468   .     S
C510   C1070   1.416   .     S
C511   N519    1.355   .     A
C511   H517    1.083   .     S
C511   C1067   1.416   .     S
C512   N520    1.355   .     A
C512   H518    1.083   .     S
C512   C1626   1.416   1_554 S
H513   C377    1.086   1_655 S
N519   Zn529   2.021   .     S
N520   Zn530   2.021   .     S
O521   Zn529   2.011   .     S
O522   Zn530   2.011   .     S
O523   Zn530   2.002   .     S
O524   Zn529   2.002   .     S
O525   Zn529   1.979   .     S
O526   Zn530   1.979   .     S
O527   Zn530   1.980   .     S
O528   Zn529   1.980   .     S
C531   C536    1.404   .     A
C531   C532    1.404   .     A
C532   H537    1.083   .     S
C532   C533    1.398   .     A
C533   C1650   1.396   1_554 S
C533   H1654   1.081   1_554 S
C534   H539    1.083   .     S
C534   C1091   1.396   .     S
C534   C1093   1.397   .     S
C535   H540    1.079   .     S
C535   C536    1.399   .     A
C535   C1650   1.397   1_554 S
C536   H541    1.083   .     S
H538   C1091   1.081   .     S
C542   C543    1.404   .     A
C542   C547    1.404   .     A
C543   H548    1.083   .     S
C543   C544    1.399   .     A
C544   H549    1.079   .     S
C544   C1103   1.397   .     S
C545   H550    1.083   .     S
C545   C1660   1.397   1_554 S
C545   C1662   1.396   1_554 S
C546   C547    1.398   .     A
C546   C1103   1.396   .     S
C546   H1109   1.081   .     S
C547   H552    1.083   .     S
H551   C1662   1.081   1_554 S
C553   H554    1.083   .     S
C553   O555    1.218   .     D
C556   O558    1.218   .     D
C556   H557    1.083   .     S
C559   O583    1.285   .     A
C559   C570    1.426   .     S
C559   O585    1.291   .     A
C560   O586    1.291   .     A
C560   C569    1.426   .     S
C560   O584    1.285   .     A
C561   O589    1.282   .     A
C561   O587    1.284   .     A
C561   C563    1.402   .     S
C562   O588    1.284   .     A
C562   O590    1.282   .     A
C562   C564    1.402   .     S
C563   C688    1.325   1_455 S
C563   H699    1.086   1_455 S
C564   C625    1.325   .     S
C564   H638    1.086   .     S
C565   H577    1.085   .     S
C565   C570    1.397   .     A
C565   C939    1.373   1_545 S
C566   H578    1.085   .     S
C566   C569    1.397   .     A
C566   C754    1.373   .     S
C567   C569    1.411   .     A
C567   C593    1.482   .     S
C567   C751    1.373   .     S
C568   C604    1.482   .     S
C568   C570    1.411   .     A
C568   C938    1.373   1_545 S
C571   C615    1.468   .     S
C571   N582    1.384   .     A
C572   N581    1.384   .     A
C572   C618    1.468   .     S
C572   C1132   1.416   .     S
C573   N581    1.355   .     A
C573   H579    1.083   .     S
C573   C1129   1.416   .     S
C574   N582    1.355   .     A
C574   H580    1.083   .     S
H575   C625    1.086   .     S
H576   C688    1.086   1_455 S
N581   Zn591   2.021   .     S
N582   Zn592   2.021   .     S
O583   Zn591   2.011   .     S
O584   Zn592   2.011   .     S
O585   Zn592   2.002   .     S
O586   Zn591   2.002   .     S
O587   Zn591   1.979   .     S
O588   Zn592   1.979   .     S
O589   Zn592   1.980   .     S
O590   Zn591   1.980   .     S
C593   C598    1.404   .     A
C593   C594    1.404   .     A
C594   H599    1.083   .     S
C594   C595    1.398   .     A
C596   H601    1.083   .     S
C596   C1153   1.396   .     S
C596   C1155   1.397   .     S
C597   H602    1.079   .     S
C597   C598    1.399   .     A
C598   H603    1.083   .     S
H600   C1153   1.081   .     S
C604   C605    1.404   .     A
C604   C609    1.404   .     A
C605   H610    1.083   .     S
C605   C606    1.399   .     A
C606   H611    1.079   .     S
C606   C1165   1.397   .     S
C607   H612    1.083   .     S
C608   C609    1.398   .     A
C608   C1165   1.396   .     S
C608   H1171   1.081   .     S
C609   H614    1.083   .     S
C615   H616    1.083   .     S
C615   O617    1.218   .     D
C618   O620    1.218   .     D
C618   H619    1.083   .     S
C621   O645    1.285   .     A
C621   C632    1.426   .     S
C621   O647    1.291   .     A
C622   O648    1.291   .     A
C622   C631    1.426   .     S
C622   O646    1.285   .     A
C623   O651    1.282   .     A
C623   O649    1.284   .     A
C623   C625    1.402   .     S
C624   O650    1.284   .     A
C624   O652    1.282   .     A
C624   C626    1.402   .     S
C626   C687    1.325   .     S
C626   H700    1.086   .     S
C627   H639    1.085   .     S
C627   C632    1.397   .     A
C627   C1001   1.373   1_545 S
C628   H640    1.085   .     S
C628   C631    1.397   .     A
C628   C816    1.373   .     S
C629   C631    1.411   .     A
C629   C655    1.482   .     S
C629   C813    1.373   .     S
C630   C666    1.482   .     S
C630   C632    1.411   .     A
C630   C1000   1.373   1_545 S
C633   C677    1.468   .     S
C633   N644    1.384   .     A
C634   N643    1.384   .     A
C634   C680    1.468   .     S
C634   C1194   1.416   .     S
C635   N643    1.355   .     A
C635   H641    1.083   .     S
C635   C1191   1.416   .     S
C636   N644    1.355   .     A
C636   H642    1.083   .     S
H637   C687    1.086   .     S
N643   Zn653   2.021   .     S
N644   Zn654   2.021   .     S
O645   Zn653   2.011   .     S
O646   Zn654   2.011   .     S
O647   Zn654   2.002   .     S
O648   Zn653   2.002   .     S
O649   Zn653   1.979   .     S
O650   Zn654   1.979   .     S
O651   Zn654   1.980   .     S
O652   Zn653   1.980   .     S
C655   C660    1.404   .     A
C655   C656    1.404   .     A
C656   H661    1.083   .     S
C656   C657    1.398   .     A
C658   H663    1.083   .     S
C658   C1215   1.396   .     S
C658   C1217   1.397   .     S
C659   H664    1.079   .     S
C659   C660    1.399   .     A
C660   H665    1.083   .     S
H662   C1215   1.081   .     S
C666   C667    1.404   .     A
C666   C671    1.404   .     A
C667   H672    1.083   .     S
C667   C668    1.399   .     A
C668   H673    1.079   .     S
C668   C1227   1.397   .     S
C669   H674    1.083   .     S
C670   C671    1.398   .     A
C670   C1227   1.396   .     S
C670   H1233   1.081   .     S
C671   H676    1.083   .     S
C677   H678    1.083   .     S
C677   O679    1.218   .     D
C680   O682    1.218   .     D
C680   H681    1.083   .     S
C683   O707    1.285   .     A
C683   C694    1.426   .     S
C683   O709    1.291   .     A
C684   O710    1.291   .     A
C684   C693    1.426   .     S
C684   O708    1.285   .     A
C685   O713    1.282   .     A
C685   O711    1.284   .     A
C685   C687    1.402   .     S
C686   O712    1.284   .     A
C686   O714    1.282   .     A
C686   C688    1.402   .     S
C688   C563    1.325   1_655 S
C688   H576    1.086   1_655 S
C689   H701    1.085   .     S
C689   C694    1.397   .     A
C689   C1063   1.373   1_545 S
C690   H702    1.085   .     S
C690   C693    1.397   .     A
C690   C878    1.373   .     S
C691   C693    1.411   .     A
C691   C717    1.482   .     S
C691   C875    1.373   .     S
C692   C728    1.482   .     S
C692   C694    1.411   .     A
C692   C1062   1.373   1_545 S
C695   C739    1.468   .     S
C695   N706    1.384   .     A
C696   N705    1.384   .     A
C696   C742    1.468   .     S
C696   C1256   1.416   .     S
C697   N705    1.355   .     A
C697   H703    1.083   .     S
C697   C1253   1.416   .     S
C698   N706    1.355   .     A
C698   H704    1.083   .     S
H699   C563    1.086   1_655 S
N705   Zn715   2.021   .     S
N706   Zn716   2.021   .     S
O707   Zn715   2.011   .     S
O708   Zn716   2.011   .     S
O709   Zn716   2.002   .     S
O710   Zn715   2.002   .     S
O711   Zn715   1.979   .     S
O712   Zn716   1.979   .     S
O713   Zn716   1.980   .     S
O714   Zn715   1.980   .     S
C717   C722    1.404   .     A
C717   C718    1.404   .     A
C718   H723    1.083   .     S
C718   C719    1.398   .     A
C720   H725    1.083   .     S
C720   C1277   1.396   .     S
C720   C1279   1.397   .     S
C721   H726    1.079   .     S
C721   C722    1.399   .     A
C722   H727    1.083   .     S
H724   C1277   1.081   .     S
C728   C729    1.404   .     A
C728   C733    1.404   .     A
C729   H734    1.083   .     S
C729   C730    1.399   .     A
C730   H735    1.079   .     S
C730   C1289   1.397   .     S
C731   H736    1.083   .     S
C732   C733    1.398   .     A
C732   C1289   1.396   .     S
C732   H1295   1.081   .     S
C733   H738    1.083   .     S
C739   H740    1.083   .     S
C739   O741    1.218   .     D
C742   O744    1.218   .     D
C742   H743    1.083   .     S
C745   O769    1.285   .     A
C745   C756    1.426   .     S
C745   O771    1.291   .     A
C746   O772    1.291   .     A
C746   C755    1.426   .     S
C746   O770    1.285   .     A
C747   O775    1.282   .     A
C747   O773    1.284   .     A
C747   C749    1.402   .     S
C748   O774    1.284   .     A
C748   O776    1.282   .     A
C748   C750    1.402   .     S
C749   C874    1.325   1_455 S
C749   H885    1.086   1_455 S
C750   C811    1.325   .     S
C750   H824    1.086   .     S
C751   H763    1.085   .     S
C751   C756    1.397   .     A
C752   H764    1.085   .     S
C752   C755    1.397   .     A
C752   C940    1.373   .     S
C753   C755    1.411   .     A
C753   C779    1.482   .     S
C753   C937    1.373   .     S
C754   C790    1.482   .     S
C754   C756    1.411   .     A
C757   C801    1.468   .     S
C757   N768    1.384   .     A
C758   N767    1.384   .     A
C758   C804    1.468   .     S
C758   C1318   1.416   .     S
C759   N767    1.355   .     A
C759   H765    1.083   .     S
C759   C1315   1.416   .     S
C760   N768    1.355   .     A
C760   H766    1.083   .     S
H761   C811    1.086   .     S
H762   C874    1.086   1_455 S
N767   Zn777   2.021   .     S
N768   Zn778   2.021   .     S
O769   Zn777   2.011   .     S
O770   Zn778   2.011   .     S
O771   Zn778   2.002   .     S
O772   Zn777   2.002   .     S
O773   Zn777   1.979   .     S
O774   Zn778   1.979   .     S
O775   Zn778   1.980   .     S
O776   Zn777   1.980   .     S
C779   C784    1.404   .     A
C779   C780    1.404   .     A
C780   H785    1.083   .     S
C780   C781    1.398   .     A
C782   H787    1.083   .     S
C782   C1339   1.396   .     S
C782   C1341   1.397   .     S
C783   H788    1.079   .     S
C783   C784    1.399   .     A
C784   H789    1.083   .     S
H786   C1339   1.081   .     S
C790   C791    1.404   .     A
C790   C795    1.404   .     A
C791   H796    1.083   .     S
C791   C792    1.399   .     A
C792   H797    1.079   .     S
C792   C1351   1.397   .     S
C793   H798    1.083   .     S
C794   C795    1.398   .     A
C794   C1351   1.396   .     S
C794   H1357   1.081   .     S
C795   H800    1.083   .     S
C801   H802    1.083   .     S
C801   O803    1.218   .     D
C804   O806    1.218   .     D
C804   H805    1.083   .     S
C807   O831    1.285   .     A
C807   C818    1.426   .     S
C807   O833    1.291   .     A
C808   O834    1.291   .     A
C808   C817    1.426   .     S
C808   O832    1.285   .     A
C809   O837    1.282   .     A
C809   O835    1.284   .     A
C809   C811    1.402   .     S
C810   O836    1.284   .     A
C810   O838    1.282   .     A
C810   C812    1.402   .     S
C812   C873    1.325   .     S
C812   H886    1.086   .     S
C813   H825    1.085   .     S
C813   C818    1.397   .     A
C814   H826    1.085   .     S
C814   C817    1.397   .     A
C814   C1002   1.373   .     S
C815   C817    1.411   .     A
C815   C841    1.482   .     S
C815   C999    1.373   .     S
C816   C852    1.482   .     S
C816   C818    1.411   .     A
C819   C863    1.468   .     S
C819   N830    1.384   .     A
C820   N829    1.384   .     A
C820   C866    1.468   .     S
C820   C1380   1.416   .     S
C821   N829    1.355   .     A
C821   H827    1.083   .     S
C821   C1377   1.416   .     S
C822   N830    1.355   .     A
C822   H828    1.083   .     S
H823   C873    1.086   .     S
N829   Zn839   2.021   .     S
N830   Zn840   2.021   .     S
O831   Zn839   2.011   .     S
O832   Zn840   2.011   .     S
O833   Zn840   2.002   .     S
O834   Zn839   2.002   .     S
O835   Zn839   1.979   .     S
O836   Zn840   1.979   .     S
O837   Zn840   1.980   .     S
O838   Zn839   1.980   .     S
C841   C846    1.404   .     A
C841   C842    1.404   .     A
C842   H847    1.083   .     S
C842   C843    1.398   .     A
C844   H849    1.083   .     S
C844   C1401   1.396   .     S
C844   C1403   1.397   .     S
C845   H850    1.079   .     S
C845   C846    1.399   .     A
C846   H851    1.083   .     S
H848   C1401   1.081   .     S
C852   C853    1.404   .     A
C852   C857    1.404   .     A
C853   H858    1.083   .     S
C853   C854    1.399   .     A
C854   H859    1.079   .     S
C854   C1413   1.397   .     S
C855   H860    1.083   .     S
C856   C857    1.398   .     A
C856   C1413   1.396   .     S
C856   H1419   1.081   .     S
C857   H862    1.083   .     S
C863   H864    1.083   .     S
C863   O865    1.218   .     D
C866   O868    1.218   .     D
C866   H867    1.083   .     S
C869   O893    1.285   .     A
C869   C880    1.426   .     S
C869   O895    1.291   .     A
C870   O896    1.291   .     A
C870   C879    1.426   .     S
C870   O894    1.285   .     A
C871   O899    1.282   .     A
C871   O897    1.284   .     A
C871   C873    1.402   .     S
C872   O898    1.284   .     A
C872   O900    1.282   .     A
C872   C874    1.402   .     S
C874   C749    1.325   1_655 S
C874   H762    1.086   1_655 S
C875   H887    1.085   .     S
C875   C880    1.397   .     A
C876   H888    1.085   .     S
C876   C879    1.397   .     A
C876   C1064   1.373   .     S
C877   C879    1.411   .     A
C877   C903    1.482   .     S
C877   C1061   1.373   .     S
C878   C914    1.482   .     S
C878   C880    1.411   .     A
C881   C925    1.468   .     S
C881   N892    1.384   .     A
C882   N891    1.384   .     A
C882   C928    1.468   .     S
C882   C1442   1.416   .     S
C883   N891    1.355   .     A
C883   H889    1.083   .     S
C883   C1439   1.416   .     S
C884   N892    1.355   .     A
C884   H890    1.083   .     S
H885   C749    1.086   1_655 S
N891   Zn901   2.021   .     S
N892   Zn902   2.021   .     S
O893   Zn901   2.011   .     S
O894   Zn902   2.011   .     S
O895   Zn902   2.002   .     S
O896   Zn901   2.002   .     S
O897   Zn901   1.979   .     S
O898   Zn902   1.979   .     S
O899   Zn902   1.980   .     S
O900   Zn901   1.980   .     S
C903   C908    1.404   .     A
C903   C904    1.404   .     A
C904   H909    1.083   .     S
C904   C905    1.398   .     A
C906   H911    1.083   .     S
C906   C1463   1.396   .     S
C906   C1465   1.397   .     S
C907   H912    1.079   .     S
C907   C908    1.399   .     A
C908   H913    1.083   .     S
H910   C1463   1.081   .     S
C914   C915    1.404   .     A
C914   C919    1.404   .     A
C915   H920    1.083   .     S
C915   C916    1.399   .     A
C916   H921    1.079   .     S
C916   C1475   1.397   .     S
C917   H922    1.083   .     S
C918   C919    1.398   .     A
C918   C1475   1.396   .     S
C918   H1481   1.081   .     S
C919   H924    1.083   .     S
C925   H926    1.083   .     S
C925   O927    1.218   .     D
C928   O930    1.218   .     D
C928   H929    1.083   .     S
C931   O955    1.285   .     A
C931   C942    1.426   .     S
C931   O957    1.291   .     A
C932   O958    1.291   .     A
C932   C941    1.426   .     S
C932   O956    1.285   .     A
C933   O961    1.282   .     A
C933   O959    1.284   .     A
C933   C935    1.402   .     S
C934   O960    1.284   .     A
C934   O962    1.282   .     A
C934   C936    1.402   .     S
C935   C1060   1.325   1_455 S
C935   H1071   1.086   1_455 S
C936   C997    1.325   .     S
C936   H1010   1.086   .     S
C937   H949    1.085   .     S
C937   C942    1.397   .     A
C938   H950    1.085   .     S
C938   C941    1.397   .     A
C938   C568    1.373   1_565 S
C939   C941    1.411   .     A
C939   C965    1.482   .     S
C939   C565    1.373   1_565 S
C940   C976    1.482   .     S
C940   C942    1.411   .     A
C943   C987    1.468   .     S
C943   N954    1.384   .     A
C944   N953    1.384   .     A
C944   C990    1.468   .     S
C944   C1504   1.416   .     S
C945   N953    1.355   .     A
C945   H951    1.083   .     S
C945   C1501   1.416   .     S
C946   N954    1.355   .     A
C946   H952    1.083   .     S
H947   C997    1.086   .     S
H948   C1060   1.086   1_455 S
N953   Zn963   2.021   .     S
N954   Zn964   2.021   .     S
O955   Zn963   2.011   .     S
O956   Zn964   2.011   .     S
O957   Zn964   2.002   .     S
O958   Zn963   2.002   .     S
O959   Zn963   1.979   .     S
O960   Zn964   1.979   .     S
O961   Zn964   1.980   .     S
O962   Zn963   1.980   .     S
C965   C970    1.404   .     A
C965   C966    1.404   .     A
C966   H971    1.083   .     S
C966   C967    1.398   .     A
C968   H973    1.083   .     S
C968   C1525   1.396   .     S
C968   C1527   1.397   .     S
C969   H974    1.079   .     S
C969   C970    1.399   .     A
C970   H975    1.083   .     S
H972   C1525   1.081   .     S
C976   C977    1.404   .     A
C976   C981    1.404   .     A
C977   H982    1.083   .     S
C977   C978    1.399   .     A
C978   H983    1.079   .     S
C978   C1537   1.397   .     S
C979   H984    1.083   .     S
C980   C981    1.398   .     A
C980   C1537   1.396   .     S
C980   H1543   1.081   .     S
C981   H986    1.083   .     S
C987   H988    1.083   .     S
C987   O989    1.218   .     D
C990   O992    1.218   .     D
C990   H991    1.083   .     S
C993   O1017   1.285   .     A
C993   C1004   1.426   .     S
C993   O1019   1.291   .     A
C994   O1020   1.291   .     A
C994   C1003   1.426   .     S
C994   O1018   1.285   .     A
C995   O1023   1.282   .     A
C995   O1021   1.284   .     A
C995   C997    1.402   .     S
C996   O1022   1.284   .     A
C996   O1024   1.282   .     A
C996   C998    1.402   .     S
C998   C1059   1.325   .     S
C998   H1072   1.086   .     S
C999   H1011   1.085   .     S
C999   C1004   1.397   .     A
C1000  H1012   1.085   .     S
C1000  C1003   1.397   .     A
C1000  C630    1.373   1_565 S
C1001  C1003   1.411   .     A
C1001  C1027   1.482   .     S
C1001  C627    1.373   1_565 S
C1002  C1038   1.482   .     S
C1002  C1004   1.411   .     A
C1005  C1049   1.468   .     S
C1005  N1016   1.384   .     A
C1006  N1015   1.384   .     A
C1006  C1052   1.468   .     S
C1006  C1566   1.416   .     S
C1007  N1015   1.355   .     A
C1007  H1013   1.083   .     S
C1007  C1563   1.416   .     S
C1008  N1016   1.355   .     A
C1008  H1014   1.083   .     S
H1009  C1059   1.086   .     S
N1015  Zn1025  2.021   .     S
N1016  Zn1026  2.021   .     S
O1017  Zn1025  2.011   .     S
O1018  Zn1026  2.011   .     S
O1019  Zn1026  2.002   .     S
O1020  Zn1025  2.002   .     S
O1021  Zn1025  1.979   .     S
O1022  Zn1026  1.979   .     S
O1023  Zn1026  1.980   .     S
O1024  Zn1025  1.980   .     S
C1027  C1032   1.404   .     A
C1027  C1028   1.404   .     A
C1028  H1033   1.083   .     S
C1028  C1029   1.398   .     A
C1030  H1035   1.083   .     S
C1030  C1587   1.396   .     S
C1030  C1589   1.397   .     S
C1031  H1036   1.079   .     S
C1031  C1032   1.399   .     A
C1032  H1037   1.083   .     S
H1034  C1587   1.081   .     S
C1038  C1039   1.404   .     A
C1038  C1043   1.404   .     A
C1039  H1044   1.083   .     S
C1039  C1040   1.399   .     A
C1040  H1045   1.079   .     S
C1040  C1599   1.397   .     S
C1041  H1046   1.083   .     S
C1042  C1043   1.398   .     A
C1042  C1599   1.396   .     S
C1042  H1605   1.081   .     S
C1043  H1048   1.083   .     S
C1049  H1050   1.083   .     S
C1049  O1051   1.218   .     D
C1052  O1054   1.218   .     D
C1052  H1053   1.083   .     S
C1055  O1079   1.285   .     A
C1055  C1066   1.426   .     S
C1055  O1081   1.291   .     A
C1056  O1082   1.291   .     A
C1056  C1065   1.426   .     S
C1056  O1080   1.285   .     A
C1057  O1085   1.282   .     A
C1057  O1083   1.284   .     A
C1057  C1059   1.402   .     S
C1058  O1084   1.284   .     A
C1058  O1086   1.282   .     A
C1058  C1060   1.402   .     S
C1060  C935    1.325   1_655 S
C1060  H948    1.086   1_655 S
C1061  H1073   1.085   .     S
C1061  C1066   1.397   .     A
C1062  H1074   1.085   .     S
C1062  C1065   1.397   .     A
C1062  C692    1.373   1_565 S
C1063  C1065   1.411   .     A
C1063  C1089   1.482   .     S
C1063  C689    1.373   1_565 S
C1064  C1100   1.482   .     S
C1064  C1066   1.411   .     A
C1067  C1111   1.468   .     S
C1067  N1078   1.384   .     A
C1068  N1077   1.384   .     A
C1068  C1114   1.468   .     S
C1068  C1628   1.416   .     S
C1069  N1077   1.355   .     A
C1069  H1075   1.083   .     S
C1069  C1625   1.416   .     S
C1070  N1078   1.355   .     A
C1070  H1076   1.083   .     S
H1071  C935    1.086   1_655 S
N1077  Zn1087  2.021   .     S
N1078  Zn1088  2.021   .     S
O1079  Zn1087  2.011   .     S
O1080  Zn1088  2.011   .     S
O1081  Zn1088  2.002   .     S
O1082  Zn1087  2.002   .     S
O1083  Zn1087  1.979   .     S
O1084  Zn1088  1.979   .     S
O1085  Zn1088  1.980   .     S
O1086  Zn1087  1.980   .     S
C1089  C1094   1.404   .     A
C1089  C1090   1.404   .     A
C1090  H1095   1.083   .     S
C1090  C1091   1.398   .     A
C1092  H1097   1.083   .     S
C1092  C1649   1.396   .     S
C1092  C1651   1.397   .     S
C1093  H1098   1.079   .     S
C1093  C1094   1.399   .     A
C1094  H1099   1.083   .     S
H1096  C1649   1.081   .     S
C1100  C1101   1.404   .     A
C1100  C1105   1.404   .     A
C1101  H1106   1.083   .     S
C1101  C1102   1.399   .     A
C1102  H1107   1.079   .     S
C1102  C1661   1.397   .     S
C1103  H1108   1.083   .     S
C1104  C1105   1.398   .     A
C1104  C1661   1.396   .     S
C1104  H1667   1.081   .     S
C1105  H1110   1.083   .     S
C1111  H1112   1.083   .     S
C1111  O1113   1.218   .     D
C1114  O1116   1.218   .     D
C1114  H1115   1.083   .     S
C1117  O1141   1.285   .     A
C1117  C1128   1.426   .     S
C1117  O1143   1.291   .     A
C1118  O1144   1.291   .     A
C1118  C1127   1.426   .     S
C1118  O1142   1.285   .     A
C1119  O1147   1.282   .     A
C1119  O1145   1.284   .     A
C1119  C1121   1.402   .     S
C1120  O1146   1.284   .     A
C1120  O1148   1.282   .     A
C1120  C1122   1.402   .     S
C1121  C1246   1.325   1_455 S
C1121  H1257   1.086   1_455 S
C1122  C1183   1.325   .     S
C1122  H1196   1.086   .     S
C1123  H1135   1.085   .     S
C1123  C1128   1.397   .     A
C1123  C1497   1.373   1_545 S
C1124  H1136   1.085   .     S
C1124  C1127   1.397   .     A
C1124  C1312   1.373   .     S
C1125  C1127   1.411   .     A
C1125  C1151   1.482   .     S
C1125  C1309   1.373   .     S
C1126  C1162   1.482   .     S
C1126  C1128   1.411   .     A
C1126  C1496   1.373   1_545 S
C1129  C1173   1.468   .     S
C1129  N1140   1.384   .     A
C1130  N1139   1.384   .     A
C1130  C1176   1.468   .     S
C1130  C16     1.416   1_556 S
C1131  N1139   1.355   .     A
C1131  H1137   1.083   .     S
C1131  C13     1.416   1_556 S
C1132  N1140   1.355   .     A
C1132  H1138   1.083   .     S
H1133  C1183   1.086   .     S
H1134  C1246   1.086   1_455 S
N1139  Zn1149  2.021   .     S
N1140  Zn1150  2.021   .     S
O1141  Zn1149  2.011   .     S
O1142  Zn1150  2.011   .     S
O1143  Zn1150  2.002   .     S
O1144  Zn1149  2.002   .     S
O1145  Zn1149  1.979   .     S
O1146  Zn1150  1.979   .     S
O1147  Zn1150  1.980   .     S
O1148  Zn1149  1.980   .     S
C1151  C1156   1.404   .     A
C1151  C1152   1.404   .     A
C1152  H1157   1.083   .     S
C1152  C1153   1.398   .     A
C1154  H1159   1.083   .     S
C1154  C37     1.396   1_556 S
C1154  C39     1.397   1_556 S
C1155  H1160   1.079   .     S
C1155  C1156   1.399   .     A
C1156  H1161   1.083   .     S
H1158  C37     1.081   1_556 S
C1162  C1163   1.404   .     A
C1162  C1167   1.404   .     A
C1163  H1168   1.083   .     S
C1163  C1164   1.399   .     A
C1164  H1169   1.079   .     S
C1164  C49     1.397   1_556 S
C1165  H1170   1.083   .     S
C1166  C1167   1.398   .     A
C1166  C49     1.396   1_556 S
C1166  H55     1.081   1_556 S
C1167  H1172   1.083   .     S
C1173  H1174   1.083   .     S
C1173  O1175   1.218   .     D
C1176  O1178   1.218   .     D
C1176  H1177   1.083   .     S
C1179  O1203   1.285   .     A
C1179  C1190   1.426   .     S
C1179  O1205   1.291   .     A
C1180  O1206   1.291   .     A
C1180  C1189   1.426   .     S
C1180  O1204   1.285   .     A
C1181  O1209   1.282   .     A
C1181  O1207   1.284   .     A
C1181  C1183   1.402   .     S
C1182  O1208   1.284   .     A
C1182  O1210   1.282   .     A
C1182  C1184   1.402   .     S
C1184  C1245   1.325   .     S
C1184  H1258   1.086   .     S
C1185  H1197   1.085   .     S
C1185  C1190   1.397   .     A
C1185  C1559   1.373   1_545 S
C1186  H1198   1.085   .     S
C1186  C1189   1.397   .     A
C1186  C1374   1.373   .     S
C1187  C1189   1.411   .     A
C1187  C1213   1.482   .     S
C1187  C1371   1.373   .     S
C1188  C1224   1.482   .     S
C1188  C1190   1.411   .     A
C1188  C1558   1.373   1_545 S
C1191  C1235   1.468   .     S
C1191  N1202   1.384   .     A
C1192  N1201   1.384   .     A
C1192  C1238   1.468   .     S
C1192  C78     1.416   1_556 S
C1193  N1201   1.355   .     A
C1193  H1199   1.083   .     S
C1193  C75     1.416   1_556 S
C1194  N1202   1.355   .     A
C1194  H1200   1.083   .     S
H1195  C1245   1.086   .     S
N1201  Zn1211  2.021   .     S
N1202  Zn1212  2.021   .     S
O1203  Zn1211  2.011   .     S
O1204  Zn1212  2.011   .     S
O1205  Zn1212  2.002   .     S
O1206  Zn1211  2.002   .     S
O1207  Zn1211  1.979   .     S
O1208  Zn1212  1.979   .     S
O1209  Zn1212  1.980   .     S
O1210  Zn1211  1.980   .     S
C1213  C1218   1.404   .     A
C1213  C1214   1.404   .     A
C1214  H1219   1.083   .     S
C1214  C1215   1.398   .     A
C1216  H1221   1.083   .     S
C1216  C99     1.396   1_556 S
C1216  C101    1.397   1_556 S
C1217  H1222   1.079   .     S
C1217  C1218   1.399   .     A
C1218  H1223   1.083   .     S
H1220  C99     1.081   1_556 S
C1224  C1225   1.404   .     A
C1224  C1229   1.404   .     A
C1225  H1230   1.083   .     S
C1225  C1226   1.399   .     A
C1226  H1231   1.079   .     S
C1226  C111    1.397   1_556 S
C1227  H1232   1.083   .     S
C1228  C1229   1.398   .     A
C1228  C111    1.396   1_556 S
C1228  H117    1.081   1_556 S
C1229  H1234   1.083   .     S
C1235  H1236   1.083   .     S
C1235  O1237   1.218   .     D
C1238  O1240   1.218   .     D
C1238  H1239   1.083   .     S
C1241  O1265   1.285   .     A
C1241  C1252   1.426   .     S
C1241  O1267   1.291   .     A
C1242  O1268   1.291   .     A
C1242  C1251   1.426   .     S
C1242  O1266   1.285   .     A
C1243  O1271   1.282   .     A
C1243  O1269   1.284   .     A
C1243  C1245   1.402   .     S
C1244  O1270   1.284   .     A
C1244  O1272   1.282   .     A
C1244  C1246   1.402   .     S
C1246  C1121   1.325   1_655 S
C1246  H1134   1.086   1_655 S
C1247  H1259   1.085   .     S
C1247  C1252   1.397   .     A
C1247  C1621   1.373   1_545 S
C1248  H1260   1.085   .     S
C1248  C1251   1.397   .     A
C1248  C1436   1.373   .     S
C1249  C1251   1.411   .     A
C1249  C1275   1.482   .     S
C1249  C1433   1.373   .     S
C1250  C1286   1.482   .     S
C1250  C1252   1.411   .     A
C1250  C1620   1.373   1_545 S
C1253  C1297   1.468   .     S
C1253  N1264   1.384   .     A
C1254  N1263   1.384   .     A
C1254  C1300   1.468   .     S
C1254  C140    1.416   1_556 S
C1255  N1263   1.355   .     A
C1255  H1261   1.083   .     S
C1255  C137    1.416   1_556 S
C1256  N1264   1.355   .     A
C1256  H1262   1.083   .     S
H1257  C1121   1.086   1_655 S
N1263  Zn1273  2.021   .     S
N1264  Zn1274  2.021   .     S
O1265  Zn1273  2.011   .     S
O1266  Zn1274  2.011   .     S
O1267  Zn1274  2.002   .     S
O1268  Zn1273  2.002   .     S
O1269  Zn1273  1.979   .     S
O1270  Zn1274  1.979   .     S
O1271  Zn1274  1.980   .     S
O1272  Zn1273  1.980   .     S
C1275  C1280   1.404   .     A
C1275  C1276   1.404   .     A
C1276  H1281   1.083   .     S
C1276  C1277   1.398   .     A
C1278  H1283   1.083   .     S
C1278  C161    1.396   1_556 S
C1278  C163    1.397   1_556 S
C1279  H1284   1.079   .     S
C1279  C1280   1.399   .     A
C1280  H1285   1.083   .     S
H1282  C161    1.081   1_556 S
C1286  C1287   1.404   .     A
C1286  C1291   1.404   .     A
C1287  H1292   1.083   .     S
C1287  C1288   1.399   .     A
C1288  H1293   1.079   .     S
C1288  C173    1.397   1_556 S
C1289  H1294   1.083   .     S
C1290  C1291   1.398   .     A
C1290  C173    1.396   1_556 S
C1290  H179    1.081   1_556 S
C1291  H1296   1.083   .     S
C1297  H1298   1.083   .     S
C1297  O1299   1.218   .     D
C1300  O1302   1.218   .     D
C1300  H1301   1.083   .     S
C1303  O1327   1.285   .     A
C1303  C1314   1.426   .     S
C1303  O1329   1.291   .     A
C1304  O1330   1.291   .     A
C1304  C1313   1.426   .     S
C1304  O1328   1.285   .     A
C1305  O1333   1.282   .     A
C1305  O1331   1.284   .     A
C1305  C1307   1.402   .     S
C1306  O1332   1.284   .     A
C1306  O1334   1.282   .     A
C1306  C1308   1.402   .     S
C1307  C1432   1.325   1_455 S
C1307  H1443   1.086   1_455 S
C1308  C1369   1.325   .     S
C1308  H1382   1.086   .     S
C1309  H1321   1.085   .     S
C1309  C1314   1.397   .     A
C1310  H1322   1.085   .     S
C1310  C1313   1.397   .     A
C1310  C1498   1.373   .     S
C1311  C1313   1.411   .     A
C1311  C1337   1.482   .     S
C1311  C1495   1.373   .     S
C1312  C1348   1.482   .     S
C1312  C1314   1.411   .     A
C1315  C1359   1.468   .     S
C1315  N1326   1.384   .     A
C1316  N1325   1.384   .     A
C1316  C1362   1.468   .     S
C1316  C202    1.416   1_556 S
C1317  N1325   1.355   .     A
C1317  H1323   1.083   .     S
C1317  C199    1.416   1_556 S
C1318  N1326   1.355   .     A
C1318  H1324   1.083   .     S
H1319  C1369   1.086   .     S
H1320  C1432   1.086   1_455 S
N1325  Zn1335  2.021   .     S
N1326  Zn1336  2.021   .     S
O1327  Zn1335  2.011   .     S
O1328  Zn1336  2.011   .     S
O1329  Zn1336  2.002   .     S
O1330  Zn1335  2.002   .     S
O1331  Zn1335  1.979   .     S
O1332  Zn1336  1.979   .     S
O1333  Zn1336  1.980   .     S
O1334  Zn1335  1.980   .     S
C1337  C1342   1.404   .     A
C1337  C1338   1.404   .     A
C1338  H1343   1.083   .     S
C1338  C1339   1.398   .     A
C1340  H1345   1.083   .     S
C1340  C223    1.396   1_556 S
C1340  C225    1.397   1_556 S
C1341  H1346   1.079   .     S
C1341  C1342   1.399   .     A
C1342  H1347   1.083   .     S
H1344  C223    1.081   1_556 S
C1348  C1349   1.404   .     A
C1348  C1353   1.404   .     A
C1349  H1354   1.083   .     S
C1349  C1350   1.399   .     A
C1350  H1355   1.079   .     S
C1350  C235    1.397   1_556 S
C1351  H1356   1.083   .     S
C1352  C1353   1.398   .     A
C1352  C235    1.396   1_556 S
C1352  H241    1.081   1_556 S
C1353  H1358   1.083   .     S
C1359  H1360   1.083   .     S
C1359  O1361   1.218   .     D
C1362  O1364   1.218   .     D
C1362  H1363   1.083   .     S
C1365  O1389   1.285   .     A
C1365  C1376   1.426   .     S
C1365  O1391   1.291   .     A
C1366  O1392   1.291   .     A
C1366  C1375   1.426   .     S
C1366  O1390   1.285   .     A
C1367  O1395   1.282   .     A
C1367  O1393   1.284   .     A
C1367  C1369   1.402   .     S
C1368  O1394   1.284   .     A
C1368  O1396   1.282   .     A
C1368  C1370   1.402   .     S
C1370  C1431   1.325   .     S
C1370  H1444   1.086   .     S
C1371  H1383   1.085   .     S
C1371  C1376   1.397   .     A
C1372  H1384   1.085   .     S
C1372  C1375   1.397   .     A
C1372  C1560   1.373   .     S
C1373  C1375   1.411   .     A
C1373  C1399   1.482   .     S
C1373  C1557   1.373   .     S
C1374  C1410   1.482   .     S
C1374  C1376   1.411   .     A
C1377  C1421   1.468   .     S
C1377  N1388   1.384   .     A
C1378  N1387   1.384   .     A
C1378  C1424   1.468   .     S
C1378  C264    1.416   1_556 S
C1379  N1387   1.355   .     A
C1379  H1385   1.083   .     S
C1379  C261    1.416   1_556 S
C1380  N1388   1.355   .     A
C1380  H1386   1.083   .     S
H1381  C1431   1.086   .     S
N1387  Zn1397  2.021   .     S
N1388  Zn1398  2.021   .     S
O1389  Zn1397  2.011   .     S
O1390  Zn1398  2.011   .     S
O1391  Zn1398  2.002   .     S
O1392  Zn1397  2.002   .     S
O1393  Zn1397  1.979   .     S
O1394  Zn1398  1.979   .     S
O1395  Zn1398  1.980   .     S
O1396  Zn1397  1.980   .     S
C1399  C1404   1.404   .     A
C1399  C1400   1.404   .     A
C1400  H1405   1.083   .     S
C1400  C1401   1.398   .     A
C1402  H1407   1.083   .     S
C1402  C285    1.396   1_556 S
C1402  C287    1.397   1_556 S
C1403  H1408   1.079   .     S
C1403  C1404   1.399   .     A
C1404  H1409   1.083   .     S
H1406  C285    1.081   1_556 S
C1410  C1411   1.404   .     A
C1410  C1415   1.404   .     A
C1411  H1416   1.083   .     S
C1411  C1412   1.399   .     A
C1412  H1417   1.079   .     S
C1412  C297    1.397   1_556 S
C1413  H1418   1.083   .     S
C1414  C1415   1.398   .     A
C1414  C297    1.396   1_556 S
C1414  H303    1.081   1_556 S
C1415  H1420   1.083   .     S
C1421  H1422   1.083   .     S
C1421  O1423   1.218   .     D
C1424  O1426   1.218   .     D
C1424  H1425   1.083   .     S
C1427  O1451   1.285   .     A
C1427  C1438   1.426   .     S
C1427  O1453   1.291   .     A
C1428  O1454   1.291   .     A
C1428  C1437   1.426   .     S
C1428  O1452   1.285   .     A
C1429  O1457   1.282   .     A
C1429  O1455   1.284   .     A
C1429  C1431   1.402   .     S
C1430  O1456   1.284   .     A
C1430  O1458   1.282   .     A
C1430  C1432   1.402   .     S
C1432  C1307   1.325   1_655 S
C1432  H1320   1.086   1_655 S
C1433  H1445   1.085   .     S
C1433  C1438   1.397   .     A
C1434  H1446   1.085   .     S
C1434  C1437   1.397   .     A
C1434  C1622   1.373   .     S
C1435  C1437   1.411   .     A
C1435  C1461   1.482   .     S
C1435  C1619   1.373   .     S
C1436  C1472   1.482   .     S
C1436  C1438   1.411   .     A
C1439  C1483   1.468   .     S
C1439  N1450   1.384   .     A
C1440  N1449   1.384   .     A
C1440  C1486   1.468   .     S
C1440  C326    1.416   1_556 S
C1441  N1449   1.355   .     A
C1441  H1447   1.083   .     S
C1441  C323    1.416   1_556 S
C1442  N1450   1.355   .     A
C1442  H1448   1.083   .     S
H1443  C1307   1.086   1_655 S
N1449  Zn1459  2.021   .     S
N1450  Zn1460  2.021   .     S
O1451  Zn1459  2.011   .     S
O1452  Zn1460  2.011   .     S
O1453  Zn1460  2.002   .     S
O1454  Zn1459  2.002   .     S
O1455  Zn1459  1.979   .     S
O1456  Zn1460  1.979   .     S
O1457  Zn1460  1.980   .     S
O1458  Zn1459  1.980   .     S
C1461  C1466   1.404   .     A
C1461  C1462   1.404   .     A
C1462  H1467   1.083   .     S
C1462  C1463   1.398   .     A
C1464  H1469   1.083   .     S
C1464  C347    1.396   1_556 S
C1464  C349    1.397   1_556 S
C1465  H1470   1.079   .     S
C1465  C1466   1.399   .     A
C1466  H1471   1.083   .     S
H1468  C347    1.081   1_556 S
C1472  C1473   1.404   .     A
C1472  C1477   1.404   .     A
C1473  H1478   1.083   .     S
C1473  C1474   1.399   .     A
C1474  H1479   1.079   .     S
C1474  C359    1.397   1_556 S
C1475  H1480   1.083   .     S
C1476  C1477   1.398   .     A
C1476  C359    1.396   1_556 S
C1476  H365    1.081   1_556 S
C1477  H1482   1.083   .     S
C1483  H1484   1.083   .     S
C1483  O1485   1.218   .     D
C1486  O1488   1.218   .     D
C1486  H1487   1.083   .     S
C1489  O1513   1.285   .     A
C1489  C1500   1.426   .     S
C1489  O1515   1.291   .     A
C1490  O1516   1.291   .     A
C1490  C1499   1.426   .     S
C1490  O1514   1.285   .     A
C1491  O1519   1.282   .     A
C1491  O1517   1.284   .     A
C1491  C1493   1.402   .     S
C1492  O1518   1.284   .     A
C1492  O1520   1.282   .     A
C1492  C1494   1.402   .     S
C1493  C1618   1.325   1_455 S
C1493  H1629   1.086   1_455 S
C1494  C1555   1.325   .     S
C1494  H1568   1.086   .     S
C1495  H1507   1.085   .     S
C1495  C1500   1.397   .     A
C1496  H1508   1.085   .     S
C1496  C1499   1.397   .     A
C1496  C1126   1.373   1_565 S
C1497  C1499   1.411   .     A
C1497  C1523   1.482   .     S
C1497  C1123   1.373   1_565 S
C1498  C1534   1.482   .     S
C1498  C1500   1.411   .     A
C1501  C1545   1.468   .     S
C1501  N1512   1.384   .     A
C1502  N1511   1.384   .     A
C1502  C1548   1.468   .     S
C1502  C388    1.416   1_556 S
C1503  N1511   1.355   .     A
C1503  H1509   1.083   .     S
C1503  C385    1.416   1_556 S
C1504  N1512   1.355   .     A
C1504  H1510   1.083   .     S
H1505  C1555   1.086   .     S
H1506  C1618   1.086   1_455 S
N1511  Zn1521  2.021   .     S
N1512  Zn1522  2.021   .     S
O1513  Zn1521  2.011   .     S
O1514  Zn1522  2.011   .     S
O1515  Zn1522  2.002   .     S
O1516  Zn1521  2.002   .     S
O1517  Zn1521  1.979   .     S
O1518  Zn1522  1.979   .     S
O1519  Zn1522  1.980   .     S
O1520  Zn1521  1.980   .     S
C1523  C1528   1.404   .     A
C1523  C1524   1.404   .     A
C1524  H1529   1.083   .     S
C1524  C1525   1.398   .     A
C1526  H1531   1.083   .     S
C1526  C409    1.396   1_556 S
C1526  C411    1.397   1_556 S
C1527  H1532   1.079   .     S
C1527  C1528   1.399   .     A
C1528  H1533   1.083   .     S
H1530  C409    1.081   1_556 S
C1534  C1535   1.404   .     A
C1534  C1539   1.404   .     A
C1535  H1540   1.083   .     S
C1535  C1536   1.399   .     A
C1536  H1541   1.079   .     S
C1536  C421    1.397   1_556 S
C1537  H1542   1.083   .     S
C1538  C1539   1.398   .     A
C1538  C421    1.396   1_556 S
C1538  H427    1.081   1_556 S
C1539  H1544   1.083   .     S
C1545  H1546   1.083   .     S
C1545  O1547   1.218   .     D
C1548  O1550   1.218   .     D
C1548  H1549   1.083   .     S
C1551  O1575   1.285   .     A
C1551  C1562   1.426   .     S
C1551  O1577   1.291   .     A
C1552  O1578   1.291   .     A
C1552  C1561   1.426   .     S
C1552  O1576   1.285   .     A
C1553  O1581   1.282   .     A
C1553  O1579   1.284   .     A
C1553  C1555   1.402   .     S
C1554  O1580   1.284   .     A
C1554  O1582   1.282   .     A
C1554  C1556   1.402   .     S
C1556  C1617   1.325   .     S
C1556  H1630   1.086   .     S
C1557  H1569   1.085   .     S
C1557  C1562   1.397   .     A
C1558  H1570   1.085   .     S
C1558  C1561   1.397   .     A
C1558  C1188   1.373   1_565 S
C1559  C1561   1.411   .     A
C1559  C1585   1.482   .     S
C1559  C1185   1.373   1_565 S
C1560  C1596   1.482   .     S
C1560  C1562   1.411   .     A
C1563  C1607   1.468   .     S
C1563  N1574   1.384   .     A
C1564  N1573   1.384   .     A
C1564  C1610   1.468   .     S
C1564  C450    1.416   1_556 S
C1565  N1573   1.355   .     A
C1565  H1571   1.083   .     S
C1565  C447    1.416   1_556 S
C1566  N1574   1.355   .     A
C1566  H1572   1.083   .     S
H1567  C1617   1.086   .     S
N1573  Zn1583  2.021   .     S
N1574  Zn1584  2.021   .     S
O1575  Zn1583  2.011   .     S
O1576  Zn1584  2.011   .     S
O1577  Zn1584  2.002   .     S
O1578  Zn1583  2.002   .     S
O1579  Zn1583  1.979   .     S
O1580  Zn1584  1.979   .     S
O1581  Zn1584  1.980   .     S
O1582  Zn1583  1.980   .     S
C1585  C1590   1.404   .     A
C1585  C1586   1.404   .     A
C1586  H1591   1.083   .     S
C1586  C1587   1.398   .     A
C1588  H1593   1.083   .     S
C1588  C471    1.396   1_556 S
C1588  C473    1.397   1_556 S
C1589  H1594   1.079   .     S
C1589  C1590   1.399   .     A
C1590  H1595   1.083   .     S
H1592  C471    1.081   1_556 S
C1596  C1597   1.404   .     A
C1596  C1601   1.404   .     A
C1597  H1602   1.083   .     S
C1597  C1598   1.399   .     A
C1598  H1603   1.079   .     S
C1598  C483    1.397   1_556 S
C1599  H1604   1.083   .     S
C1600  C1601   1.398   .     A
C1600  C483    1.396   1_556 S
C1600  H489    1.081   1_556 S
C1601  H1606   1.083   .     S
C1607  H1608   1.083   .     S
C1607  O1609   1.218   .     D
C1610  O1612   1.218   .     D
C1610  H1611   1.083   .     S
C1613  O1637   1.285   .     A
C1613  C1624   1.426   .     S
C1613  O1639   1.291   .     A
C1614  O1640   1.291   .     A
C1614  C1623   1.426   .     S
C1614  O1638   1.285   .     A
C1615  O1643   1.282   .     A
C1615  O1641   1.284   .     A
C1615  C1617   1.402   .     S
C1616  O1642   1.284   .     A
C1616  O1644   1.282   .     A
C1616  C1618   1.402   .     S
C1618  C1493   1.325   1_655 S
C1618  H1506   1.086   1_655 S
C1619  H1631   1.085   .     S
C1619  C1624   1.397   .     A
C1620  H1632   1.085   .     S
C1620  C1623   1.397   .     A
C1620  C1250   1.373   1_565 S
C1621  C1623   1.411   .     A
C1621  C1647   1.482   .     S
C1621  C1247   1.373   1_565 S
C1622  C1658   1.482   .     S
C1622  C1624   1.411   .     A
C1625  C1669   1.468   .     S
C1625  N1636   1.384   .     A
C1626  N1635   1.384   .     A
C1626  C1672   1.468   .     S
C1626  C512    1.416   1_556 S
C1627  N1635   1.355   .     A
C1627  H1633   1.083   .     S
C1627  C509    1.416   1_556 S
C1628  N1636   1.355   .     A
C1628  H1634   1.083   .     S
H1629  C1493   1.086   1_655 S
N1635  Zn1645  2.021   .     S
N1636  Zn1646  2.021   .     S
O1637  Zn1645  2.011   .     S
O1638  Zn1646  2.011   .     S
O1639  Zn1646  2.002   .     S
O1640  Zn1645  2.002   .     S
O1641  Zn1645  1.979   .     S
O1642  Zn1646  1.979   .     S
O1643  Zn1646  1.980   .     S
O1644  Zn1645  1.980   .     S
C1647  C1652   1.404   .     A
C1647  C1648   1.404   .     A
C1648  H1653   1.083   .     S
C1648  C1649   1.398   .     A
C1650  H1655   1.083   .     S
C1650  C533    1.396   1_556 S
C1650  C535    1.397   1_556 S
C1651  H1656   1.079   .     S
C1651  C1652   1.399   .     A
C1652  H1657   1.083   .     S
H1654  C533    1.081   1_556 S
C1658  C1659   1.404   .     A
C1658  C1663   1.404   .     A
C1659  H1664   1.083   .     S
C1659  C1660   1.399   .     A
C1660  H1665   1.079   .     S
C1660  C545    1.397   1_556 S
C1661  H1666   1.083   .     S
C1662  C1663   1.398   .     A
C1662  C545    1.396   1_556 S
C1662  H551    1.081   1_556 S
C1663  H1668   1.083   .     S
C1669  H1670   1.083   .     S
C1669  O1671   1.218   .     D
C1672  O1674   1.218   .     D
C1672  H1673   1.083   .     S
