data_str_m2_o2_o10_pcu_sym.205
_audit_creation_date              2020-01-03
_audit_creation_method            'Materials Studio'
_symmetry_space_group_name_H-M    'P1'
_symmetry_Int_Tables_number       1
_symmetry_cell_setting            triclinic
loop_
_symmetry_equiv_pos_as_xyz
  x,y,z
_cell_length_a                    26.2516
_cell_length_b                    30.3346
_cell_length_c                    27.9248
_cell_angle_alpha                 89.4724
_cell_angle_beta                  96.0326
_cell_angle_gamma                 93.4642
loop_
_atom_site_label
_atom_site_type_symbol
_atom_site_fract_x
_atom_site_fract_y
_atom_site_fract_z
_atom_site_U_iso_or_equiv
_atom_site_adp_type
_atom_site_occupancy
O1     O     0.16667   0.18573   0.29072   0.00000  Uiso   1.00
O2     O     0.16666   0.31428   0.20928   0.00000  Uiso   1.00
O3     O     0.16667   0.18573   0.20928   0.00000  Uiso   1.00
O4     O     0.16666   0.31427   0.29072   0.00000  Uiso   1.00
C5     C     0.17369   0.16587   0.25072   0.00000  Uiso   1.00
C6     C     0.16305   0.33491   0.24945   0.00000  Uiso   1.00
O7     O     0.09161   0.25000   0.28132   0.00000  Uiso   1.00
O8     O     0.24172   0.25001   0.21868   0.00000  Uiso   1.00
O9     O     0.09161   0.25000   0.19988   0.00000  Uiso   1.00
O10    O     0.24172   0.25000   0.30012   0.00000  Uiso   1.00
C11    C     0.06812   0.24821   0.23826   0.00000  Uiso   1.00
C12    C     0.26522   0.25186   0.26177   0.00000  Uiso   1.00
Cu13   Cu    0.16667   0.25000   0.29822   0.00000  Uiso   1.00
Cu14   Cu    0.16667   0.25001   0.20178   0.00000  Uiso   1.00
C15    C     0.01317   0.24294   0.23297   0.00000  Uiso   1.00
C16    C     0.32020   0.25709   0.26723   0.00000  Uiso   1.00
H17    H     0.32749   0.22642   0.20112   0.00000  Uiso   1.00
H18    H     0.00585   0.27294   0.29956   0.00000  Uiso   1.00
C19    C     0.17407   0.04972   0.29503   0.00000  Uiso   1.00
C20    C     0.14873   0.45421   0.20688   0.00000  Uiso   1.00
C21    C     0.18788   0.09515   0.29587   0.00000  Uiso   1.00
C22    C     0.14567   0.40772   0.20586   0.00000  Uiso   1.00
C23    C     0.18601   0.11866   0.25201   0.00000  Uiso   1.00
C24    C     0.15809   0.38349   0.24898   0.00000  Uiso   1.00
C25    C     0.19378   0.09520   0.21012   0.00000  Uiso   1.00
C26    C     0.16705   0.40697   0.29267   0.00000  Uiso   1.00
C27    C     0.19401   0.04922   0.21210   0.00000  Uiso   1.00
C28    C     0.18386   0.45132   0.29051   0.00000  Uiso   1.00
H29    H     0.20427   0.03180   0.18121   0.00000  Uiso   1.00
H30    H     0.20187   0.46731   0.32272   0.00000  Uiso   1.00
C31    C     0.17858   0.02572   0.25218   0.00000  Uiso   1.00
C32    C     0.17084   0.47652   0.24926   0.00000  Uiso   1.00
C33    C     0.21181   0.25926   0.05802   0.00000  Uiso   1.00
C34    C     0.14911   0.21245   0.44504   0.00000  Uiso   1.00
C35    C     0.20882   0.26588   0.10755   0.00000  Uiso   1.00
C36    C     0.14274   0.21549   0.39398   0.00000  Uiso   1.00
N37    N     0.16667   0.25001   0.12934   0.00000  Uiso   1.00
N38    N     0.16667   0.24999   0.37066   0.00000  Uiso   1.00
C39    C     0.12425   0.23384   0.10098   0.00000  Uiso   1.00
C40    C     0.18995   0.28455   0.39715   0.00000  Uiso   1.00
H41    H     0.09076   0.22187   0.11772   0.00000  Uiso   1.00
H42    H     0.20762   0.31184   0.37847   0.00000  Uiso   1.00
C43    C     0.12182   0.23506   0.05003   0.00000  Uiso   1.00
C44    C     0.18854   0.28672   0.44782   0.00000  Uiso   1.00
C45    C     0.16685   0.24755   0.02735   0.00000  Uiso   1.00
C46    C     0.16751   0.24957   0.47266   0.00000  Uiso   1.00
C47    C     0.14899   0.03032   0.33657   0.00000  Uiso   1.00
C48    C     0.09955   0.00935   0.32875   0.00000  Uiso   1.00
C49    C     0.07403   0.49375   0.36761   0.00000  Uiso   1.00
C50    C     0.09758   0.49884   0.41461   0.00000  Uiso   1.00
C51    C     0.14729   0.01832   0.42276   0.00000  Uiso   1.00
C52    C     0.17309   0.03371   0.38400   0.00000  Uiso   1.00
H53    H     0.08021   0.00612   0.29266   0.00000  Uiso   1.00
H54    H     0.03579   0.47808   0.36129   0.00000  Uiso   1.00
H55    H     0.07768   0.48694   0.44468   0.00000  Uiso   1.00
H56    H     0.16591   0.02139   0.45914   0.00000  Uiso   1.00
H57    H     0.21188   0.04806   0.39111   0.00000  Uiso   1.00
C58    C     0.12424   0.47795   0.16459   0.00000  Uiso   1.00
C59    C     0.08017   0.00111   0.16867   0.00000  Uiso   1.00
C60    C     0.05549   0.02144   0.12823   0.00000  Uiso   1.00
C61    C     0.07468   0.01885   0.08354   0.00000  Uiso   1.00
C62    C     0.11872   0.49611   0.07927   0.00000  Uiso   1.00
C63    C     0.14339   0.47564   0.11958   0.00000  Uiso   1.00
H64    H     0.06460   0.00291   0.20294   0.00000  Uiso   1.00
H65    H     0.02145   0.03914   0.13151   0.00000  Uiso   1.00
H66    H     0.05559   0.03467   0.05230   0.00000  Uiso   1.00
H67    H     0.13367   0.49426   0.04471   0.00000  Uiso   1.00
H68    H     0.17752   0.45817   0.11595   0.00000  Uiso   1.00
O69    O     0.20517   0.11495   0.33927   0.00000  Uiso   1.00
H70    H     0.22675   0.14191   0.33334   0.00000  Uiso   1.00
O71    O     0.12589   0.38763   0.16329   0.00000  Uiso   1.00
H72    H     0.10746   0.35975   0.17104   0.00000  Uiso   1.00
C73    C     0.20456   0.11698   0.16444   0.00000  Uiso   1.00
C74    C     0.16912   0.11144   0.12341   0.00000  Uiso   1.00
C75    C     0.18064   0.12920   0.07924   0.00000  Uiso   1.00
C76    C     0.22764   0.15251   0.07575   0.00000  Uiso   1.00
C77    C     0.26301   0.15850   0.11657   0.00000  Uiso   1.00
C78    C     0.25151   0.14091   0.16093   0.00000  Uiso   1.00
H79    H     0.13272   0.09333   0.12574   0.00000  Uiso   1.00
H80    H     0.15323   0.12457   0.04771   0.00000  Uiso   1.00
H81    H     0.23650   0.16605   0.04142   0.00000  Uiso   1.00
H82    H     0.29953   0.17632   0.11370   0.00000  Uiso   1.00
H83    H     0.27942   0.14517   0.19224   0.00000  Uiso   1.00
C84    C     0.14380   0.39122   0.33698   0.00000  Uiso   1.00
C85    C     0.09606   0.36654   0.33254   0.00000  Uiso   1.00
C86    C     0.06976   0.35726   0.37277   0.00000  Uiso   1.00
C87    C     0.08914   0.37443   0.41757   0.00000  Uiso   1.00
C88    C     0.13542   0.39990   0.42227   0.00000  Uiso   1.00
C89    C     0.16361   0.40689   0.38291   0.00000  Uiso   1.00
H90    H     0.07820   0.35540   0.29768   0.00000  Uiso   1.00
H91    H     0.03344   0.33807   0.36887   0.00000  Uiso   1.00
H92    H     0.06795   0.36860   0.44846   0.00000  Uiso   1.00
H93    H     0.14917   0.41509   0.45638   0.00000  Uiso   1.00
H94    H     0.19983   0.42604   0.38833   0.00000  Uiso   1.00
O95    O     0.25884   0.26700   0.04061   0.00000  Uiso   1.00
H96    H     0.25854   0.25045   0.01036   0.00000  Uiso   1.00
O97    O     0.13516   0.17431   0.46891   0.00000  Uiso   1.00
H98    H     0.13980   0.14865   0.44869   0.00000  Uiso   1.00
C99    C     0.24848   0.29672   0.13221   0.00000  Uiso   1.00
C100   C     0.23579   0.33955   0.14267   0.00000  Uiso   1.00
C101   C     0.27367   0.37133   0.16033   0.00000  Uiso   1.00
C102   C     0.32510   0.36116   0.16524   0.00000  Uiso   1.00
C103   C     0.00501   0.31943   0.15179   0.00000  Uiso   1.00
C104   C     0.30036   0.28743   0.13540   0.00000  Uiso   1.00
H105   H     0.19673   0.34873   0.13515   0.00000  Uiso   1.00
H106   H     0.26327   0.40414   0.16883   0.00000  Uiso   1.00
H107   H     0.02123   0.38593   0.17824   0.00000  Uiso   1.00
H108   H     0.04453   0.31148   0.15339   0.00000  Uiso   1.00
H109   H     0.31154   0.25577   0.12395   0.00000  Uiso   1.00
C110   C     0.09808   0.18951   0.36923   0.00000  Uiso   1.00
C111   C     0.09868   0.14394   0.36129   0.00000  Uiso   1.00
C112   C     0.05441   0.11957   0.34250   0.00000  Uiso   1.00
C113   C     0.00806   0.13965   0.33468   0.00000  Uiso   1.00
C114   C     0.00591   0.18399   0.34641   0.00000  Uiso   1.00
C115   C     0.05078   0.20905   0.36268   0.00000  Uiso   1.00
H116   H     0.13218   0.12661   0.37226   0.00000  Uiso   1.00
H117   H     0.05541   0.08476   0.33576   0.00000  Uiso   1.00
H118   H     0.30713   0.12036   0.32092   0.00000  Uiso   1.00
H119   H     0.30273   0.19878   0.34349   0.00000  Uiso   1.00
H120   H     0.04859   0.24349   0.37161   0.00000  Uiso   1.00
C121   C     0.07182   0.22296   0.02205   0.00000  Uiso   1.00
C122   C     0.04979   0.25195   0.48734   0.00000  Uiso   1.00
C123   C     0.00433   0.23898   0.45905   0.00000  Uiso   1.00
C124   C     0.31394   0.19707   0.46503   0.00000  Uiso   1.00
C125   C     0.00156   0.16851   0.00028   0.00000  Uiso   1.00
C126   C     0.04668   0.18149   0.02905   0.00000  Uiso   1.00
H127   H     0.06808   0.28428   0.48181   0.00000  Uiso   1.00
H128   H     0.32099   0.26125   0.43212   0.00000  Uiso   1.00
H129   H     0.27893   0.18703   0.44281   0.00000  Uiso   1.00
H130   H     0.31629   0.13620   0.00518   0.00000  Uiso   1.00
H131   H     0.06288   0.15868   0.05571   0.00000  Uiso   1.00
C132   C     0.21090   0.32739   0.47360   0.00000  Uiso   1.00
C133   C     0.18524   0.34693   0.00903   0.00000  Uiso   1.00
C134   C     0.20758   0.38394   0.03438   0.00000  Uiso   1.00
C135   C     0.25552   0.40209   0.02458   0.00000  Uiso   1.00
C136   C     0.28115   0.38339   0.48915   0.00000  Uiso   1.00
C137   C     0.25904   0.34632   0.46371   0.00000  Uiso   1.00
H138   H     0.14760   0.33400   0.01664   0.00000  Uiso   1.00
H139   H     0.18738   0.39874   0.06134   0.00000  Uiso   1.00
H140   H     0.27271   0.43074   0.04431   0.00000  Uiso   1.00
H141   H     0.31830   0.39751   0.48152   0.00000  Uiso   1.00
H142   H     0.28000   0.33200   0.43695   0.00000  Uiso   1.00
O143   O     0.50000   0.18573   0.29072   0.00000  Uiso   1.00
O144   O     0.50000   0.31428   0.20928   0.00000  Uiso   1.00
O145   O     0.50000   0.18573   0.20928   0.00000  Uiso   1.00
O146   O     0.50000   0.31427   0.29072   0.00000  Uiso   1.00
C147   C     0.50702   0.16587   0.25072   0.00000  Uiso   1.00
C148   C     0.49638   0.33491   0.24945   0.00000  Uiso   1.00
O149   O     0.42495   0.25000   0.28132   0.00000  Uiso   1.00
O150   O     0.57505   0.25001   0.21868   0.00000  Uiso   1.00
O151   O     0.42495   0.25000   0.19988   0.00000  Uiso   1.00
O152   O     0.57505   0.25000   0.30012   0.00000  Uiso   1.00
C153   C     0.40145   0.24821   0.23826   0.00000  Uiso   1.00
C154   C     0.59856   0.25186   0.26177   0.00000  Uiso   1.00
Cu155  Cu    0.50000   0.25000   0.29822   0.00000  Uiso   1.00
Cu156  Cu    0.50000   0.25001   0.20178   0.00000  Uiso   1.00
C157   C     0.34650   0.24294   0.23297   0.00000  Uiso   1.00
C158   C     0.65354   0.25709   0.26723   0.00000  Uiso   1.00
H159   H     0.66083   0.22642   0.20112   0.00000  Uiso   1.00
H160   H     0.33919   0.27294   0.29956   0.00000  Uiso   1.00
C161   C     0.50740   0.04972   0.29503   0.00000  Uiso   1.00
C162   C     0.48206   0.45421   0.20688   0.00000  Uiso   1.00
C163   C     0.52122   0.09515   0.29587   0.00000  Uiso   1.00
C164   C     0.47900   0.40772   0.20586   0.00000  Uiso   1.00
C165   C     0.51934   0.11866   0.25201   0.00000  Uiso   1.00
C166   C     0.49142   0.38349   0.24898   0.00000  Uiso   1.00
C167   C     0.52711   0.09520   0.21012   0.00000  Uiso   1.00
C168   C     0.50038   0.40697   0.29267   0.00000  Uiso   1.00
C169   C     0.52735   0.04922   0.21210   0.00000  Uiso   1.00
C170   C     0.51719   0.45132   0.29051   0.00000  Uiso   1.00
H171   H     0.53761   0.03180   0.18121   0.00000  Uiso   1.00
H172   H     0.53520   0.46731   0.32272   0.00000  Uiso   1.00
C173   C     0.51191   0.02572   0.25218   0.00000  Uiso   1.00
C174   C     0.50417   0.47652   0.24926   0.00000  Uiso   1.00
C175   C     0.54514   0.25926   0.05802   0.00000  Uiso   1.00
C176   C     0.48244   0.21245   0.44504   0.00000  Uiso   1.00
C177   C     0.54216   0.26588   0.10755   0.00000  Uiso   1.00
C178   C     0.47607   0.21549   0.39398   0.00000  Uiso   1.00
N179   N     0.50000   0.25001   0.12934   0.00000  Uiso   1.00
N180   N     0.50000   0.24999   0.37066   0.00000  Uiso   1.00
C181   C     0.45758   0.23384   0.10098   0.00000  Uiso   1.00
C182   C     0.52328   0.28455   0.39715   0.00000  Uiso   1.00
H183   H     0.42409   0.22187   0.11772   0.00000  Uiso   1.00
H184   H     0.54095   0.31184   0.37847   0.00000  Uiso   1.00
C185   C     0.45515   0.23506   0.05003   0.00000  Uiso   1.00
C186   C     0.52187   0.28672   0.44782   0.00000  Uiso   1.00
C187   C     0.50018   0.24755   0.02735   0.00000  Uiso   1.00
C188   C     0.50084   0.24957   0.47266   0.00000  Uiso   1.00
C189   C     0.48232   0.03032   0.33657   0.00000  Uiso   1.00
C190   C     0.43288   0.00935   0.32875   0.00000  Uiso   1.00
C191   C     0.40736   0.49375   0.36761   0.00000  Uiso   1.00
C192   C     0.43091   0.49884   0.41461   0.00000  Uiso   1.00
C193   C     0.48062   0.01832   0.42276   0.00000  Uiso   1.00
C194   C     0.50643   0.03371   0.38400   0.00000  Uiso   1.00
H195   H     0.41354   0.00612   0.29266   0.00000  Uiso   1.00
H196   H     0.36913   0.47808   0.36129   0.00000  Uiso   1.00
H197   H     0.41102   0.48694   0.44468   0.00000  Uiso   1.00
H198   H     0.49924   0.02139   0.45914   0.00000  Uiso   1.00
H199   H     0.54521   0.04806   0.39111   0.00000  Uiso   1.00
C200   C     0.45757   0.47795   0.16459   0.00000  Uiso   1.00
C201   C     0.41351   0.00111   0.16867   0.00000  Uiso   1.00
C202   C     0.38883   0.02144   0.12823   0.00000  Uiso   1.00
C203   C     0.40801   0.01885   0.08354   0.00000  Uiso   1.00
C204   C     0.45205   0.49611   0.07927   0.00000  Uiso   1.00
C205   C     0.47673   0.47564   0.11958   0.00000  Uiso   1.00
H206   H     0.39793   0.00291   0.20294   0.00000  Uiso   1.00
H207   H     0.35478   0.03914   0.13151   0.00000  Uiso   1.00
H208   H     0.38893   0.03467   0.05230   0.00000  Uiso   1.00
H209   H     0.46701   0.49426   0.04471   0.00000  Uiso   1.00
H210   H     0.51086   0.45817   0.11595   0.00000  Uiso   1.00
O211   O     0.53850   0.11495   0.33927   0.00000  Uiso   1.00
H212   H     0.56008   0.14191   0.33334   0.00000  Uiso   1.00
O213   O     0.45923   0.38763   0.16329   0.00000  Uiso   1.00
H214   H     0.44079   0.35975   0.17104   0.00000  Uiso   1.00
C215   C     0.53790   0.11698   0.16444   0.00000  Uiso   1.00
C216   C     0.50245   0.11144   0.12341   0.00000  Uiso   1.00
C217   C     0.51397   0.12920   0.07924   0.00000  Uiso   1.00
C218   C     0.56097   0.15251   0.07575   0.00000  Uiso   1.00
C219   C     0.59635   0.15850   0.11657   0.00000  Uiso   1.00
C220   C     0.58485   0.14091   0.16093   0.00000  Uiso   1.00
H221   H     0.46605   0.09333   0.12574   0.00000  Uiso   1.00
H222   H     0.48656   0.12457   0.04771   0.00000  Uiso   1.00
H223   H     0.56983   0.16605   0.04142   0.00000  Uiso   1.00
H224   H     0.63286   0.17632   0.11370   0.00000  Uiso   1.00
H225   H     0.61275   0.14517   0.19224   0.00000  Uiso   1.00
C226   C     0.47713   0.39122   0.33698   0.00000  Uiso   1.00
C227   C     0.42939   0.36654   0.33254   0.00000  Uiso   1.00
C228   C     0.40310   0.35726   0.37277   0.00000  Uiso   1.00
C229   C     0.42247   0.37443   0.41757   0.00000  Uiso   1.00
C230   C     0.46875   0.39990   0.42227   0.00000  Uiso   1.00
C231   C     0.49694   0.40689   0.38291   0.00000  Uiso   1.00
H232   H     0.41153   0.35540   0.29768   0.00000  Uiso   1.00
H233   H     0.36678   0.33807   0.36887   0.00000  Uiso   1.00
H234   H     0.40128   0.36860   0.44846   0.00000  Uiso   1.00
H235   H     0.48250   0.41509   0.45638   0.00000  Uiso   1.00
H236   H     0.53316   0.42604   0.38833   0.00000  Uiso   1.00
O237   O     0.59217   0.26700   0.04061   0.00000  Uiso   1.00
H238   H     0.59187   0.25045   0.01036   0.00000  Uiso   1.00
O239   O     0.46849   0.17431   0.46891   0.00000  Uiso   1.00
H240   H     0.47313   0.14865   0.44869   0.00000  Uiso   1.00
C241   C     0.58181   0.29672   0.13221   0.00000  Uiso   1.00
C242   C     0.56912   0.33955   0.14267   0.00000  Uiso   1.00
C243   C     0.60701   0.37133   0.16033   0.00000  Uiso   1.00
C244   C     0.65843   0.36116   0.16524   0.00000  Uiso   1.00
C245   C     0.33834   0.31943   0.15179   0.00000  Uiso   1.00
C246   C     0.63369   0.28743   0.13540   0.00000  Uiso   1.00
H247   H     0.53006   0.34873   0.13515   0.00000  Uiso   1.00
H248   H     0.59661   0.40414   0.16883   0.00000  Uiso   1.00
H249   H     0.35456   0.38593   0.17824   0.00000  Uiso   1.00
H250   H     0.37787   0.31148   0.15339   0.00000  Uiso   1.00
H251   H     0.64487   0.25577   0.12395   0.00000  Uiso   1.00
C252   C     0.43141   0.18951   0.36923   0.00000  Uiso   1.00
C253   C     0.43201   0.14394   0.36129   0.00000  Uiso   1.00
C254   C     0.38774   0.11957   0.34250   0.00000  Uiso   1.00
C255   C     0.34140   0.13965   0.33468   0.00000  Uiso   1.00
C256   C     0.33924   0.18399   0.34641   0.00000  Uiso   1.00
C257   C     0.38412   0.20905   0.36268   0.00000  Uiso   1.00
H258   H     0.46552   0.12661   0.37226   0.00000  Uiso   1.00
H259   H     0.38875   0.08476   0.33576   0.00000  Uiso   1.00
H260   H     0.64047   0.12036   0.32092   0.00000  Uiso   1.00
H261   H     0.63606   0.19878   0.34349   0.00000  Uiso   1.00
H262   H     0.38192   0.24349   0.37161   0.00000  Uiso   1.00
C263   C     0.40516   0.22296   0.02205   0.00000  Uiso   1.00
C264   C     0.38313   0.25195   0.48734   0.00000  Uiso   1.00
C265   C     0.33766   0.23898   0.45905   0.00000  Uiso   1.00
C266   C     0.64728   0.19707   0.46503   0.00000  Uiso   1.00
C267   C     0.33489   0.16851   0.00028   0.00000  Uiso   1.00
C268   C     0.38001   0.18149   0.02905   0.00000  Uiso   1.00
H269   H     0.40142   0.28428   0.48181   0.00000  Uiso   1.00
H270   H     0.65432   0.26125   0.43212   0.00000  Uiso   1.00
H271   H     0.61227   0.18703   0.44281   0.00000  Uiso   1.00
H272   H     0.64962   0.13620   0.00518   0.00000  Uiso   1.00
H273   H     0.39621   0.15868   0.05571   0.00000  Uiso   1.00
C274   C     0.54424   0.32739   0.47360   0.00000  Uiso   1.00
C275   C     0.51857   0.34693   0.00903   0.00000  Uiso   1.00
C276   C     0.54091   0.38394   0.03438   0.00000  Uiso   1.00
C277   C     0.58886   0.40209   0.02458   0.00000  Uiso   1.00
C278   C     0.61448   0.38339   0.48915   0.00000  Uiso   1.00
C279   C     0.59237   0.34632   0.46371   0.00000  Uiso   1.00
H280   H     0.48093   0.33400   0.01664   0.00000  Uiso   1.00
H281   H     0.52071   0.39874   0.06134   0.00000  Uiso   1.00
H282   H     0.60604   0.43074   0.04431   0.00000  Uiso   1.00
H283   H     0.65163   0.39751   0.48152   0.00000  Uiso   1.00
H284   H     0.61333   0.33200   0.43695   0.00000  Uiso   1.00
O285   O     0.83334   0.18573   0.29072   0.00000  Uiso   1.00
O286   O     0.83333   0.31428   0.20928   0.00000  Uiso   1.00
O287   O     0.83334   0.18573   0.20928   0.00000  Uiso   1.00
O288   O     0.83333   0.31427   0.29072   0.00000  Uiso   1.00
C289   C     0.84036   0.16587   0.25072   0.00000  Uiso   1.00
C290   C     0.82972   0.33491   0.24945   0.00000  Uiso   1.00
O291   O     0.75828   0.25000   0.28132   0.00000  Uiso   1.00
O292   O     0.90839   0.25001   0.21868   0.00000  Uiso   1.00
O293   O     0.75828   0.25000   0.19988   0.00000  Uiso   1.00
O294   O     0.90839   0.25000   0.30012   0.00000  Uiso   1.00
C295   C     0.73479   0.24821   0.23826   0.00000  Uiso   1.00
C296   C     0.93189   0.25186   0.26177   0.00000  Uiso   1.00
Cu297  Cu    0.83333   0.25000   0.29822   0.00000  Uiso   1.00
Cu298  Cu    0.83333   0.25001   0.20178   0.00000  Uiso   1.00
C299   C     0.67984   0.24294   0.23297   0.00000  Uiso   1.00
C300   C     0.98687   0.25709   0.26723   0.00000  Uiso   1.00
H301   H     0.99416   0.22642   0.20112   0.00000  Uiso   1.00
H302   H     0.67252   0.27294   0.29956   0.00000  Uiso   1.00
C303   C     0.84073   0.04972   0.29503   0.00000  Uiso   1.00
C304   C     0.81539   0.45421   0.20688   0.00000  Uiso   1.00
C305   C     0.85455   0.09515   0.29587   0.00000  Uiso   1.00
C306   C     0.81234   0.40772   0.20586   0.00000  Uiso   1.00
C307   C     0.85267   0.11866   0.25201   0.00000  Uiso   1.00
C308   C     0.82476   0.38349   0.24898   0.00000  Uiso   1.00
C309   C     0.86045   0.09520   0.21012   0.00000  Uiso   1.00
C310   C     0.83371   0.40697   0.29267   0.00000  Uiso   1.00
C311   C     0.86068   0.04922   0.21210   0.00000  Uiso   1.00
C312   C     0.85052   0.45132   0.29051   0.00000  Uiso   1.00
H313   H     0.87094   0.03180   0.18121   0.00000  Uiso   1.00
H314   H     0.86853   0.46731   0.32272   0.00000  Uiso   1.00
C315   C     0.84525   0.02572   0.25218   0.00000  Uiso   1.00
C316   C     0.83751   0.47652   0.24926   0.00000  Uiso   1.00
C317   C     0.87847   0.25926   0.05802   0.00000  Uiso   1.00
C318   C     0.81578   0.21245   0.44504   0.00000  Uiso   1.00
C319   C     0.87549   0.26588   0.10755   0.00000  Uiso   1.00
C320   C     0.80940   0.21549   0.39398   0.00000  Uiso   1.00
N321   N     0.83333   0.25001   0.12934   0.00000  Uiso   1.00
N322   N     0.83333   0.24999   0.37066   0.00000  Uiso   1.00
C323   C     0.79091   0.23384   0.10098   0.00000  Uiso   1.00
C324   C     0.85661   0.28455   0.39715   0.00000  Uiso   1.00
H325   H     0.75742   0.22187   0.11772   0.00000  Uiso   1.00
H326   H     0.87429   0.31184   0.37847   0.00000  Uiso   1.00
C327   C     0.78849   0.23506   0.05003   0.00000  Uiso   1.00
C328   C     0.85520   0.28672   0.44782   0.00000  Uiso   1.00
C329   C     0.83352   0.24755   0.02735   0.00000  Uiso   1.00
C330   C     0.83417   0.24957   0.47266   0.00000  Uiso   1.00
C331   C     0.81565   0.03032   0.33657   0.00000  Uiso   1.00
C332   C     0.76621   0.00935   0.32875   0.00000  Uiso   1.00
C333   C     0.74070   0.49375   0.36761   0.00000  Uiso   1.00
C334   C     0.76425   0.49884   0.41461   0.00000  Uiso   1.00
C335   C     0.81396   0.01832   0.42276   0.00000  Uiso   1.00
C336   C     0.83976   0.03371   0.38400   0.00000  Uiso   1.00
H337   H     0.74688   0.00612   0.29266   0.00000  Uiso   1.00
H338   H     0.70246   0.47808   0.36129   0.00000  Uiso   1.00
H339   H     0.74435   0.48694   0.44468   0.00000  Uiso   1.00
H340   H     0.83257   0.02139   0.45914   0.00000  Uiso   1.00
H341   H     0.87854   0.04806   0.39111   0.00000  Uiso   1.00
C342   C     0.79091   0.47795   0.16459   0.00000  Uiso   1.00
C343   C     0.74684   0.00111   0.16867   0.00000  Uiso   1.00
C344   C     0.72216   0.02144   0.12823   0.00000  Uiso   1.00
C345   C     0.74134   0.01885   0.08354   0.00000  Uiso   1.00
C346   C     0.78539   0.49611   0.07927   0.00000  Uiso   1.00
C347   C     0.81006   0.47564   0.11958   0.00000  Uiso   1.00
H348   H     0.73127   0.00291   0.20294   0.00000  Uiso   1.00
H349   H     0.68811   0.03914   0.13151   0.00000  Uiso   1.00
H350   H     0.72226   0.03467   0.05230   0.00000  Uiso   1.00
H351   H     0.80034   0.49426   0.04471   0.00000  Uiso   1.00
H352   H     0.84419   0.45817   0.11595   0.00000  Uiso   1.00
O353   O     0.87184   0.11495   0.33927   0.00000  Uiso   1.00
H354   H     0.89342   0.14191   0.33334   0.00000  Uiso   1.00
O355   O     0.79256   0.38763   0.16329   0.00000  Uiso   1.00
H356   H     0.77412   0.35975   0.17104   0.00000  Uiso   1.00
C357   C     0.87123   0.11698   0.16444   0.00000  Uiso   1.00
C358   C     0.83579   0.11144   0.12341   0.00000  Uiso   1.00
C359   C     0.84730   0.12920   0.07924   0.00000  Uiso   1.00
C360   C     0.89431   0.15251   0.07575   0.00000  Uiso   1.00
C361   C     0.92968   0.15850   0.11657   0.00000  Uiso   1.00
C362   C     0.91818   0.14091   0.16093   0.00000  Uiso   1.00
H363   H     0.79938   0.09333   0.12574   0.00000  Uiso   1.00
H364   H     0.81990   0.12457   0.04771   0.00000  Uiso   1.00
H365   H     0.90317   0.16605   0.04142   0.00000  Uiso   1.00
H366   H     0.96619   0.17632   0.11370   0.00000  Uiso   1.00
H367   H     0.94608   0.14517   0.19224   0.00000  Uiso   1.00
C368   C     0.81046   0.39122   0.33698   0.00000  Uiso   1.00
C369   C     0.76273   0.36654   0.33254   0.00000  Uiso   1.00
C370   C     0.73643   0.35726   0.37277   0.00000  Uiso   1.00
C371   C     0.75580   0.37443   0.41757   0.00000  Uiso   1.00
C372   C     0.80208   0.39990   0.42227   0.00000  Uiso   1.00
C373   C     0.83027   0.40689   0.38291   0.00000  Uiso   1.00
H374   H     0.74487   0.35540   0.29768   0.00000  Uiso   1.00
H375   H     0.70011   0.33807   0.36887   0.00000  Uiso   1.00
H376   H     0.73461   0.36860   0.44846   0.00000  Uiso   1.00
H377   H     0.81584   0.41509   0.45638   0.00000  Uiso   1.00
H378   H     0.86650   0.42604   0.38833   0.00000  Uiso   1.00
O379   O     0.92551   0.26700   0.04061   0.00000  Uiso   1.00
H380   H     0.92521   0.25045   0.01036   0.00000  Uiso   1.00
O381   O     0.80182   0.17431   0.46891   0.00000  Uiso   1.00
H382   H     0.80646   0.14865   0.44869   0.00000  Uiso   1.00
C383   C     0.91515   0.29672   0.13221   0.00000  Uiso   1.00
C384   C     0.90245   0.33955   0.14267   0.00000  Uiso   1.00
C385   C     0.94034   0.37133   0.16033   0.00000  Uiso   1.00
C386   C     0.99177   0.36116   0.16524   0.00000  Uiso   1.00
C387   C     0.67167   0.31943   0.15179   0.00000  Uiso   1.00
C388   C     0.96703   0.28743   0.13540   0.00000  Uiso   1.00
H389   H     0.86339   0.34873   0.13515   0.00000  Uiso   1.00
H390   H     0.92994   0.40414   0.16883   0.00000  Uiso   1.00
H391   H     0.68789   0.38593   0.17824   0.00000  Uiso   1.00
H392   H     0.71120   0.31148   0.15339   0.00000  Uiso   1.00
H393   H     0.97820   0.25577   0.12395   0.00000  Uiso   1.00
C394   C     0.76474   0.18951   0.36923   0.00000  Uiso   1.00
C395   C     0.76534   0.14394   0.36129   0.00000  Uiso   1.00
C396   C     0.72108   0.11957   0.34250   0.00000  Uiso   1.00
C397   C     0.67473   0.13965   0.33468   0.00000  Uiso   1.00
C398   C     0.67257   0.18399   0.34641   0.00000  Uiso   1.00
C399   C     0.71745   0.20905   0.36268   0.00000  Uiso   1.00
H400   H     0.79885   0.12661   0.37226   0.00000  Uiso   1.00
H401   H     0.72208   0.08476   0.33576   0.00000  Uiso   1.00
H402   H     0.97380   0.12036   0.32092   0.00000  Uiso   1.00
H403   H     0.96940   0.19878   0.34349   0.00000  Uiso   1.00
H404   H     0.71526   0.24349   0.37161   0.00000  Uiso   1.00
C405   C     0.73849   0.22296   0.02205   0.00000  Uiso   1.00
C406   C     0.71646   0.25195   0.48734   0.00000  Uiso   1.00
C407   C     0.67100   0.23898   0.45905   0.00000  Uiso   1.00
C408   C     0.98061   0.19707   0.46503   0.00000  Uiso   1.00
C409   C     0.66822   0.16851   0.00028   0.00000  Uiso   1.00
C410   C     0.71334   0.18149   0.02905   0.00000  Uiso   1.00
H411   H     0.73475   0.28428   0.48181   0.00000  Uiso   1.00
H412   H     0.98765   0.26125   0.43212   0.00000  Uiso   1.00
H413   H     0.94560   0.18703   0.44281   0.00000  Uiso   1.00
H414   H     0.98296   0.13620   0.00518   0.00000  Uiso   1.00
H415   H     0.72955   0.15868   0.05571   0.00000  Uiso   1.00
C416   C     0.87757   0.32739   0.47360   0.00000  Uiso   1.00
C417   C     0.85191   0.34693   0.00903   0.00000  Uiso   1.00
C418   C     0.87424   0.38394   0.03438   0.00000  Uiso   1.00
C419   C     0.92219   0.40209   0.02458   0.00000  Uiso   1.00
C420   C     0.94781   0.38339   0.48915   0.00000  Uiso   1.00
C421   C     0.92570   0.34632   0.46371   0.00000  Uiso   1.00
H422   H     0.81427   0.33400   0.01664   0.00000  Uiso   1.00
H423   H     0.85405   0.39874   0.06134   0.00000  Uiso   1.00
H424   H     0.93938   0.43074   0.04431   0.00000  Uiso   1.00
H425   H     0.98496   0.39751   0.48152   0.00000  Uiso   1.00
H426   H     0.94667   0.33200   0.43695   0.00000  Uiso   1.00
O427   O     0.16667   0.68573   0.29072   0.00000  Uiso   1.00
O428   O     0.16666   0.81428   0.20928   0.00000  Uiso   1.00
O429   O     0.16667   0.68573   0.20928   0.00000  Uiso   1.00
O430   O     0.16666   0.81427   0.29072   0.00000  Uiso   1.00
C431   C     0.17369   0.66587   0.25072   0.00000  Uiso   1.00
C432   C     0.16305   0.83491   0.24945   0.00000  Uiso   1.00
O433   O     0.09161   0.75000   0.28132   0.00000  Uiso   1.00
O434   O     0.24172   0.75001   0.21868   0.00000  Uiso   1.00
O435   O     0.09161   0.75000   0.19988   0.00000  Uiso   1.00
O436   O     0.24172   0.75000   0.30012   0.00000  Uiso   1.00
C437   C     0.06812   0.74821   0.23826   0.00000  Uiso   1.00
C438   C     0.26522   0.75186   0.26177   0.00000  Uiso   1.00
Cu439  Cu    0.16667   0.75000   0.29822   0.00000  Uiso   1.00
Cu440  Cu    0.16667   0.75001   0.20178   0.00000  Uiso   1.00
C441   C     0.01317   0.74294   0.23297   0.00000  Uiso   1.00
C442   C     0.32020   0.75709   0.26723   0.00000  Uiso   1.00
H443   H     0.32749   0.72642   0.20112   0.00000  Uiso   1.00
H444   H     0.00585   0.77294   0.29956   0.00000  Uiso   1.00
C445   C     0.17407   0.54972   0.29503   0.00000  Uiso   1.00
C446   C     0.14873   0.95421   0.20688   0.00000  Uiso   1.00
C447   C     0.18788   0.59515   0.29587   0.00000  Uiso   1.00
C448   C     0.14567   0.90772   0.20586   0.00000  Uiso   1.00
C449   C     0.18601   0.61866   0.25201   0.00000  Uiso   1.00
C450   C     0.15809   0.88349   0.24898   0.00000  Uiso   1.00
C451   C     0.19378   0.59520   0.21012   0.00000  Uiso   1.00
C452   C     0.16705   0.90697   0.29267   0.00000  Uiso   1.00
C453   C     0.19401   0.54922   0.21210   0.00000  Uiso   1.00
C454   C     0.18386   0.95132   0.29051   0.00000  Uiso   1.00
H455   H     0.20427   0.53180   0.18121   0.00000  Uiso   1.00
H456   H     0.20187   0.96731   0.32272   0.00000  Uiso   1.00
C457   C     0.17858   0.52572   0.25218   0.00000  Uiso   1.00
C458   C     0.17084   0.97652   0.24926   0.00000  Uiso   1.00
C459   C     0.21181   0.75926   0.05802   0.00000  Uiso   1.00
C460   C     0.14911   0.71245   0.44504   0.00000  Uiso   1.00
C461   C     0.20882   0.76588   0.10755   0.00000  Uiso   1.00
C462   C     0.14274   0.71549   0.39398   0.00000  Uiso   1.00
N463   N     0.16667   0.75001   0.12934   0.00000  Uiso   1.00
N464   N     0.16667   0.74999   0.37066   0.00000  Uiso   1.00
C465   C     0.12425   0.73384   0.10098   0.00000  Uiso   1.00
C466   C     0.18995   0.78455   0.39715   0.00000  Uiso   1.00
H467   H     0.09076   0.72187   0.11772   0.00000  Uiso   1.00
H468   H     0.20762   0.81184   0.37847   0.00000  Uiso   1.00
C469   C     0.12182   0.73506   0.05003   0.00000  Uiso   1.00
C470   C     0.18854   0.78672   0.44782   0.00000  Uiso   1.00
C471   C     0.16685   0.74755   0.02735   0.00000  Uiso   1.00
C472   C     0.16751   0.74957   0.47266   0.00000  Uiso   1.00
C473   C     0.14899   0.53032   0.33657   0.00000  Uiso   1.00
C474   C     0.09955   0.50935   0.32875   0.00000  Uiso   1.00
C475   C     0.07403   0.99375   0.36761   0.00000  Uiso   1.00
C476   C     0.09758   0.99884   0.41461   0.00000  Uiso   1.00
C477   C     0.14729   0.51832   0.42276   0.00000  Uiso   1.00
C478   C     0.17309   0.53371   0.38400   0.00000  Uiso   1.00
H479   H     0.08021   0.50612   0.29266   0.00000  Uiso   1.00
H480   H     0.03579   0.97808   0.36129   0.00000  Uiso   1.00
H481   H     0.07768   0.98694   0.44468   0.00000  Uiso   1.00
H482   H     0.16591   0.52139   0.45914   0.00000  Uiso   1.00
H483   H     0.21188   0.54806   0.39111   0.00000  Uiso   1.00
C484   C     0.12424   0.97795   0.16459   0.00000  Uiso   1.00
C485   C     0.08017   0.50111   0.16867   0.00000  Uiso   1.00
C486   C     0.05549   0.52144   0.12823   0.00000  Uiso   1.00
C487   C     0.07468   0.51885   0.08354   0.00000  Uiso   1.00
C488   C     0.11872   0.99611   0.07927   0.00000  Uiso   1.00
C489   C     0.14339   0.97564   0.11958   0.00000  Uiso   1.00
H490   H     0.06460   0.50291   0.20294   0.00000  Uiso   1.00
H491   H     0.02145   0.53914   0.13151   0.00000  Uiso   1.00
H492   H     0.05559   0.53467   0.05230   0.00000  Uiso   1.00
H493   H     0.13367   0.99426   0.04471   0.00000  Uiso   1.00
H494   H     0.17752   0.95817   0.11595   0.00000  Uiso   1.00
O495   O     0.20517   0.61495   0.33927   0.00000  Uiso   1.00
H496   H     0.22675   0.64191   0.33334   0.00000  Uiso   1.00
O497   O     0.12589   0.88763   0.16329   0.00000  Uiso   1.00
H498   H     0.10746   0.85975   0.17104   0.00000  Uiso   1.00
C499   C     0.20456   0.61698   0.16444   0.00000  Uiso   1.00
C500   C     0.16912   0.61144   0.12341   0.00000  Uiso   1.00
C501   C     0.18064   0.62920   0.07924   0.00000  Uiso   1.00
C502   C     0.22764   0.65251   0.07575   0.00000  Uiso   1.00
C503   C     0.26301   0.65850   0.11657   0.00000  Uiso   1.00
C504   C     0.25151   0.64091   0.16093   0.00000  Uiso   1.00
H505   H     0.13272   0.59333   0.12574   0.00000  Uiso   1.00
H506   H     0.15323   0.62457   0.04771   0.00000  Uiso   1.00
H507   H     0.23650   0.66605   0.04142   0.00000  Uiso   1.00
H508   H     0.29953   0.67632   0.11370   0.00000  Uiso   1.00
H509   H     0.27942   0.64517   0.19224   0.00000  Uiso   1.00
C510   C     0.14380   0.89122   0.33698   0.00000  Uiso   1.00
C511   C     0.09606   0.86654   0.33254   0.00000  Uiso   1.00
C512   C     0.06976   0.85726   0.37277   0.00000  Uiso   1.00
C513   C     0.08914   0.87443   0.41757   0.00000  Uiso   1.00
C514   C     0.13542   0.89990   0.42227   0.00000  Uiso   1.00
C515   C     0.16361   0.90689   0.38291   0.00000  Uiso   1.00
H516   H     0.07820   0.85540   0.29768   0.00000  Uiso   1.00
H517   H     0.03344   0.83807   0.36887   0.00000  Uiso   1.00
H518   H     0.06795   0.86860   0.44846   0.00000  Uiso   1.00
H519   H     0.14917   0.91509   0.45638   0.00000  Uiso   1.00
H520   H     0.19983   0.92604   0.38833   0.00000  Uiso   1.00
O521   O     0.25884   0.76700   0.04061   0.00000  Uiso   1.00
H522   H     0.25854   0.75045   0.01036   0.00000  Uiso   1.00
O523   O     0.13516   0.67431   0.46891   0.00000  Uiso   1.00
H524   H     0.13980   0.64865   0.44869   0.00000  Uiso   1.00
C525   C     0.24848   0.79672   0.13221   0.00000  Uiso   1.00
C526   C     0.23579   0.83955   0.14267   0.00000  Uiso   1.00
C527   C     0.27367   0.87133   0.16033   0.00000  Uiso   1.00
C528   C     0.32510   0.86116   0.16524   0.00000  Uiso   1.00
C529   C     0.00501   0.81943   0.15179   0.00000  Uiso   1.00
C530   C     0.30036   0.78743   0.13540   0.00000  Uiso   1.00
H531   H     0.19673   0.84873   0.13515   0.00000  Uiso   1.00
H532   H     0.26327   0.90414   0.16883   0.00000  Uiso   1.00
H533   H     0.02123   0.88593   0.17824   0.00000  Uiso   1.00
H534   H     0.04453   0.81148   0.15339   0.00000  Uiso   1.00
H535   H     0.31154   0.75577   0.12395   0.00000  Uiso   1.00
C536   C     0.09808   0.68951   0.36923   0.00000  Uiso   1.00
C537   C     0.09868   0.64394   0.36129   0.00000  Uiso   1.00
C538   C     0.05441   0.61957   0.34250   0.00000  Uiso   1.00
C539   C     0.00806   0.63965   0.33468   0.00000  Uiso   1.00
C540   C     0.00591   0.68399   0.34641   0.00000  Uiso   1.00
C541   C     0.05078   0.70905   0.36268   0.00000  Uiso   1.00
H542   H     0.13218   0.62661   0.37226   0.00000  Uiso   1.00
H543   H     0.05541   0.58476   0.33576   0.00000  Uiso   1.00
H544   H     0.30713   0.62036   0.32092   0.00000  Uiso   1.00
H545   H     0.30273   0.69878   0.34349   0.00000  Uiso   1.00
H546   H     0.04859   0.74349   0.37161   0.00000  Uiso   1.00
C547   C     0.07182   0.72296   0.02205   0.00000  Uiso   1.00
C548   C     0.04979   0.75195   0.48734   0.00000  Uiso   1.00
C549   C     0.00433   0.73898   0.45905   0.00000  Uiso   1.00
C550   C     0.31394   0.69707   0.46503   0.00000  Uiso   1.00
C551   C     0.00156   0.66851   0.00028   0.00000  Uiso   1.00
C552   C     0.04668   0.68149   0.02905   0.00000  Uiso   1.00
H553   H     0.06808   0.78428   0.48181   0.00000  Uiso   1.00
H554   H     0.32099   0.76125   0.43212   0.00000  Uiso   1.00
H555   H     0.27893   0.68703   0.44281   0.00000  Uiso   1.00
H556   H     0.31629   0.63620   0.00518   0.00000  Uiso   1.00
H557   H     0.06288   0.65868   0.05571   0.00000  Uiso   1.00
C558   C     0.21090   0.82739   0.47360   0.00000  Uiso   1.00
C559   C     0.18524   0.84693   0.00903   0.00000  Uiso   1.00
C560   C     0.20758   0.88394   0.03438   0.00000  Uiso   1.00
C561   C     0.25552   0.90209   0.02458   0.00000  Uiso   1.00
C562   C     0.28115   0.88339   0.48915   0.00000  Uiso   1.00
C563   C     0.25904   0.84632   0.46371   0.00000  Uiso   1.00
H564   H     0.14760   0.83400   0.01664   0.00000  Uiso   1.00
H565   H     0.18738   0.89874   0.06134   0.00000  Uiso   1.00
H566   H     0.27271   0.93074   0.04431   0.00000  Uiso   1.00
H567   H     0.31830   0.89751   0.48152   0.00000  Uiso   1.00
H568   H     0.28000   0.83200   0.43695   0.00000  Uiso   1.00
O569   O     0.50000   0.68573   0.29072   0.00000  Uiso   1.00
O570   O     0.50000   0.81428   0.20928   0.00000  Uiso   1.00
O571   O     0.50000   0.68573   0.20928   0.00000  Uiso   1.00
O572   O     0.50000   0.81427   0.29072   0.00000  Uiso   1.00
C573   C     0.50702   0.66587   0.25072   0.00000  Uiso   1.00
C574   C     0.49638   0.83491   0.24945   0.00000  Uiso   1.00
O575   O     0.42495   0.75000   0.28132   0.00000  Uiso   1.00
O576   O     0.57505   0.75001   0.21868   0.00000  Uiso   1.00
O577   O     0.42495   0.75000   0.19988   0.00000  Uiso   1.00
O578   O     0.57505   0.75000   0.30012   0.00000  Uiso   1.00
C579   C     0.40145   0.74821   0.23826   0.00000  Uiso   1.00
C580   C     0.59856   0.75186   0.26177   0.00000  Uiso   1.00
Cu581  Cu    0.50000   0.75000   0.29822   0.00000  Uiso   1.00
Cu582  Cu    0.50000   0.75001   0.20178   0.00000  Uiso   1.00
C583   C     0.34650   0.74294   0.23297   0.00000  Uiso   1.00
C584   C     0.65354   0.75709   0.26723   0.00000  Uiso   1.00
H585   H     0.66083   0.72642   0.20112   0.00000  Uiso   1.00
H586   H     0.33919   0.77294   0.29956   0.00000  Uiso   1.00
C587   C     0.50740   0.54972   0.29503   0.00000  Uiso   1.00
C588   C     0.48206   0.95421   0.20688   0.00000  Uiso   1.00
C589   C     0.52122   0.59515   0.29587   0.00000  Uiso   1.00
C590   C     0.47900   0.90772   0.20586   0.00000  Uiso   1.00
C591   C     0.51934   0.61866   0.25201   0.00000  Uiso   1.00
C592   C     0.49142   0.88349   0.24898   0.00000  Uiso   1.00
C593   C     0.52711   0.59520   0.21012   0.00000  Uiso   1.00
C594   C     0.50038   0.90697   0.29267   0.00000  Uiso   1.00
C595   C     0.52735   0.54922   0.21210   0.00000  Uiso   1.00
C596   C     0.51719   0.95132   0.29051   0.00000  Uiso   1.00
H597   H     0.53761   0.53180   0.18121   0.00000  Uiso   1.00
H598   H     0.53520   0.96731   0.32272   0.00000  Uiso   1.00
C599   C     0.51191   0.52572   0.25218   0.00000  Uiso   1.00
C600   C     0.50417   0.97652   0.24926   0.00000  Uiso   1.00
C601   C     0.54514   0.75926   0.05802   0.00000  Uiso   1.00
C602   C     0.48244   0.71245   0.44504   0.00000  Uiso   1.00
C603   C     0.54216   0.76588   0.10755   0.00000  Uiso   1.00
C604   C     0.47607   0.71549   0.39398   0.00000  Uiso   1.00
N605   N     0.50000   0.75001   0.12934   0.00000  Uiso   1.00
N606   N     0.50000   0.74999   0.37066   0.00000  Uiso   1.00
C607   C     0.45758   0.73384   0.10098   0.00000  Uiso   1.00
C608   C     0.52328   0.78455   0.39715   0.00000  Uiso   1.00
H609   H     0.42409   0.72187   0.11772   0.00000  Uiso   1.00
H610   H     0.54095   0.81184   0.37847   0.00000  Uiso   1.00
C611   C     0.45515   0.73506   0.05003   0.00000  Uiso   1.00
C612   C     0.52187   0.78672   0.44782   0.00000  Uiso   1.00
C613   C     0.50018   0.74755   0.02735   0.00000  Uiso   1.00
C614   C     0.50084   0.74957   0.47266   0.00000  Uiso   1.00
C615   C     0.48232   0.53032   0.33657   0.00000  Uiso   1.00
C616   C     0.43288   0.50935   0.32875   0.00000  Uiso   1.00
C617   C     0.40736   0.99375   0.36761   0.00000  Uiso   1.00
C618   C     0.43091   0.99884   0.41461   0.00000  Uiso   1.00
C619   C     0.48062   0.51832   0.42276   0.00000  Uiso   1.00
C620   C     0.50643   0.53371   0.38400   0.00000  Uiso   1.00
H621   H     0.41354   0.50612   0.29266   0.00000  Uiso   1.00
H622   H     0.36913   0.97808   0.36129   0.00000  Uiso   1.00
H623   H     0.41102   0.98694   0.44468   0.00000  Uiso   1.00
H624   H     0.49924   0.52139   0.45914   0.00000  Uiso   1.00
H625   H     0.54521   0.54806   0.39111   0.00000  Uiso   1.00
C626   C     0.45757   0.97795   0.16459   0.00000  Uiso   1.00
C627   C     0.41351   0.50111   0.16867   0.00000  Uiso   1.00
C628   C     0.38883   0.52144   0.12823   0.00000  Uiso   1.00
C629   C     0.40801   0.51885   0.08354   0.00000  Uiso   1.00
C630   C     0.45205   0.99611   0.07927   0.00000  Uiso   1.00
C631   C     0.47673   0.97564   0.11958   0.00000  Uiso   1.00
H632   H     0.39793   0.50291   0.20294   0.00000  Uiso   1.00
H633   H     0.35478   0.53914   0.13151   0.00000  Uiso   1.00
H634   H     0.38893   0.53467   0.05230   0.00000  Uiso   1.00
H635   H     0.46701   0.99426   0.04471   0.00000  Uiso   1.00
H636   H     0.51086   0.95817   0.11595   0.00000  Uiso   1.00
O637   O     0.53850   0.61495   0.33927   0.00000  Uiso   1.00
H638   H     0.56008   0.64191   0.33334   0.00000  Uiso   1.00
O639   O     0.45923   0.88763   0.16329   0.00000  Uiso   1.00
H640   H     0.44079   0.85975   0.17104   0.00000  Uiso   1.00
C641   C     0.53790   0.61698   0.16444   0.00000  Uiso   1.00
C642   C     0.50245   0.61144   0.12341   0.00000  Uiso   1.00
C643   C     0.51397   0.62920   0.07924   0.00000  Uiso   1.00
C644   C     0.56097   0.65251   0.07575   0.00000  Uiso   1.00
C645   C     0.59635   0.65850   0.11657   0.00000  Uiso   1.00
C646   C     0.58485   0.64091   0.16093   0.00000  Uiso   1.00
H647   H     0.46605   0.59333   0.12574   0.00000  Uiso   1.00
H648   H     0.48656   0.62457   0.04771   0.00000  Uiso   1.00
H649   H     0.56983   0.66605   0.04142   0.00000  Uiso   1.00
H650   H     0.63286   0.67632   0.11370   0.00000  Uiso   1.00
H651   H     0.61275   0.64517   0.19224   0.00000  Uiso   1.00
C652   C     0.47713   0.89122   0.33698   0.00000  Uiso   1.00
C653   C     0.42939   0.86654   0.33254   0.00000  Uiso   1.00
C654   C     0.40310   0.85726   0.37277   0.00000  Uiso   1.00
C655   C     0.42247   0.87443   0.41757   0.00000  Uiso   1.00
C656   C     0.46875   0.89990   0.42227   0.00000  Uiso   1.00
C657   C     0.49694   0.90689   0.38291   0.00000  Uiso   1.00
H658   H     0.41153   0.85540   0.29768   0.00000  Uiso   1.00
H659   H     0.36678   0.83807   0.36887   0.00000  Uiso   1.00
H660   H     0.40128   0.86860   0.44846   0.00000  Uiso   1.00
H661   H     0.48250   0.91509   0.45638   0.00000  Uiso   1.00
H662   H     0.53316   0.92604   0.38833   0.00000  Uiso   1.00
O663   O     0.59217   0.76700   0.04061   0.00000  Uiso   1.00
H664   H     0.59187   0.75045   0.01036   0.00000  Uiso   1.00
O665   O     0.46849   0.67431   0.46891   0.00000  Uiso   1.00
H666   H     0.47313   0.64865   0.44869   0.00000  Uiso   1.00
C667   C     0.58181   0.79672   0.13221   0.00000  Uiso   1.00
C668   C     0.56912   0.83955   0.14267   0.00000  Uiso   1.00
C669   C     0.60701   0.87133   0.16033   0.00000  Uiso   1.00
C670   C     0.65843   0.86116   0.16524   0.00000  Uiso   1.00
C671   C     0.33834   0.81943   0.15179   0.00000  Uiso   1.00
C672   C     0.63369   0.78743   0.13540   0.00000  Uiso   1.00
H673   H     0.53006   0.84873   0.13515   0.00000  Uiso   1.00
H674   H     0.59661   0.90414   0.16883   0.00000  Uiso   1.00
H675   H     0.35456   0.88593   0.17824   0.00000  Uiso   1.00
H676   H     0.37787   0.81148   0.15339   0.00000  Uiso   1.00
H677   H     0.64487   0.75577   0.12395   0.00000  Uiso   1.00
C678   C     0.43141   0.68951   0.36923   0.00000  Uiso   1.00
C679   C     0.43201   0.64394   0.36129   0.00000  Uiso   1.00
C680   C     0.38774   0.61957   0.34250   0.00000  Uiso   1.00
C681   C     0.34140   0.63965   0.33468   0.00000  Uiso   1.00
C682   C     0.33924   0.68399   0.34641   0.00000  Uiso   1.00
C683   C     0.38412   0.70905   0.36268   0.00000  Uiso   1.00
H684   H     0.46552   0.62661   0.37226   0.00000  Uiso   1.00
H685   H     0.38875   0.58476   0.33576   0.00000  Uiso   1.00
H686   H     0.64047   0.62036   0.32092   0.00000  Uiso   1.00
H687   H     0.63606   0.69878   0.34349   0.00000  Uiso   1.00
H688   H     0.38192   0.74349   0.37161   0.00000  Uiso   1.00
C689   C     0.40516   0.72296   0.02205   0.00000  Uiso   1.00
C690   C     0.38313   0.75195   0.48734   0.00000  Uiso   1.00
C691   C     0.33766   0.73898   0.45905   0.00000  Uiso   1.00
C692   C     0.64728   0.69707   0.46503   0.00000  Uiso   1.00
C693   C     0.33489   0.66851   0.00028   0.00000  Uiso   1.00
C694   C     0.38001   0.68149   0.02905   0.00000  Uiso   1.00
H695   H     0.40142   0.78428   0.48181   0.00000  Uiso   1.00
H696   H     0.65432   0.76125   0.43212   0.00000  Uiso   1.00
H697   H     0.61227   0.68703   0.44281   0.00000  Uiso   1.00
H698   H     0.64962   0.63620   0.00518   0.00000  Uiso   1.00
H699   H     0.39621   0.65868   0.05571   0.00000  Uiso   1.00
C700   C     0.54424   0.82739   0.47360   0.00000  Uiso   1.00
C701   C     0.51857   0.84693   0.00903   0.00000  Uiso   1.00
C702   C     0.54091   0.88394   0.03438   0.00000  Uiso   1.00
C703   C     0.58886   0.90209   0.02458   0.00000  Uiso   1.00
C704   C     0.61448   0.88339   0.48915   0.00000  Uiso   1.00
C705   C     0.59237   0.84632   0.46371   0.00000  Uiso   1.00
H706   H     0.48093   0.83400   0.01664   0.00000  Uiso   1.00
H707   H     0.52071   0.89874   0.06134   0.00000  Uiso   1.00
H708   H     0.60604   0.93074   0.04431   0.00000  Uiso   1.00
H709   H     0.65163   0.89751   0.48152   0.00000  Uiso   1.00
H710   H     0.61333   0.83200   0.43695   0.00000  Uiso   1.00
O711   O     0.83334   0.68573   0.29072   0.00000  Uiso   1.00
O712   O     0.83333   0.81428   0.20928   0.00000  Uiso   1.00
O713   O     0.83334   0.68573   0.20928   0.00000  Uiso   1.00
O714   O     0.83333   0.81427   0.29072   0.00000  Uiso   1.00
C715   C     0.84036   0.66587   0.25072   0.00000  Uiso   1.00
C716   C     0.82972   0.83491   0.24945   0.00000  Uiso   1.00
O717   O     0.75828   0.75000   0.28132   0.00000  Uiso   1.00
O718   O     0.90839   0.75001   0.21868   0.00000  Uiso   1.00
O719   O     0.75828   0.75000   0.19988   0.00000  Uiso   1.00
O720   O     0.90839   0.75000   0.30012   0.00000  Uiso   1.00
C721   C     0.73479   0.74821   0.23826   0.00000  Uiso   1.00
C722   C     0.93189   0.75186   0.26177   0.00000  Uiso   1.00
Cu723  Cu    0.83333   0.75000   0.29822   0.00000  Uiso   1.00
Cu724  Cu    0.83333   0.75001   0.20178   0.00000  Uiso   1.00
C725   C     0.67984   0.74294   0.23297   0.00000  Uiso   1.00
C726   C     0.98687   0.75709   0.26723   0.00000  Uiso   1.00
H727   H     0.99416   0.72642   0.20112   0.00000  Uiso   1.00
H728   H     0.67252   0.77294   0.29956   0.00000  Uiso   1.00
C729   C     0.84073   0.54972   0.29503   0.00000  Uiso   1.00
C730   C     0.81539   0.95421   0.20688   0.00000  Uiso   1.00
C731   C     0.85455   0.59515   0.29587   0.00000  Uiso   1.00
C732   C     0.81234   0.90772   0.20586   0.00000  Uiso   1.00
C733   C     0.85267   0.61866   0.25201   0.00000  Uiso   1.00
C734   C     0.82476   0.88349   0.24898   0.00000  Uiso   1.00
C735   C     0.86045   0.59520   0.21012   0.00000  Uiso   1.00
C736   C     0.83371   0.90697   0.29267   0.00000  Uiso   1.00
C737   C     0.86068   0.54922   0.21210   0.00000  Uiso   1.00
C738   C     0.85052   0.95132   0.29051   0.00000  Uiso   1.00
H739   H     0.87094   0.53180   0.18121   0.00000  Uiso   1.00
H740   H     0.86853   0.96731   0.32272   0.00000  Uiso   1.00
C741   C     0.84525   0.52572   0.25218   0.00000  Uiso   1.00
C742   C     0.83751   0.97652   0.24926   0.00000  Uiso   1.00
C743   C     0.87847   0.75926   0.05802   0.00000  Uiso   1.00
C744   C     0.81578   0.71245   0.44504   0.00000  Uiso   1.00
C745   C     0.87549   0.76588   0.10755   0.00000  Uiso   1.00
C746   C     0.80940   0.71549   0.39398   0.00000  Uiso   1.00
N747   N     0.83333   0.75001   0.12934   0.00000  Uiso   1.00
N748   N     0.83333   0.74999   0.37066   0.00000  Uiso   1.00
C749   C     0.79091   0.73384   0.10098   0.00000  Uiso   1.00
C750   C     0.85661   0.78455   0.39715   0.00000  Uiso   1.00
H751   H     0.75742   0.72187   0.11772   0.00000  Uiso   1.00
H752   H     0.87429   0.81184   0.37847   0.00000  Uiso   1.00
C753   C     0.78849   0.73506   0.05003   0.00000  Uiso   1.00
C754   C     0.85520   0.78672   0.44782   0.00000  Uiso   1.00
C755   C     0.83352   0.74755   0.02735   0.00000  Uiso   1.00
C756   C     0.83417   0.74957   0.47266   0.00000  Uiso   1.00
C757   C     0.81565   0.53032   0.33657   0.00000  Uiso   1.00
C758   C     0.76621   0.50935   0.32875   0.00000  Uiso   1.00
C759   C     0.74070   0.99375   0.36761   0.00000  Uiso   1.00
C760   C     0.76425   0.99884   0.41461   0.00000  Uiso   1.00
C761   C     0.81396   0.51832   0.42276   0.00000  Uiso   1.00
C762   C     0.83976   0.53371   0.38400   0.00000  Uiso   1.00
H763   H     0.74688   0.50612   0.29266   0.00000  Uiso   1.00
H764   H     0.70246   0.97808   0.36129   0.00000  Uiso   1.00
H765   H     0.74435   0.98694   0.44468   0.00000  Uiso   1.00
H766   H     0.83257   0.52139   0.45914   0.00000  Uiso   1.00
H767   H     0.87854   0.54806   0.39111   0.00000  Uiso   1.00
C768   C     0.79091   0.97795   0.16459   0.00000  Uiso   1.00
C769   C     0.74684   0.50111   0.16867   0.00000  Uiso   1.00
C770   C     0.72216   0.52144   0.12823   0.00000  Uiso   1.00
C771   C     0.74134   0.51885   0.08354   0.00000  Uiso   1.00
C772   C     0.78539   0.99611   0.07927   0.00000  Uiso   1.00
C773   C     0.81006   0.97564   0.11958   0.00000  Uiso   1.00
H774   H     0.73127   0.50291   0.20294   0.00000  Uiso   1.00
H775   H     0.68811   0.53914   0.13151   0.00000  Uiso   1.00
H776   H     0.72226   0.53467   0.05230   0.00000  Uiso   1.00
H777   H     0.80034   0.99426   0.04471   0.00000  Uiso   1.00
H778   H     0.84419   0.95817   0.11595   0.00000  Uiso   1.00
O779   O     0.87184   0.61495   0.33927   0.00000  Uiso   1.00
H780   H     0.89342   0.64191   0.33334   0.00000  Uiso   1.00
O781   O     0.79256   0.88763   0.16329   0.00000  Uiso   1.00
H782   H     0.77412   0.85975   0.17104   0.00000  Uiso   1.00
C783   C     0.87123   0.61698   0.16444   0.00000  Uiso   1.00
C784   C     0.83579   0.61144   0.12341   0.00000  Uiso   1.00
C785   C     0.84730   0.62920   0.07924   0.00000  Uiso   1.00
C786   C     0.89431   0.65251   0.07575   0.00000  Uiso   1.00
C787   C     0.92968   0.65850   0.11657   0.00000  Uiso   1.00
C788   C     0.91818   0.64091   0.16093   0.00000  Uiso   1.00
H789   H     0.79938   0.59333   0.12574   0.00000  Uiso   1.00
H790   H     0.81990   0.62457   0.04771   0.00000  Uiso   1.00
H791   H     0.90317   0.66605   0.04142   0.00000  Uiso   1.00
H792   H     0.96619   0.67632   0.11370   0.00000  Uiso   1.00
H793   H     0.94608   0.64517   0.19224   0.00000  Uiso   1.00
C794   C     0.81046   0.89122   0.33698   0.00000  Uiso   1.00
C795   C     0.76273   0.86654   0.33254   0.00000  Uiso   1.00
C796   C     0.73643   0.85726   0.37277   0.00000  Uiso   1.00
C797   C     0.75580   0.87443   0.41757   0.00000  Uiso   1.00
C798   C     0.80208   0.89990   0.42227   0.00000  Uiso   1.00
C799   C     0.83027   0.90689   0.38291   0.00000  Uiso   1.00
H800   H     0.74487   0.85540   0.29768   0.00000  Uiso   1.00
H801   H     0.70011   0.83807   0.36887   0.00000  Uiso   1.00
H802   H     0.73461   0.86860   0.44846   0.00000  Uiso   1.00
H803   H     0.81584   0.91509   0.45638   0.00000  Uiso   1.00
H804   H     0.86650   0.92604   0.38833   0.00000  Uiso   1.00
O805   O     0.92551   0.76700   0.04061   0.00000  Uiso   1.00
H806   H     0.92521   0.75045   0.01036   0.00000  Uiso   1.00
O807   O     0.80182   0.67431   0.46891   0.00000  Uiso   1.00
H808   H     0.80646   0.64865   0.44869   0.00000  Uiso   1.00
C809   C     0.91515   0.79672   0.13221   0.00000  Uiso   1.00
C810   C     0.90245   0.83955   0.14267   0.00000  Uiso   1.00
C811   C     0.94034   0.87133   0.16033   0.00000  Uiso   1.00
C812   C     0.99177   0.86116   0.16524   0.00000  Uiso   1.00
C813   C     0.67167   0.81943   0.15179   0.00000  Uiso   1.00
C814   C     0.96703   0.78743   0.13540   0.00000  Uiso   1.00
H815   H     0.86339   0.84873   0.13515   0.00000  Uiso   1.00
H816   H     0.92994   0.90414   0.16883   0.00000  Uiso   1.00
H817   H     0.68789   0.88593   0.17824   0.00000  Uiso   1.00
H818   H     0.71120   0.81148   0.15339   0.00000  Uiso   1.00
H819   H     0.97820   0.75577   0.12395   0.00000  Uiso   1.00
C820   C     0.76474   0.68951   0.36923   0.00000  Uiso   1.00
C821   C     0.76534   0.64394   0.36129   0.00000  Uiso   1.00
C822   C     0.72108   0.61957   0.34250   0.00000  Uiso   1.00
C823   C     0.67473   0.63965   0.33468   0.00000  Uiso   1.00
C824   C     0.67257   0.68399   0.34641   0.00000  Uiso   1.00
C825   C     0.71745   0.70905   0.36268   0.00000  Uiso   1.00
H826   H     0.79885   0.62661   0.37226   0.00000  Uiso   1.00
H827   H     0.72208   0.58476   0.33576   0.00000  Uiso   1.00
H828   H     0.97380   0.62036   0.32092   0.00000  Uiso   1.00
H829   H     0.96940   0.69878   0.34349   0.00000  Uiso   1.00
H830   H     0.71526   0.74349   0.37161   0.00000  Uiso   1.00
C831   C     0.73849   0.72296   0.02205   0.00000  Uiso   1.00
C832   C     0.71646   0.75195   0.48734   0.00000  Uiso   1.00
C833   C     0.67100   0.73898   0.45905   0.00000  Uiso   1.00
C834   C     0.98061   0.69707   0.46503   0.00000  Uiso   1.00
C835   C     0.66822   0.66851   0.00028   0.00000  Uiso   1.00
C836   C     0.71334   0.68149   0.02905   0.00000  Uiso   1.00
H837   H     0.73475   0.78428   0.48181   0.00000  Uiso   1.00
H838   H     0.98765   0.76125   0.43212   0.00000  Uiso   1.00
H839   H     0.94560   0.68703   0.44281   0.00000  Uiso   1.00
H840   H     0.98296   0.63620   0.00518   0.00000  Uiso   1.00
H841   H     0.72955   0.65868   0.05571   0.00000  Uiso   1.00
C842   C     0.87757   0.82739   0.47360   0.00000  Uiso   1.00
C843   C     0.85191   0.84693   0.00903   0.00000  Uiso   1.00
C844   C     0.87424   0.88394   0.03438   0.00000  Uiso   1.00
C845   C     0.92219   0.90209   0.02458   0.00000  Uiso   1.00
C846   C     0.94781   0.88339   0.48915   0.00000  Uiso   1.00
C847   C     0.92570   0.84632   0.46371   0.00000  Uiso   1.00
H848   H     0.81427   0.83400   0.01664   0.00000  Uiso   1.00
H849   H     0.85405   0.89874   0.06134   0.00000  Uiso   1.00
H850   H     0.93938   0.93074   0.04431   0.00000  Uiso   1.00
H851   H     0.98496   0.89751   0.48152   0.00000  Uiso   1.00
H852   H     0.94667   0.83200   0.43695   0.00000  Uiso   1.00
O853   O     0.16667   0.18573   0.79072   0.00000  Uiso   1.00
O854   O     0.16666   0.31428   0.70928   0.00000  Uiso   1.00
O855   O     0.16667   0.18573   0.70928   0.00000  Uiso   1.00
O856   O     0.16666   0.31427   0.79072   0.00000  Uiso   1.00
C857   C     0.17369   0.16587   0.75072   0.00000  Uiso   1.00
C858   C     0.16305   0.33491   0.74945   0.00000  Uiso   1.00
O859   O     0.09161   0.25000   0.78132   0.00000  Uiso   1.00
O860   O     0.24172   0.25001   0.71868   0.00000  Uiso   1.00
O861   O     0.09161   0.25000   0.69988   0.00000  Uiso   1.00
O862   O     0.24172   0.25000   0.80012   0.00000  Uiso   1.00
C863   C     0.06812   0.24821   0.73826   0.00000  Uiso   1.00
C864   C     0.26522   0.25186   0.76177   0.00000  Uiso   1.00
Cu865  Cu    0.16667   0.25000   0.79822   0.00000  Uiso   1.00
Cu866  Cu    0.16667   0.25001   0.70178   0.00000  Uiso   1.00
C867   C     0.01317   0.24294   0.73297   0.00000  Uiso   1.00
C868   C     0.32020   0.25709   0.76723   0.00000  Uiso   1.00
H869   H     0.32749   0.22642   0.70112   0.00000  Uiso   1.00
H870   H     0.00585   0.27294   0.79956   0.00000  Uiso   1.00
C871   C     0.17407   0.04972   0.79503   0.00000  Uiso   1.00
C872   C     0.14873   0.45421   0.70688   0.00000  Uiso   1.00
C873   C     0.18788   0.09515   0.79587   0.00000  Uiso   1.00
C874   C     0.14567   0.40772   0.70586   0.00000  Uiso   1.00
C875   C     0.18601   0.11866   0.75201   0.00000  Uiso   1.00
C876   C     0.15809   0.38349   0.74898   0.00000  Uiso   1.00
C877   C     0.19378   0.09520   0.71012   0.00000  Uiso   1.00
C878   C     0.16705   0.40697   0.79267   0.00000  Uiso   1.00
C879   C     0.19401   0.04922   0.71210   0.00000  Uiso   1.00
C880   C     0.18386   0.45132   0.79051   0.00000  Uiso   1.00
H881   H     0.20427   0.03180   0.68121   0.00000  Uiso   1.00
H882   H     0.20187   0.46731   0.82272   0.00000  Uiso   1.00
C883   C     0.17858   0.02572   0.75218   0.00000  Uiso   1.00
C884   C     0.17084   0.47652   0.74926   0.00000  Uiso   1.00
C885   C     0.21181   0.25926   0.55802   0.00000  Uiso   1.00
C886   C     0.14911   0.21245   0.94504   0.00000  Uiso   1.00
C887   C     0.20882   0.26588   0.60755   0.00000  Uiso   1.00
C888   C     0.14274   0.21549   0.89398   0.00000  Uiso   1.00
N889   N     0.16667   0.25001   0.62934   0.00000  Uiso   1.00
N890   N     0.16667   0.24999   0.87066   0.00000  Uiso   1.00
C891   C     0.12425   0.23384   0.60098   0.00000  Uiso   1.00
C892   C     0.18995   0.28455   0.89715   0.00000  Uiso   1.00
H893   H     0.09076   0.22187   0.61772   0.00000  Uiso   1.00
H894   H     0.20762   0.31184   0.87847   0.00000  Uiso   1.00
C895   C     0.12182   0.23506   0.55003   0.00000  Uiso   1.00
C896   C     0.18854   0.28672   0.94782   0.00000  Uiso   1.00
C897   C     0.16685   0.24755   0.52735   0.00000  Uiso   1.00
C898   C     0.16751   0.24957   0.97266   0.00000  Uiso   1.00
C899   C     0.14899   0.03032   0.83657   0.00000  Uiso   1.00
C900   C     0.09955   0.00935   0.82875   0.00000  Uiso   1.00
C901   C     0.07403   0.49375   0.86761   0.00000  Uiso   1.00
C902   C     0.09758   0.49884   0.91461   0.00000  Uiso   1.00
C903   C     0.14729   0.01832   0.92276   0.00000  Uiso   1.00
C904   C     0.17309   0.03371   0.88400   0.00000  Uiso   1.00
H905   H     0.08021   0.00612   0.79266   0.00000  Uiso   1.00
H906   H     0.03579   0.47808   0.86129   0.00000  Uiso   1.00
H907   H     0.07768   0.48694   0.94468   0.00000  Uiso   1.00
H908   H     0.16591   0.02139   0.95914   0.00000  Uiso   1.00
H909   H     0.21188   0.04806   0.89111   0.00000  Uiso   1.00
C910   C     0.12424   0.47795   0.66459   0.00000  Uiso   1.00
C911   C     0.08017   0.00111   0.66867   0.00000  Uiso   1.00
C912   C     0.05549   0.02144   0.62823   0.00000  Uiso   1.00
C913   C     0.07468   0.01885   0.58354   0.00000  Uiso   1.00
C914   C     0.11872   0.49611   0.57927   0.00000  Uiso   1.00
C915   C     0.14339   0.47564   0.61958   0.00000  Uiso   1.00
H916   H     0.06460   0.00291   0.70294   0.00000  Uiso   1.00
H917   H     0.02145   0.03914   0.63151   0.00000  Uiso   1.00
H918   H     0.05559   0.03467   0.55230   0.00000  Uiso   1.00
H919   H     0.13367   0.49426   0.54471   0.00000  Uiso   1.00
H920   H     0.17752   0.45817   0.61595   0.00000  Uiso   1.00
O921   O     0.20517   0.11495   0.83927   0.00000  Uiso   1.00
H922   H     0.22675   0.14191   0.83334   0.00000  Uiso   1.00
O923   O     0.12589   0.38763   0.66329   0.00000  Uiso   1.00
H924   H     0.10746   0.35975   0.67104   0.00000  Uiso   1.00
C925   C     0.20456   0.11698   0.66444   0.00000  Uiso   1.00
C926   C     0.16912   0.11144   0.62341   0.00000  Uiso   1.00
C927   C     0.18064   0.12920   0.57924   0.00000  Uiso   1.00
C928   C     0.22764   0.15251   0.57575   0.00000  Uiso   1.00
C929   C     0.26301   0.15850   0.61657   0.00000  Uiso   1.00
C930   C     0.25151   0.14091   0.66093   0.00000  Uiso   1.00
H931   H     0.13272   0.09333   0.62574   0.00000  Uiso   1.00
H932   H     0.15323   0.12457   0.54771   0.00000  Uiso   1.00
H933   H     0.23650   0.16605   0.54142   0.00000  Uiso   1.00
H934   H     0.29953   0.17632   0.61370   0.00000  Uiso   1.00
H935   H     0.27942   0.14517   0.69224   0.00000  Uiso   1.00
C936   C     0.14380   0.39122   0.83698   0.00000  Uiso   1.00
C937   C     0.09606   0.36654   0.83254   0.00000  Uiso   1.00
C938   C     0.06976   0.35726   0.87277   0.00000  Uiso   1.00
C939   C     0.08914   0.37443   0.91757   0.00000  Uiso   1.00
C940   C     0.13542   0.39990   0.92227   0.00000  Uiso   1.00
C941   C     0.16361   0.40689   0.88291   0.00000  Uiso   1.00
H942   H     0.07820   0.35540   0.79768   0.00000  Uiso   1.00
H943   H     0.03344   0.33807   0.86887   0.00000  Uiso   1.00
H944   H     0.06795   0.36860   0.94846   0.00000  Uiso   1.00
H945   H     0.14917   0.41509   0.95638   0.00000  Uiso   1.00
H946   H     0.19983   0.42604   0.88833   0.00000  Uiso   1.00
O947   O     0.25884   0.26700   0.54061   0.00000  Uiso   1.00
H948   H     0.25854   0.25045   0.51036   0.00000  Uiso   1.00
O949   O     0.13516   0.17431   0.96891   0.00000  Uiso   1.00
H950   H     0.13980   0.14865   0.94869   0.00000  Uiso   1.00
C951   C     0.24848   0.29672   0.63221   0.00000  Uiso   1.00
C952   C     0.23579   0.33955   0.64267   0.00000  Uiso   1.00
C953   C     0.27367   0.37133   0.66033   0.00000  Uiso   1.00
C954   C     0.32510   0.36116   0.66524   0.00000  Uiso   1.00
C955   C     0.00501   0.31943   0.65179   0.00000  Uiso   1.00
C956   C     0.30036   0.28743   0.63540   0.00000  Uiso   1.00
H957   H     0.19673   0.34873   0.63515   0.00000  Uiso   1.00
H958   H     0.26327   0.40414   0.66883   0.00000  Uiso   1.00
H959   H     0.02123   0.38593   0.67824   0.00000  Uiso   1.00
H960   H     0.04453   0.31148   0.65339   0.00000  Uiso   1.00
H961   H     0.31154   0.25577   0.62395   0.00000  Uiso   1.00
C962   C     0.09808   0.18951   0.86923   0.00000  Uiso   1.00
C963   C     0.09868   0.14394   0.86129   0.00000  Uiso   1.00
C964   C     0.05441   0.11957   0.84250   0.00000  Uiso   1.00
C965   C     0.00806   0.13965   0.83468   0.00000  Uiso   1.00
C966   C     0.00591   0.18399   0.84641   0.00000  Uiso   1.00
C967   C     0.05078   0.20905   0.86268   0.00000  Uiso   1.00
H968   H     0.13218   0.12661   0.87226   0.00000  Uiso   1.00
H969   H     0.05541   0.08476   0.83576   0.00000  Uiso   1.00
H970   H     0.30713   0.12036   0.82092   0.00000  Uiso   1.00
H971   H     0.30273   0.19878   0.84349   0.00000  Uiso   1.00
H972   H     0.04859   0.24349   0.87161   0.00000  Uiso   1.00
C973   C     0.07182   0.22296   0.52205   0.00000  Uiso   1.00
C974   C     0.04979   0.25195   0.98734   0.00000  Uiso   1.00
C975   C     0.00433   0.23898   0.95905   0.00000  Uiso   1.00
C976   C     0.31394   0.19707   0.96503   0.00000  Uiso   1.00
C977   C     0.00156   0.16851   0.50028   0.00000  Uiso   1.00
C978   C     0.04668   0.18149   0.52905   0.00000  Uiso   1.00
H979   H     0.06808   0.28428   0.98181   0.00000  Uiso   1.00
H980   H     0.32099   0.26125   0.93212   0.00000  Uiso   1.00
H981   H     0.27893   0.18703   0.94281   0.00000  Uiso   1.00
H982   H     0.31629   0.13620   0.50518   0.00000  Uiso   1.00
H983   H     0.06288   0.15868   0.55571   0.00000  Uiso   1.00
C984   C     0.21090   0.32739   0.97360   0.00000  Uiso   1.00
C985   C     0.18524   0.34693   0.50903   0.00000  Uiso   1.00
C986   C     0.20758   0.38394   0.53438   0.00000  Uiso   1.00
C987   C     0.25552   0.40209   0.52458   0.00000  Uiso   1.00
C988   C     0.28115   0.38339   0.98915   0.00000  Uiso   1.00
C989   C     0.25904   0.34632   0.96371   0.00000  Uiso   1.00
H990   H     0.14760   0.33400   0.51664   0.00000  Uiso   1.00
H991   H     0.18738   0.39874   0.56134   0.00000  Uiso   1.00
H992   H     0.27271   0.43074   0.54431   0.00000  Uiso   1.00
H993   H     0.31830   0.39751   0.98152   0.00000  Uiso   1.00
H994   H     0.28000   0.33200   0.93695   0.00000  Uiso   1.00
O995   O     0.50000   0.18573   0.79072   0.00000  Uiso   1.00
O996   O     0.50000   0.31428   0.70928   0.00000  Uiso   1.00
O997   O     0.50000   0.18573   0.70928   0.00000  Uiso   1.00
O998   O     0.50000   0.31427   0.79072   0.00000  Uiso   1.00
C999   C     0.50702   0.16587   0.75072   0.00000  Uiso   1.00
C1000  C     0.49638   0.33491   0.74945   0.00000  Uiso   1.00
O1001  O     0.42495   0.25000   0.78132   0.00000  Uiso   1.00
O1002  O     0.57505   0.25001   0.71868   0.00000  Uiso   1.00
O1003  O     0.42495   0.25000   0.69988   0.00000  Uiso   1.00
O1004  O     0.57505   0.25000   0.80012   0.00000  Uiso   1.00
C1005  C     0.40145   0.24821   0.73826   0.00000  Uiso   1.00
C1006  C     0.59856   0.25186   0.76177   0.00000  Uiso   1.00
Cu1007 Cu    0.50000   0.25000   0.79822   0.00000  Uiso   1.00
Cu1008 Cu    0.50000   0.25001   0.70178   0.00000  Uiso   1.00
C1009  C     0.34650   0.24294   0.73297   0.00000  Uiso   1.00
C1010  C     0.65354   0.25709   0.76723   0.00000  Uiso   1.00
H1011  H     0.66083   0.22642   0.70112   0.00000  Uiso   1.00
H1012  H     0.33919   0.27294   0.79956   0.00000  Uiso   1.00
C1013  C     0.50740   0.04972   0.79503   0.00000  Uiso   1.00
C1014  C     0.48206   0.45421   0.70688   0.00000  Uiso   1.00
C1015  C     0.52122   0.09515   0.79587   0.00000  Uiso   1.00
C1016  C     0.47900   0.40772   0.70586   0.00000  Uiso   1.00
C1017  C     0.51934   0.11866   0.75201   0.00000  Uiso   1.00
C1018  C     0.49142   0.38349   0.74898   0.00000  Uiso   1.00
C1019  C     0.52711   0.09520   0.71012   0.00000  Uiso   1.00
C1020  C     0.50038   0.40697   0.79267   0.00000  Uiso   1.00
C1021  C     0.52735   0.04922   0.71210   0.00000  Uiso   1.00
C1022  C     0.51719   0.45132   0.79051   0.00000  Uiso   1.00
H1023  H     0.53761   0.03180   0.68121   0.00000  Uiso   1.00
H1024  H     0.53520   0.46731   0.82272   0.00000  Uiso   1.00
C1025  C     0.51191   0.02572   0.75218   0.00000  Uiso   1.00
C1026  C     0.50417   0.47652   0.74926   0.00000  Uiso   1.00
C1027  C     0.54514   0.25926   0.55802   0.00000  Uiso   1.00
C1028  C     0.48244   0.21245   0.94504   0.00000  Uiso   1.00
C1029  C     0.54216   0.26588   0.60755   0.00000  Uiso   1.00
C1030  C     0.47607   0.21549   0.89398   0.00000  Uiso   1.00
N1031  N     0.50000   0.25001   0.62934   0.00000  Uiso   1.00
N1032  N     0.50000   0.24999   0.87066   0.00000  Uiso   1.00
C1033  C     0.45758   0.23384   0.60098   0.00000  Uiso   1.00
C1034  C     0.52328   0.28455   0.89715   0.00000  Uiso   1.00
H1035  H     0.42409   0.22187   0.61772   0.00000  Uiso   1.00
H1036  H     0.54095   0.31184   0.87847   0.00000  Uiso   1.00
C1037  C     0.45515   0.23506   0.55003   0.00000  Uiso   1.00
C1038  C     0.52187   0.28672   0.94782   0.00000  Uiso   1.00
C1039  C     0.50018   0.24755   0.52735   0.00000  Uiso   1.00
C1040  C     0.50084   0.24957   0.97266   0.00000  Uiso   1.00
C1041  C     0.48232   0.03032   0.83657   0.00000  Uiso   1.00
C1042  C     0.43288   0.00935   0.82875   0.00000  Uiso   1.00
C1043  C     0.40736   0.49375   0.86761   0.00000  Uiso   1.00
C1044  C     0.43091   0.49884   0.91461   0.00000  Uiso   1.00
C1045  C     0.48062   0.01832   0.92276   0.00000  Uiso   1.00
C1046  C     0.50643   0.03371   0.88400   0.00000  Uiso   1.00
H1047  H     0.41354   0.00612   0.79266   0.00000  Uiso   1.00
H1048  H     0.36913   0.47808   0.86129   0.00000  Uiso   1.00
H1049  H     0.41102   0.48694   0.94468   0.00000  Uiso   1.00
H1050  H     0.49924   0.02139   0.95914   0.00000  Uiso   1.00
H1051  H     0.54521   0.04806   0.89111   0.00000  Uiso   1.00
C1052  C     0.45757   0.47795   0.66459   0.00000  Uiso   1.00
C1053  C     0.41351   0.00111   0.66867   0.00000  Uiso   1.00
C1054  C     0.38883   0.02144   0.62823   0.00000  Uiso   1.00
C1055  C     0.40801   0.01885   0.58354   0.00000  Uiso   1.00
C1056  C     0.45205   0.49611   0.57927   0.00000  Uiso   1.00
C1057  C     0.47673   0.47564   0.61958   0.00000  Uiso   1.00
H1058  H     0.39793   0.00291   0.70294   0.00000  Uiso   1.00
H1059  H     0.35478   0.03914   0.63151   0.00000  Uiso   1.00
H1060  H     0.38893   0.03467   0.55230   0.00000  Uiso   1.00
H1061  H     0.46701   0.49426   0.54471   0.00000  Uiso   1.00
H1062  H     0.51086   0.45817   0.61595   0.00000  Uiso   1.00
O1063  O     0.53850   0.11495   0.83927   0.00000  Uiso   1.00
H1064  H     0.56008   0.14191   0.83334   0.00000  Uiso   1.00
O1065  O     0.45923   0.38763   0.66329   0.00000  Uiso   1.00
H1066  H     0.44079   0.35975   0.67104   0.00000  Uiso   1.00
C1067  C     0.53790   0.11698   0.66444   0.00000  Uiso   1.00
C1068  C     0.50245   0.11144   0.62341   0.00000  Uiso   1.00
C1069  C     0.51397   0.12920   0.57924   0.00000  Uiso   1.00
C1070  C     0.56097   0.15251   0.57575   0.00000  Uiso   1.00
C1071  C     0.59635   0.15850   0.61657   0.00000  Uiso   1.00
C1072  C     0.58485   0.14091   0.66093   0.00000  Uiso   1.00
H1073  H     0.46605   0.09333   0.62574   0.00000  Uiso   1.00
H1074  H     0.48656   0.12457   0.54771   0.00000  Uiso   1.00
H1075  H     0.56983   0.16605   0.54142   0.00000  Uiso   1.00
H1076  H     0.63286   0.17632   0.61370   0.00000  Uiso   1.00
H1077  H     0.61275   0.14517   0.69224   0.00000  Uiso   1.00
C1078  C     0.47713   0.39122   0.83698   0.00000  Uiso   1.00
C1079  C     0.42939   0.36654   0.83254   0.00000  Uiso   1.00
C1080  C     0.40310   0.35726   0.87277   0.00000  Uiso   1.00
C1081  C     0.42247   0.37443   0.91757   0.00000  Uiso   1.00
C1082  C     0.46875   0.39990   0.92227   0.00000  Uiso   1.00
C1083  C     0.49694   0.40689   0.88291   0.00000  Uiso   1.00
H1084  H     0.41153   0.35540   0.79768   0.00000  Uiso   1.00
H1085  H     0.36678   0.33807   0.86887   0.00000  Uiso   1.00
H1086  H     0.40128   0.36860   0.94846   0.00000  Uiso   1.00
H1087  H     0.48250   0.41509   0.95638   0.00000  Uiso   1.00
H1088  H     0.53316   0.42604   0.88833   0.00000  Uiso   1.00
O1089  O     0.59217   0.26700   0.54061   0.00000  Uiso   1.00
H1090  H     0.59187   0.25045   0.51036   0.00000  Uiso   1.00
O1091  O     0.46849   0.17431   0.96891   0.00000  Uiso   1.00
H1092  H     0.47313   0.14865   0.94869   0.00000  Uiso   1.00
C1093  C     0.58181   0.29672   0.63221   0.00000  Uiso   1.00
C1094  C     0.56912   0.33955   0.64267   0.00000  Uiso   1.00
C1095  C     0.60701   0.37133   0.66033   0.00000  Uiso   1.00
C1096  C     0.65843   0.36116   0.66524   0.00000  Uiso   1.00
C1097  C     0.33834   0.31943   0.65179   0.00000  Uiso   1.00
C1098  C     0.63369   0.28743   0.63540   0.00000  Uiso   1.00
H1099  H     0.53006   0.34873   0.63515   0.00000  Uiso   1.00
H1100  H     0.59661   0.40414   0.66883   0.00000  Uiso   1.00
H1101  H     0.35456   0.38593   0.67824   0.00000  Uiso   1.00
H1102  H     0.37787   0.31148   0.65339   0.00000  Uiso   1.00
H1103  H     0.64487   0.25577   0.62395   0.00000  Uiso   1.00
C1104  C     0.43141   0.18951   0.86923   0.00000  Uiso   1.00
C1105  C     0.43201   0.14394   0.86129   0.00000  Uiso   1.00
C1106  C     0.38774   0.11957   0.84250   0.00000  Uiso   1.00
C1107  C     0.34140   0.13965   0.83468   0.00000  Uiso   1.00
C1108  C     0.33924   0.18399   0.84641   0.00000  Uiso   1.00
C1109  C     0.38412   0.20905   0.86268   0.00000  Uiso   1.00
H1110  H     0.46552   0.12661   0.87226   0.00000  Uiso   1.00
H1111  H     0.38875   0.08476   0.83576   0.00000  Uiso   1.00
H1112  H     0.64047   0.12036   0.82092   0.00000  Uiso   1.00
H1113  H     0.63606   0.19878   0.84349   0.00000  Uiso   1.00
H1114  H     0.38192   0.24349   0.87161   0.00000  Uiso   1.00
C1115  C     0.40516   0.22296   0.52205   0.00000  Uiso   1.00
C1116  C     0.38313   0.25195   0.98734   0.00000  Uiso   1.00
C1117  C     0.33766   0.23898   0.95905   0.00000  Uiso   1.00
C1118  C     0.64728   0.19707   0.96503   0.00000  Uiso   1.00
C1119  C     0.33489   0.16851   0.50028   0.00000  Uiso   1.00
C1120  C     0.38001   0.18149   0.52905   0.00000  Uiso   1.00
H1121  H     0.40142   0.28428   0.98181   0.00000  Uiso   1.00
H1122  H     0.65432   0.26125   0.93212   0.00000  Uiso   1.00
H1123  H     0.61227   0.18703   0.94281   0.00000  Uiso   1.00
H1124  H     0.64962   0.13620   0.50518   0.00000  Uiso   1.00
H1125  H     0.39621   0.15868   0.55571   0.00000  Uiso   1.00
C1126  C     0.54424   0.32739   0.97360   0.00000  Uiso   1.00
C1127  C     0.51857   0.34693   0.50903   0.00000  Uiso   1.00
C1128  C     0.54091   0.38394   0.53438   0.00000  Uiso   1.00
C1129  C     0.58886   0.40209   0.52458   0.00000  Uiso   1.00
C1130  C     0.61448   0.38339   0.98915   0.00000  Uiso   1.00
C1131  C     0.59237   0.34632   0.96371   0.00000  Uiso   1.00
H1132  H     0.48093   0.33400   0.51664   0.00000  Uiso   1.00
H1133  H     0.52071   0.39874   0.56134   0.00000  Uiso   1.00
H1134  H     0.60604   0.43074   0.54431   0.00000  Uiso   1.00
H1135  H     0.65163   0.39751   0.98152   0.00000  Uiso   1.00
H1136  H     0.61333   0.33200   0.93695   0.00000  Uiso   1.00
O1137  O     0.83334   0.18573   0.79072   0.00000  Uiso   1.00
O1138  O     0.83333   0.31428   0.70928   0.00000  Uiso   1.00
O1139  O     0.83334   0.18573   0.70928   0.00000  Uiso   1.00
O1140  O     0.83333   0.31427   0.79072   0.00000  Uiso   1.00
C1141  C     0.84036   0.16587   0.75072   0.00000  Uiso   1.00
C1142  C     0.82972   0.33491   0.74945   0.00000  Uiso   1.00
O1143  O     0.75828   0.25000   0.78132   0.00000  Uiso   1.00
O1144  O     0.90839   0.25001   0.71868   0.00000  Uiso   1.00
O1145  O     0.75828   0.25000   0.69988   0.00000  Uiso   1.00
O1146  O     0.90839   0.25000   0.80012   0.00000  Uiso   1.00
C1147  C     0.73479   0.24821   0.73826   0.00000  Uiso   1.00
C1148  C     0.93189   0.25186   0.76177   0.00000  Uiso   1.00
Cu1149 Cu    0.83333   0.25000   0.79822   0.00000  Uiso   1.00
Cu1150 Cu    0.83333   0.25001   0.70178   0.00000  Uiso   1.00
C1151  C     0.67984   0.24294   0.73297   0.00000  Uiso   1.00
C1152  C     0.98687   0.25709   0.76723   0.00000  Uiso   1.00
H1153  H     0.99416   0.22642   0.70112   0.00000  Uiso   1.00
H1154  H     0.67252   0.27294   0.79956   0.00000  Uiso   1.00
C1155  C     0.84073   0.04972   0.79503   0.00000  Uiso   1.00
C1156  C     0.81539   0.45421   0.70688   0.00000  Uiso   1.00
C1157  C     0.85455   0.09515   0.79587   0.00000  Uiso   1.00
C1158  C     0.81234   0.40772   0.70586   0.00000  Uiso   1.00
C1159  C     0.85267   0.11866   0.75201   0.00000  Uiso   1.00
C1160  C     0.82476   0.38349   0.74898   0.00000  Uiso   1.00
C1161  C     0.86045   0.09520   0.71012   0.00000  Uiso   1.00
C1162  C     0.83371   0.40697   0.79267   0.00000  Uiso   1.00
C1163  C     0.86068   0.04922   0.71210   0.00000  Uiso   1.00
C1164  C     0.85052   0.45132   0.79051   0.00000  Uiso   1.00
H1165  H     0.87094   0.03180   0.68121   0.00000  Uiso   1.00
H1166  H     0.86853   0.46731   0.82272   0.00000  Uiso   1.00
C1167  C     0.84525   0.02572   0.75218   0.00000  Uiso   1.00
C1168  C     0.83751   0.47652   0.74926   0.00000  Uiso   1.00
C1169  C     0.87847   0.25926   0.55802   0.00000  Uiso   1.00
C1170  C     0.81578   0.21245   0.94504   0.00000  Uiso   1.00
C1171  C     0.87549   0.26588   0.60755   0.00000  Uiso   1.00
C1172  C     0.80940   0.21549   0.89398   0.00000  Uiso   1.00
N1173  N     0.83333   0.25001   0.62934   0.00000  Uiso   1.00
N1174  N     0.83333   0.24999   0.87066   0.00000  Uiso   1.00
C1175  C     0.79091   0.23384   0.60098   0.00000  Uiso   1.00
C1176  C     0.85661   0.28455   0.89715   0.00000  Uiso   1.00
H1177  H     0.75742   0.22187   0.61772   0.00000  Uiso   1.00
H1178  H     0.87429   0.31184   0.87847   0.00000  Uiso   1.00
C1179  C     0.78849   0.23506   0.55003   0.00000  Uiso   1.00
C1180  C     0.85520   0.28672   0.94782   0.00000  Uiso   1.00
C1181  C     0.83352   0.24755   0.52735   0.00000  Uiso   1.00
C1182  C     0.83417   0.24957   0.97266   0.00000  Uiso   1.00
C1183  C     0.81565   0.03032   0.83657   0.00000  Uiso   1.00
C1184  C     0.76621   0.00935   0.82875   0.00000  Uiso   1.00
C1185  C     0.74070   0.49375   0.86761   0.00000  Uiso   1.00
C1186  C     0.76425   0.49884   0.91461   0.00000  Uiso   1.00
C1187  C     0.81396   0.01832   0.92276   0.00000  Uiso   1.00
C1188  C     0.83976   0.03371   0.88400   0.00000  Uiso   1.00
H1189  H     0.74688   0.00612   0.79266   0.00000  Uiso   1.00
H1190  H     0.70246   0.47808   0.86129   0.00000  Uiso   1.00
H1191  H     0.74435   0.48694   0.94468   0.00000  Uiso   1.00
H1192  H     0.83257   0.02139   0.95914   0.00000  Uiso   1.00
H1193  H     0.87854   0.04806   0.89111   0.00000  Uiso   1.00
C1194  C     0.79091   0.47795   0.66459   0.00000  Uiso   1.00
C1195  C     0.74684   0.00111   0.66867   0.00000  Uiso   1.00
C1196  C     0.72216   0.02144   0.62823   0.00000  Uiso   1.00
C1197  C     0.74134   0.01885   0.58354   0.00000  Uiso   1.00
C1198  C     0.78539   0.49611   0.57927   0.00000  Uiso   1.00
C1199  C     0.81006   0.47564   0.61958   0.00000  Uiso   1.00
H1200  H     0.73127   0.00291   0.70294   0.00000  Uiso   1.00
H1201  H     0.68811   0.03914   0.63151   0.00000  Uiso   1.00
H1202  H     0.72226   0.03467   0.55230   0.00000  Uiso   1.00
H1203  H     0.80034   0.49426   0.54471   0.00000  Uiso   1.00
H1204  H     0.84419   0.45817   0.61595   0.00000  Uiso   1.00
O1205  O     0.87184   0.11495   0.83927   0.00000  Uiso   1.00
H1206  H     0.89342   0.14191   0.83334   0.00000  Uiso   1.00
O1207  O     0.79256   0.38763   0.66329   0.00000  Uiso   1.00
H1208  H     0.77412   0.35975   0.67104   0.00000  Uiso   1.00
C1209  C     0.87123   0.11698   0.66444   0.00000  Uiso   1.00
C1210  C     0.83579   0.11144   0.62341   0.00000  Uiso   1.00
C1211  C     0.84730   0.12920   0.57924   0.00000  Uiso   1.00
C1212  C     0.89431   0.15251   0.57575   0.00000  Uiso   1.00
C1213  C     0.92968   0.15850   0.61657   0.00000  Uiso   1.00
C1214  C     0.91818   0.14091   0.66093   0.00000  Uiso   1.00
H1215  H     0.79938   0.09333   0.62574   0.00000  Uiso   1.00
H1216  H     0.81990   0.12457   0.54771   0.00000  Uiso   1.00
H1217  H     0.90317   0.16605   0.54142   0.00000  Uiso   1.00
H1218  H     0.96619   0.17632   0.61370   0.00000  Uiso   1.00
H1219  H     0.94608   0.14517   0.69224   0.00000  Uiso   1.00
C1220  C     0.81046   0.39122   0.83698   0.00000  Uiso   1.00
C1221  C     0.76273   0.36654   0.83254   0.00000  Uiso   1.00
C1222  C     0.73643   0.35726   0.87277   0.00000  Uiso   1.00
C1223  C     0.75580   0.37443   0.91757   0.00000  Uiso   1.00
C1224  C     0.80208   0.39990   0.92227   0.00000  Uiso   1.00
C1225  C     0.83027   0.40689   0.88291   0.00000  Uiso   1.00
H1226  H     0.74487   0.35540   0.79768   0.00000  Uiso   1.00
H1227  H     0.70011   0.33807   0.86887   0.00000  Uiso   1.00
H1228  H     0.73461   0.36860   0.94846   0.00000  Uiso   1.00
H1229  H     0.81584   0.41509   0.95638   0.00000  Uiso   1.00
H1230  H     0.86650   0.42604   0.88833   0.00000  Uiso   1.00
O1231  O     0.92551   0.26700   0.54061   0.00000  Uiso   1.00
H1232  H     0.92521   0.25045   0.51036   0.00000  Uiso   1.00
O1233  O     0.80182   0.17431   0.96891   0.00000  Uiso   1.00
H1234  H     0.80646   0.14865   0.94869   0.00000  Uiso   1.00
C1235  C     0.91515   0.29672   0.63221   0.00000  Uiso   1.00
C1236  C     0.90245   0.33955   0.64267   0.00000  Uiso   1.00
C1237  C     0.94034   0.37133   0.66033   0.00000  Uiso   1.00
C1238  C     0.99177   0.36116   0.66524   0.00000  Uiso   1.00
C1239  C     0.67167   0.31943   0.65179   0.00000  Uiso   1.00
C1240  C     0.96703   0.28743   0.63540   0.00000  Uiso   1.00
H1241  H     0.86339   0.34873   0.63515   0.00000  Uiso   1.00
H1242  H     0.92994   0.40414   0.66883   0.00000  Uiso   1.00
H1243  H     0.68789   0.38593   0.67824   0.00000  Uiso   1.00
H1244  H     0.71120   0.31148   0.65339   0.00000  Uiso   1.00
H1245  H     0.97820   0.25577   0.62395   0.00000  Uiso   1.00
C1246  C     0.76474   0.18951   0.86923   0.00000  Uiso   1.00
C1247  C     0.76534   0.14394   0.86129   0.00000  Uiso   1.00
C1248  C     0.72108   0.11957   0.84250   0.00000  Uiso   1.00
C1249  C     0.67473   0.13965   0.83468   0.00000  Uiso   1.00
C1250  C     0.67257   0.18399   0.84641   0.00000  Uiso   1.00
C1251  C     0.71745   0.20905   0.86268   0.00000  Uiso   1.00
H1252  H     0.79885   0.12661   0.87226   0.00000  Uiso   1.00
H1253  H     0.72208   0.08476   0.83576   0.00000  Uiso   1.00
H1254  H     0.97380   0.12036   0.82092   0.00000  Uiso   1.00
H1255  H     0.96940   0.19878   0.84349   0.00000  Uiso   1.00
H1256  H     0.71526   0.24349   0.87161   0.00000  Uiso   1.00
C1257  C     0.73849   0.22296   0.52205   0.00000  Uiso   1.00
C1258  C     0.71646   0.25195   0.98734   0.00000  Uiso   1.00
C1259  C     0.67100   0.23898   0.95905   0.00000  Uiso   1.00
C1260  C     0.98061   0.19707   0.96503   0.00000  Uiso   1.00
C1261  C     0.66822   0.16851   0.50028   0.00000  Uiso   1.00
C1262  C     0.71334   0.18149   0.52905   0.00000  Uiso   1.00
H1263  H     0.73475   0.28428   0.98181   0.00000  Uiso   1.00
H1264  H     0.98765   0.26125   0.93212   0.00000  Uiso   1.00
H1265  H     0.94560   0.18703   0.94281   0.00000  Uiso   1.00
H1266  H     0.98296   0.13620   0.50518   0.00000  Uiso   1.00
H1267  H     0.72955   0.15868   0.55571   0.00000  Uiso   1.00
C1268  C     0.87757   0.32739   0.97360   0.00000  Uiso   1.00
C1269  C     0.85191   0.34693   0.50903   0.00000  Uiso   1.00
C1270  C     0.87424   0.38394   0.53438   0.00000  Uiso   1.00
C1271  C     0.92219   0.40209   0.52458   0.00000  Uiso   1.00
C1272  C     0.94781   0.38339   0.98915   0.00000  Uiso   1.00
C1273  C     0.92570   0.34632   0.96371   0.00000  Uiso   1.00
H1274  H     0.81427   0.33400   0.51664   0.00000  Uiso   1.00
H1275  H     0.85405   0.39874   0.56134   0.00000  Uiso   1.00
H1276  H     0.93938   0.43074   0.54431   0.00000  Uiso   1.00
H1277  H     0.98496   0.39751   0.98152   0.00000  Uiso   1.00
H1278  H     0.94667   0.33200   0.93695   0.00000  Uiso   1.00
O1279  O     0.16667   0.68573   0.79072   0.00000  Uiso   1.00
O1280  O     0.16666   0.81428   0.70928   0.00000  Uiso   1.00
O1281  O     0.16667   0.68573   0.70928   0.00000  Uiso   1.00
O1282  O     0.16666   0.81427   0.79072   0.00000  Uiso   1.00
C1283  C     0.17369   0.66587   0.75072   0.00000  Uiso   1.00
C1284  C     0.16305   0.83491   0.74945   0.00000  Uiso   1.00
O1285  O     0.09161   0.75000   0.78132   0.00000  Uiso   1.00
O1286  O     0.24172   0.75001   0.71868   0.00000  Uiso   1.00
O1287  O     0.09161   0.75000   0.69988   0.00000  Uiso   1.00
O1288  O     0.24172   0.75000   0.80012   0.00000  Uiso   1.00
C1289  C     0.06812   0.74821   0.73826   0.00000  Uiso   1.00
C1290  C     0.26522   0.75186   0.76177   0.00000  Uiso   1.00
Cu1291 Cu    0.16667   0.75000   0.79822   0.00000  Uiso   1.00
Cu1292 Cu    0.16667   0.75001   0.70178   0.00000  Uiso   1.00
C1293  C     0.01317   0.74294   0.73297   0.00000  Uiso   1.00
C1294  C     0.32020   0.75709   0.76723   0.00000  Uiso   1.00
H1295  H     0.32749   0.72642   0.70112   0.00000  Uiso   1.00
H1296  H     0.00585   0.77294   0.79956   0.00000  Uiso   1.00
C1297  C     0.17407   0.54972   0.79503   0.00000  Uiso   1.00
C1298  C     0.14873   0.95421   0.70688   0.00000  Uiso   1.00
C1299  C     0.18788   0.59515   0.79587   0.00000  Uiso   1.00
C1300  C     0.14567   0.90772   0.70586   0.00000  Uiso   1.00
C1301  C     0.18601   0.61866   0.75201   0.00000  Uiso   1.00
C1302  C     0.15809   0.88349   0.74898   0.00000  Uiso   1.00
C1303  C     0.19378   0.59520   0.71012   0.00000  Uiso   1.00
C1304  C     0.16705   0.90697   0.79267   0.00000  Uiso   1.00
C1305  C     0.19401   0.54922   0.71210   0.00000  Uiso   1.00
C1306  C     0.18386   0.95132   0.79051   0.00000  Uiso   1.00
H1307  H     0.20427   0.53180   0.68121   0.00000  Uiso   1.00
H1308  H     0.20187   0.96731   0.82272   0.00000  Uiso   1.00
C1309  C     0.17858   0.52572   0.75218   0.00000  Uiso   1.00
C1310  C     0.17084   0.97652   0.74926   0.00000  Uiso   1.00
C1311  C     0.21181   0.75926   0.55802   0.00000  Uiso   1.00
C1312  C     0.14911   0.71245   0.94504   0.00000  Uiso   1.00
C1313  C     0.20882   0.76588   0.60755   0.00000  Uiso   1.00
C1314  C     0.14274   0.71549   0.89398   0.00000  Uiso   1.00
N1315  N     0.16667   0.75001   0.62934   0.00000  Uiso   1.00
N1316  N     0.16667   0.74999   0.87066   0.00000  Uiso   1.00
C1317  C     0.12425   0.73384   0.60098   0.00000  Uiso   1.00
C1318  C     0.18995   0.78455   0.89715   0.00000  Uiso   1.00
H1319  H     0.09076   0.72187   0.61772   0.00000  Uiso   1.00
H1320  H     0.20762   0.81184   0.87847   0.00000  Uiso   1.00
C1321  C     0.12182   0.73506   0.55003   0.00000  Uiso   1.00
C1322  C     0.18854   0.78672   0.94782   0.00000  Uiso   1.00
C1323  C     0.16685   0.74755   0.52735   0.00000  Uiso   1.00
C1324  C     0.16751   0.74957   0.97266   0.00000  Uiso   1.00
C1325  C     0.14899   0.53032   0.83657   0.00000  Uiso   1.00
C1326  C     0.09955   0.50935   0.82875   0.00000  Uiso   1.00
C1327  C     0.07403   0.99375   0.86761   0.00000  Uiso   1.00
C1328  C     0.09758   0.99884   0.91461   0.00000  Uiso   1.00
C1329  C     0.14729   0.51832   0.92276   0.00000  Uiso   1.00
C1330  C     0.17309   0.53371   0.88400   0.00000  Uiso   1.00
H1331  H     0.08021   0.50612   0.79266   0.00000  Uiso   1.00
H1332  H     0.03579   0.97808   0.86129   0.00000  Uiso   1.00
H1333  H     0.07768   0.98694   0.94468   0.00000  Uiso   1.00
H1334  H     0.16591   0.52139   0.95914   0.00000  Uiso   1.00
H1335  H     0.21188   0.54806   0.89111   0.00000  Uiso   1.00
C1336  C     0.12424   0.97795   0.66459   0.00000  Uiso   1.00
C1337  C     0.08017   0.50111   0.66867   0.00000  Uiso   1.00
C1338  C     0.05549   0.52144   0.62823   0.00000  Uiso   1.00
C1339  C     0.07468   0.51885   0.58354   0.00000  Uiso   1.00
C1340  C     0.11872   0.99611   0.57927   0.00000  Uiso   1.00
C1341  C     0.14339   0.97564   0.61958   0.00000  Uiso   1.00
H1342  H     0.06460   0.50291   0.70294   0.00000  Uiso   1.00
H1343  H     0.02145   0.53914   0.63151   0.00000  Uiso   1.00
H1344  H     0.05559   0.53467   0.55230   0.00000  Uiso   1.00
H1345  H     0.13367   0.99426   0.54471   0.00000  Uiso   1.00
H1346  H     0.17752   0.95817   0.61595   0.00000  Uiso   1.00
O1347  O     0.20517   0.61495   0.83927   0.00000  Uiso   1.00
H1348  H     0.22675   0.64191   0.83334   0.00000  Uiso   1.00
O1349  O     0.12589   0.88763   0.66329   0.00000  Uiso   1.00
H1350  H     0.10746   0.85975   0.67104   0.00000  Uiso   1.00
C1351  C     0.20456   0.61698   0.66444   0.00000  Uiso   1.00
C1352  C     0.16912   0.61144   0.62341   0.00000  Uiso   1.00
C1353  C     0.18064   0.62920   0.57924   0.00000  Uiso   1.00
C1354  C     0.22764   0.65251   0.57575   0.00000  Uiso   1.00
C1355  C     0.26301   0.65850   0.61657   0.00000  Uiso   1.00
C1356  C     0.25151   0.64091   0.66093   0.00000  Uiso   1.00
H1357  H     0.13272   0.59333   0.62574   0.00000  Uiso   1.00
H1358  H     0.15323   0.62457   0.54771   0.00000  Uiso   1.00
H1359  H     0.23650   0.66605   0.54142   0.00000  Uiso   1.00
H1360  H     0.29953   0.67632   0.61370   0.00000  Uiso   1.00
H1361  H     0.27942   0.64517   0.69224   0.00000  Uiso   1.00
C1362  C     0.14380   0.89122   0.83698   0.00000  Uiso   1.00
C1363  C     0.09606   0.86654   0.83254   0.00000  Uiso   1.00
C1364  C     0.06976   0.85726   0.87277   0.00000  Uiso   1.00
C1365  C     0.08914   0.87443   0.91757   0.00000  Uiso   1.00
C1366  C     0.13542   0.89990   0.92227   0.00000  Uiso   1.00
C1367  C     0.16361   0.90689   0.88291   0.00000  Uiso   1.00
H1368  H     0.07820   0.85540   0.79768   0.00000  Uiso   1.00
H1369  H     0.03344   0.83807   0.86887   0.00000  Uiso   1.00
H1370  H     0.06795   0.86860   0.94846   0.00000  Uiso   1.00
H1371  H     0.14917   0.91509   0.95638   0.00000  Uiso   1.00
H1372  H     0.19983   0.92604   0.88833   0.00000  Uiso   1.00
O1373  O     0.25884   0.76700   0.54061   0.00000  Uiso   1.00
H1374  H     0.25854   0.75045   0.51036   0.00000  Uiso   1.00
O1375  O     0.13516   0.67431   0.96891   0.00000  Uiso   1.00
H1376  H     0.13980   0.64865   0.94869   0.00000  Uiso   1.00
C1377  C     0.24848   0.79672   0.63221   0.00000  Uiso   1.00
C1378  C     0.23579   0.83955   0.64267   0.00000  Uiso   1.00
C1379  C     0.27367   0.87133   0.66033   0.00000  Uiso   1.00
C1380  C     0.32510   0.86116   0.66524   0.00000  Uiso   1.00
C1381  C     0.00501   0.81943   0.65179   0.00000  Uiso   1.00
C1382  C     0.30036   0.78743   0.63540   0.00000  Uiso   1.00
H1383  H     0.19673   0.84873   0.63515   0.00000  Uiso   1.00
H1384  H     0.26327   0.90414   0.66883   0.00000  Uiso   1.00
H1385  H     0.02123   0.88593   0.67824   0.00000  Uiso   1.00
H1386  H     0.04453   0.81148   0.65339   0.00000  Uiso   1.00
H1387  H     0.31154   0.75577   0.62395   0.00000  Uiso   1.00
C1388  C     0.09808   0.68951   0.86923   0.00000  Uiso   1.00
C1389  C     0.09868   0.64394   0.86129   0.00000  Uiso   1.00
C1390  C     0.05441   0.61957   0.84250   0.00000  Uiso   1.00
C1391  C     0.00806   0.63965   0.83468   0.00000  Uiso   1.00
C1392  C     0.00591   0.68399   0.84641   0.00000  Uiso   1.00
C1393  C     0.05078   0.70905   0.86268   0.00000  Uiso   1.00
H1394  H     0.13218   0.62661   0.87226   0.00000  Uiso   1.00
H1395  H     0.05541   0.58476   0.83576   0.00000  Uiso   1.00
H1396  H     0.30713   0.62036   0.82092   0.00000  Uiso   1.00
H1397  H     0.30273   0.69878   0.84349   0.00000  Uiso   1.00
H1398  H     0.04859   0.74349   0.87161   0.00000  Uiso   1.00
C1399  C     0.07182   0.72296   0.52205   0.00000  Uiso   1.00
C1400  C     0.04979   0.75195   0.98734   0.00000  Uiso   1.00
C1401  C     0.00433   0.73898   0.95905   0.00000  Uiso   1.00
C1402  C     0.31394   0.69707   0.96503   0.00000  Uiso   1.00
C1403  C     0.00156   0.66851   0.50028   0.00000  Uiso   1.00
C1404  C     0.04668   0.68149   0.52905   0.00000  Uiso   1.00
H1405  H     0.06808   0.78428   0.98181   0.00000  Uiso   1.00
H1406  H     0.32099   0.76125   0.93212   0.00000  Uiso   1.00
H1407  H     0.27893   0.68703   0.94281   0.00000  Uiso   1.00
H1408  H     0.31629   0.63620   0.50518   0.00000  Uiso   1.00
H1409  H     0.06288   0.65868   0.55571   0.00000  Uiso   1.00
C1410  C     0.21090   0.82739   0.97360   0.00000  Uiso   1.00
C1411  C     0.18524   0.84693   0.50903   0.00000  Uiso   1.00
C1412  C     0.20758   0.88394   0.53438   0.00000  Uiso   1.00
C1413  C     0.25552   0.90209   0.52458   0.00000  Uiso   1.00
C1414  C     0.28115   0.88339   0.98915   0.00000  Uiso   1.00
C1415  C     0.25904   0.84632   0.96371   0.00000  Uiso   1.00
H1416  H     0.14760   0.83400   0.51664   0.00000  Uiso   1.00
H1417  H     0.18738   0.89874   0.56134   0.00000  Uiso   1.00
H1418  H     0.27271   0.93074   0.54431   0.00000  Uiso   1.00
H1419  H     0.31830   0.89751   0.98152   0.00000  Uiso   1.00
H1420  H     0.28000   0.83200   0.93695   0.00000  Uiso   1.00
O1421  O     0.50000   0.68573   0.79072   0.00000  Uiso   1.00
O1422  O     0.50000   0.81428   0.70928   0.00000  Uiso   1.00
O1423  O     0.50000   0.68573   0.70928   0.00000  Uiso   1.00
O1424  O     0.50000   0.81427   0.79072   0.00000  Uiso   1.00
C1425  C     0.50702   0.66587   0.75072   0.00000  Uiso   1.00
C1426  C     0.49638   0.83491   0.74945   0.00000  Uiso   1.00
O1427  O     0.42495   0.75000   0.78132   0.00000  Uiso   1.00
O1428  O     0.57505   0.75001   0.71868   0.00000  Uiso   1.00
O1429  O     0.42495   0.75000   0.69988   0.00000  Uiso   1.00
O1430  O     0.57505   0.75000   0.80012   0.00000  Uiso   1.00
C1431  C     0.40145   0.74821   0.73826   0.00000  Uiso   1.00
C1432  C     0.59856   0.75186   0.76177   0.00000  Uiso   1.00
Cu1433 Cu    0.50000   0.75000   0.79822   0.00000  Uiso   1.00
Cu1434 Cu    0.50000   0.75001   0.70178   0.00000  Uiso   1.00
C1435  C     0.34650   0.74294   0.73297   0.00000  Uiso   1.00
C1436  C     0.65354   0.75709   0.76723   0.00000  Uiso   1.00
H1437  H     0.66083   0.72642   0.70112   0.00000  Uiso   1.00
H1438  H     0.33919   0.77294   0.79956   0.00000  Uiso   1.00
C1439  C     0.50740   0.54972   0.79503   0.00000  Uiso   1.00
C1440  C     0.48206   0.95421   0.70688   0.00000  Uiso   1.00
C1441  C     0.52122   0.59515   0.79587   0.00000  Uiso   1.00
C1442  C     0.47900   0.90772   0.70586   0.00000  Uiso   1.00
C1443  C     0.51934   0.61866   0.75201   0.00000  Uiso   1.00
C1444  C     0.49142   0.88349   0.74898   0.00000  Uiso   1.00
C1445  C     0.52711   0.59520   0.71012   0.00000  Uiso   1.00
C1446  C     0.50038   0.90697   0.79267   0.00000  Uiso   1.00
C1447  C     0.52735   0.54922   0.71210   0.00000  Uiso   1.00
C1448  C     0.51719   0.95132   0.79051   0.00000  Uiso   1.00
H1449  H     0.53761   0.53180   0.68121   0.00000  Uiso   1.00
H1450  H     0.53520   0.96731   0.82272   0.00000  Uiso   1.00
C1451  C     0.51191   0.52572   0.75218   0.00000  Uiso   1.00
C1452  C     0.50417   0.97652   0.74926   0.00000  Uiso   1.00
C1453  C     0.54514   0.75926   0.55802   0.00000  Uiso   1.00
C1454  C     0.48244   0.71245   0.94504   0.00000  Uiso   1.00
C1455  C     0.54216   0.76588   0.60755   0.00000  Uiso   1.00
C1456  C     0.47607   0.71549   0.89398   0.00000  Uiso   1.00
N1457  N     0.50000   0.75001   0.62934   0.00000  Uiso   1.00
N1458  N     0.50000   0.74999   0.87066   0.00000  Uiso   1.00
C1459  C     0.45758   0.73384   0.60098   0.00000  Uiso   1.00
C1460  C     0.52328   0.78455   0.89715   0.00000  Uiso   1.00
H1461  H     0.42409   0.72187   0.61772   0.00000  Uiso   1.00
H1462  H     0.54095   0.81184   0.87847   0.00000  Uiso   1.00
C1463  C     0.45515   0.73506   0.55003   0.00000  Uiso   1.00
C1464  C     0.52187   0.78672   0.94782   0.00000  Uiso   1.00
C1465  C     0.50018   0.74755   0.52735   0.00000  Uiso   1.00
C1466  C     0.50084   0.74957   0.97266   0.00000  Uiso   1.00
C1467  C     0.48232   0.53032   0.83657   0.00000  Uiso   1.00
C1468  C     0.43288   0.50935   0.82875   0.00000  Uiso   1.00
C1469  C     0.40736   0.99375   0.86761   0.00000  Uiso   1.00
C1470  C     0.43091   0.99884   0.91461   0.00000  Uiso   1.00
C1471  C     0.48062   0.51832   0.92276   0.00000  Uiso   1.00
C1472  C     0.50643   0.53371   0.88400   0.00000  Uiso   1.00
H1473  H     0.41354   0.50612   0.79266   0.00000  Uiso   1.00
H1474  H     0.36913   0.97808   0.86129   0.00000  Uiso   1.00
H1475  H     0.41102   0.98694   0.94468   0.00000  Uiso   1.00
H1476  H     0.49924   0.52139   0.95914   0.00000  Uiso   1.00
H1477  H     0.54521   0.54806   0.89111   0.00000  Uiso   1.00
C1478  C     0.45757   0.97795   0.66459   0.00000  Uiso   1.00
C1479  C     0.41351   0.50111   0.66867   0.00000  Uiso   1.00
C1480  C     0.38883   0.52144   0.62823   0.00000  Uiso   1.00
C1481  C     0.40801   0.51885   0.58354   0.00000  Uiso   1.00
C1482  C     0.45205   0.99611   0.57927   0.00000  Uiso   1.00
C1483  C     0.47673   0.97564   0.61958   0.00000  Uiso   1.00
H1484  H     0.39793   0.50291   0.70294   0.00000  Uiso   1.00
H1485  H     0.35478   0.53914   0.63151   0.00000  Uiso   1.00
H1486  H     0.38893   0.53467   0.55230   0.00000  Uiso   1.00
H1487  H     0.46701   0.99426   0.54471   0.00000  Uiso   1.00
H1488  H     0.51086   0.95817   0.61595   0.00000  Uiso   1.00
O1489  O     0.53850   0.61495   0.83927   0.00000  Uiso   1.00
H1490  H     0.56008   0.64191   0.83334   0.00000  Uiso   1.00
O1491  O     0.45923   0.88763   0.66329   0.00000  Uiso   1.00
H1492  H     0.44079   0.85975   0.67104   0.00000  Uiso   1.00
C1493  C     0.53790   0.61698   0.66444   0.00000  Uiso   1.00
C1494  C     0.50245   0.61144   0.62341   0.00000  Uiso   1.00
C1495  C     0.51397   0.62920   0.57924   0.00000  Uiso   1.00
C1496  C     0.56097   0.65251   0.57575   0.00000  Uiso   1.00
C1497  C     0.59635   0.65850   0.61657   0.00000  Uiso   1.00
C1498  C     0.58485   0.64091   0.66093   0.00000  Uiso   1.00
H1499  H     0.46605   0.59333   0.62574   0.00000  Uiso   1.00
H1500  H     0.48656   0.62457   0.54771   0.00000  Uiso   1.00
H1501  H     0.56983   0.66605   0.54142   0.00000  Uiso   1.00
H1502  H     0.63286   0.67632   0.61370   0.00000  Uiso   1.00
H1503  H     0.61275   0.64517   0.69224   0.00000  Uiso   1.00
C1504  C     0.47713   0.89122   0.83698   0.00000  Uiso   1.00
C1505  C     0.42939   0.86654   0.83254   0.00000  Uiso   1.00
C1506  C     0.40310   0.85726   0.87277   0.00000  Uiso   1.00
C1507  C     0.42247   0.87443   0.91757   0.00000  Uiso   1.00
C1508  C     0.46875   0.89990   0.92227   0.00000  Uiso   1.00
C1509  C     0.49694   0.90689   0.88291   0.00000  Uiso   1.00
H1510  H     0.41153   0.85540   0.79768   0.00000  Uiso   1.00
H1511  H     0.36678   0.83807   0.86887   0.00000  Uiso   1.00
H1512  H     0.40128   0.86860   0.94846   0.00000  Uiso   1.00
H1513  H     0.48250   0.91509   0.95638   0.00000  Uiso   1.00
H1514  H     0.53316   0.92604   0.88833   0.00000  Uiso   1.00
O1515  O     0.59217   0.76700   0.54061   0.00000  Uiso   1.00
H1516  H     0.59187   0.75045   0.51036   0.00000  Uiso   1.00
O1517  O     0.46849   0.67431   0.96891   0.00000  Uiso   1.00
H1518  H     0.47313   0.64865   0.94869   0.00000  Uiso   1.00
C1519  C     0.58181   0.79672   0.63221   0.00000  Uiso   1.00
C1520  C     0.56912   0.83955   0.64267   0.00000  Uiso   1.00
C1521  C     0.60701   0.87133   0.66033   0.00000  Uiso   1.00
C1522  C     0.65843   0.86116   0.66524   0.00000  Uiso   1.00
C1523  C     0.33834   0.81943   0.65179   0.00000  Uiso   1.00
C1524  C     0.63369   0.78743   0.63540   0.00000  Uiso   1.00
H1525  H     0.53006   0.84873   0.63515   0.00000  Uiso   1.00
H1526  H     0.59661   0.90414   0.66883   0.00000  Uiso   1.00
H1527  H     0.35456   0.88593   0.67824   0.00000  Uiso   1.00
H1528  H     0.37787   0.81148   0.65339   0.00000  Uiso   1.00
H1529  H     0.64487   0.75577   0.62395   0.00000  Uiso   1.00
C1530  C     0.43141   0.68951   0.86923   0.00000  Uiso   1.00
C1531  C     0.43201   0.64394   0.86129   0.00000  Uiso   1.00
C1532  C     0.38774   0.61957   0.84250   0.00000  Uiso   1.00
C1533  C     0.34140   0.63965   0.83468   0.00000  Uiso   1.00
C1534  C     0.33924   0.68399   0.84641   0.00000  Uiso   1.00
C1535  C     0.38412   0.70905   0.86268   0.00000  Uiso   1.00
H1536  H     0.46552   0.62661   0.87226   0.00000  Uiso   1.00
H1537  H     0.38875   0.58476   0.83576   0.00000  Uiso   1.00
H1538  H     0.64047   0.62036   0.82092   0.00000  Uiso   1.00
H1539  H     0.63606   0.69878   0.84349   0.00000  Uiso   1.00
H1540  H     0.38192   0.74349   0.87161   0.00000  Uiso   1.00
C1541  C     0.40516   0.72296   0.52205   0.00000  Uiso   1.00
C1542  C     0.38313   0.75195   0.98734   0.00000  Uiso   1.00
C1543  C     0.33766   0.73898   0.95905   0.00000  Uiso   1.00
C1544  C     0.64728   0.69707   0.96503   0.00000  Uiso   1.00
C1545  C     0.33489   0.66851   0.50028   0.00000  Uiso   1.00
C1546  C     0.38001   0.68149   0.52905   0.00000  Uiso   1.00
H1547  H     0.40142   0.78428   0.98181   0.00000  Uiso   1.00
H1548  H     0.65432   0.76125   0.93212   0.00000  Uiso   1.00
H1549  H     0.61227   0.68703   0.94281   0.00000  Uiso   1.00
H1550  H     0.64962   0.63620   0.50518   0.00000  Uiso   1.00
H1551  H     0.39621   0.65868   0.55571   0.00000  Uiso   1.00
C1552  C     0.54424   0.82739   0.97360   0.00000  Uiso   1.00
C1553  C     0.51857   0.84693   0.50903   0.00000  Uiso   1.00
C1554  C     0.54091   0.88394   0.53438   0.00000  Uiso   1.00
C1555  C     0.58886   0.90209   0.52458   0.00000  Uiso   1.00
C1556  C     0.61448   0.88339   0.98915   0.00000  Uiso   1.00
C1557  C     0.59237   0.84632   0.96371   0.00000  Uiso   1.00
H1558  H     0.48093   0.83400   0.51664   0.00000  Uiso   1.00
H1559  H     0.52071   0.89874   0.56134   0.00000  Uiso   1.00
H1560  H     0.60604   0.93074   0.54431   0.00000  Uiso   1.00
H1561  H     0.65163   0.89751   0.98152   0.00000  Uiso   1.00
H1562  H     0.61333   0.83200   0.93695   0.00000  Uiso   1.00
O1563  O     0.83334   0.68573   0.79072   0.00000  Uiso   1.00
O1564  O     0.83333   0.81428   0.70928   0.00000  Uiso   1.00
O1565  O     0.83334   0.68573   0.70928   0.00000  Uiso   1.00
O1566  O     0.83333   0.81427   0.79072   0.00000  Uiso   1.00
C1567  C     0.84036   0.66587   0.75072   0.00000  Uiso   1.00
C1568  C     0.82972   0.83491   0.74945   0.00000  Uiso   1.00
O1569  O     0.75828   0.75000   0.78132   0.00000  Uiso   1.00
O1570  O     0.90839   0.75001   0.71868   0.00000  Uiso   1.00
O1571  O     0.75828   0.75000   0.69988   0.00000  Uiso   1.00
O1572  O     0.90839   0.75000   0.80012   0.00000  Uiso   1.00
C1573  C     0.73479   0.74821   0.73826   0.00000  Uiso   1.00
C1574  C     0.93189   0.75186   0.76177   0.00000  Uiso   1.00
Cu1575 Cu    0.83333   0.75000   0.79822   0.00000  Uiso   1.00
Cu1576 Cu    0.83333   0.75001   0.70178   0.00000  Uiso   1.00
C1577  C     0.67984   0.74294   0.73297   0.00000  Uiso   1.00
C1578  C     0.98687   0.75709   0.76723   0.00000  Uiso   1.00
H1579  H     0.99416   0.72642   0.70112   0.00000  Uiso   1.00
H1580  H     0.67252   0.77294   0.79956   0.00000  Uiso   1.00
C1581  C     0.84073   0.54972   0.79503   0.00000  Uiso   1.00
C1582  C     0.81539   0.95421   0.70688   0.00000  Uiso   1.00
C1583  C     0.85455   0.59515   0.79587   0.00000  Uiso   1.00
C1584  C     0.81234   0.90772   0.70586   0.00000  Uiso   1.00
C1585  C     0.85267   0.61866   0.75201   0.00000  Uiso   1.00
C1586  C     0.82476   0.88349   0.74898   0.00000  Uiso   1.00
C1587  C     0.86045   0.59520   0.71012   0.00000  Uiso   1.00
C1588  C     0.83371   0.90697   0.79267   0.00000  Uiso   1.00
C1589  C     0.86068   0.54922   0.71210   0.00000  Uiso   1.00
C1590  C     0.85052   0.95132   0.79051   0.00000  Uiso   1.00
H1591  H     0.87094   0.53180   0.68121   0.00000  Uiso   1.00
H1592  H     0.86853   0.96731   0.82272   0.00000  Uiso   1.00
C1593  C     0.84525   0.52572   0.75218   0.00000  Uiso   1.00
C1594  C     0.83751   0.97652   0.74926   0.00000  Uiso   1.00
C1595  C     0.87847   0.75926   0.55802   0.00000  Uiso   1.00
C1596  C     0.81578   0.71245   0.94504   0.00000  Uiso   1.00
C1597  C     0.87549   0.76588   0.60755   0.00000  Uiso   1.00
C1598  C     0.80940   0.71549   0.89398   0.00000  Uiso   1.00
N1599  N     0.83333   0.75001   0.62934   0.00000  Uiso   1.00
N1600  N     0.83333   0.74999   0.87066   0.00000  Uiso   1.00
C1601  C     0.79091   0.73384   0.60098   0.00000  Uiso   1.00
C1602  C     0.85661   0.78455   0.89715   0.00000  Uiso   1.00
H1603  H     0.75742   0.72187   0.61772   0.00000  Uiso   1.00
H1604  H     0.87429   0.81184   0.87847   0.00000  Uiso   1.00
C1605  C     0.78849   0.73506   0.55003   0.00000  Uiso   1.00
C1606  C     0.85520   0.78672   0.94782   0.00000  Uiso   1.00
C1607  C     0.83352   0.74755   0.52735   0.00000  Uiso   1.00
C1608  C     0.83417   0.74957   0.97266   0.00000  Uiso   1.00
C1609  C     0.81565   0.53032   0.83657   0.00000  Uiso   1.00
C1610  C     0.76621   0.50935   0.82875   0.00000  Uiso   1.00
C1611  C     0.74070   0.99375   0.86761   0.00000  Uiso   1.00
C1612  C     0.76425   0.99884   0.91461   0.00000  Uiso   1.00
C1613  C     0.81396   0.51832   0.92276   0.00000  Uiso   1.00
C1614  C     0.83976   0.53371   0.88400   0.00000  Uiso   1.00
H1615  H     0.74688   0.50612   0.79266   0.00000  Uiso   1.00
H1616  H     0.70246   0.97808   0.86129   0.00000  Uiso   1.00
H1617  H     0.74435   0.98694   0.94468   0.00000  Uiso   1.00
H1618  H     0.83257   0.52139   0.95914   0.00000  Uiso   1.00
H1619  H     0.87854   0.54806   0.89111   0.00000  Uiso   1.00
C1620  C     0.79091   0.97795   0.66459   0.00000  Uiso   1.00
C1621  C     0.74684   0.50111   0.66867   0.00000  Uiso   1.00
C1622  C     0.72216   0.52144   0.62823   0.00000  Uiso   1.00
C1623  C     0.74134   0.51885   0.58354   0.00000  Uiso   1.00
C1624  C     0.78539   0.99611   0.57927   0.00000  Uiso   1.00
C1625  C     0.81006   0.97564   0.61958   0.00000  Uiso   1.00
H1626  H     0.73127   0.50291   0.70294   0.00000  Uiso   1.00
H1627  H     0.68811   0.53914   0.63151   0.00000  Uiso   1.00
H1628  H     0.72226   0.53467   0.55230   0.00000  Uiso   1.00
H1629  H     0.80034   0.99426   0.54471   0.00000  Uiso   1.00
H1630  H     0.84419   0.95817   0.61595   0.00000  Uiso   1.00
O1631  O     0.87184   0.61495   0.83927   0.00000  Uiso   1.00
H1632  H     0.89342   0.64191   0.83334   0.00000  Uiso   1.00
O1633  O     0.79256   0.88763   0.66329   0.00000  Uiso   1.00
H1634  H     0.77412   0.85975   0.67104   0.00000  Uiso   1.00
C1635  C     0.87123   0.61698   0.66444   0.00000  Uiso   1.00
C1636  C     0.83579   0.61144   0.62341   0.00000  Uiso   1.00
C1637  C     0.84730   0.62920   0.57924   0.00000  Uiso   1.00
C1638  C     0.89431   0.65251   0.57575   0.00000  Uiso   1.00
C1639  C     0.92968   0.65850   0.61657   0.00000  Uiso   1.00
C1640  C     0.91818   0.64091   0.66093   0.00000  Uiso   1.00
H1641  H     0.79938   0.59333   0.62574   0.00000  Uiso   1.00
H1642  H     0.81990   0.62457   0.54771   0.00000  Uiso   1.00
H1643  H     0.90317   0.66605   0.54142   0.00000  Uiso   1.00
H1644  H     0.96619   0.67632   0.61370   0.00000  Uiso   1.00
H1645  H     0.94608   0.64517   0.69224   0.00000  Uiso   1.00
C1646  C     0.81046   0.89122   0.83698   0.00000  Uiso   1.00
C1647  C     0.76273   0.86654   0.83254   0.00000  Uiso   1.00
C1648  C     0.73643   0.85726   0.87277   0.00000  Uiso   1.00
C1649  C     0.75580   0.87443   0.91757   0.00000  Uiso   1.00
C1650  C     0.80208   0.89990   0.92227   0.00000  Uiso   1.00
C1651  C     0.83027   0.90689   0.88291   0.00000  Uiso   1.00
H1652  H     0.74487   0.85540   0.79768   0.00000  Uiso   1.00
H1653  H     0.70011   0.83807   0.86887   0.00000  Uiso   1.00
H1654  H     0.73461   0.86860   0.94846   0.00000  Uiso   1.00
H1655  H     0.81584   0.91509   0.95638   0.00000  Uiso   1.00
H1656  H     0.86650   0.92604   0.88833   0.00000  Uiso   1.00
O1657  O     0.92551   0.76700   0.54061   0.00000  Uiso   1.00
H1658  H     0.92521   0.75045   0.51036   0.00000  Uiso   1.00
O1659  O     0.80182   0.67431   0.96891   0.00000  Uiso   1.00
H1660  H     0.80646   0.64865   0.94869   0.00000  Uiso   1.00
C1661  C     0.91515   0.79672   0.63221   0.00000  Uiso   1.00
C1662  C     0.90245   0.83955   0.64267   0.00000  Uiso   1.00
C1663  C     0.94034   0.87133   0.66033   0.00000  Uiso   1.00
C1664  C     0.99177   0.86116   0.66524   0.00000  Uiso   1.00
C1665  C     0.67167   0.81943   0.65179   0.00000  Uiso   1.00
C1666  C     0.96703   0.78743   0.63540   0.00000  Uiso   1.00
H1667  H     0.86339   0.84873   0.63515   0.00000  Uiso   1.00
H1668  H     0.92994   0.90414   0.66883   0.00000  Uiso   1.00
H1669  H     0.68789   0.88593   0.67824   0.00000  Uiso   1.00
H1670  H     0.71120   0.81148   0.65339   0.00000  Uiso   1.00
H1671  H     0.97820   0.75577   0.62395   0.00000  Uiso   1.00
C1672  C     0.76474   0.68951   0.86923   0.00000  Uiso   1.00
C1673  C     0.76534   0.64394   0.86129   0.00000  Uiso   1.00
C1674  C     0.72108   0.61957   0.84250   0.00000  Uiso   1.00
C1675  C     0.67473   0.63965   0.83468   0.00000  Uiso   1.00
C1676  C     0.67257   0.68399   0.84641   0.00000  Uiso   1.00
C1677  C     0.71745   0.70905   0.86268   0.00000  Uiso   1.00
H1678  H     0.79885   0.62661   0.87226   0.00000  Uiso   1.00
H1679  H     0.72208   0.58476   0.83576   0.00000  Uiso   1.00
H1680  H     0.97380   0.62036   0.82092   0.00000  Uiso   1.00
H1681  H     0.96940   0.69878   0.84349   0.00000  Uiso   1.00
H1682  H     0.71526   0.74349   0.87161   0.00000  Uiso   1.00
C1683  C     0.73849   0.72296   0.52205   0.00000  Uiso   1.00
C1684  C     0.71646   0.75195   0.98734   0.00000  Uiso   1.00
C1685  C     0.67100   0.73898   0.95905   0.00000  Uiso   1.00
C1686  C     0.98061   0.69707   0.96503   0.00000  Uiso   1.00
C1687  C     0.66822   0.66851   0.50028   0.00000  Uiso   1.00
C1688  C     0.71334   0.68149   0.52905   0.00000  Uiso   1.00
H1689  H     0.73475   0.78428   0.98181   0.00000  Uiso   1.00
H1690  H     0.98765   0.76125   0.93212   0.00000  Uiso   1.00
H1691  H     0.94560   0.68703   0.94281   0.00000  Uiso   1.00
H1692  H     0.98296   0.63620   0.50518   0.00000  Uiso   1.00
H1693  H     0.72955   0.65868   0.55571   0.00000  Uiso   1.00
C1694  C     0.87757   0.82739   0.97360   0.00000  Uiso   1.00
C1695  C     0.85191   0.84693   0.50903   0.00000  Uiso   1.00
C1696  C     0.87424   0.88394   0.53438   0.00000  Uiso   1.00
C1697  C     0.92219   0.90209   0.52458   0.00000  Uiso   1.00
C1698  C     0.94781   0.88339   0.98915   0.00000  Uiso   1.00
C1699  C     0.92570   0.84632   0.96371   0.00000  Uiso   1.00
H1700  H     0.81427   0.83400   0.51664   0.00000  Uiso   1.00
H1701  H     0.85405   0.89874   0.56134   0.00000  Uiso   1.00
H1702  H     0.93938   0.93074   0.54431   0.00000  Uiso   1.00
H1703  H     0.98496   0.89751   0.98152   0.00000  Uiso   1.00
H1704  H     0.94667   0.83200   0.93695   0.00000  Uiso   1.00
loop_
_geom_bond_atom_site_label_1
_geom_bond_atom_site_label_2
_geom_bond_distance
_geom_bond_site_symmetry_2
_ccdc_geom_bond_type
O1     C5      1.309   .     A
O1     Cu13    1.963   .     S
O2     C6      1.304   .     A
O2     Cu14    1.963   .     S
O3     Cu14    1.959   .     S
O3     C5      1.301   .     A
O4     C6      1.304   .     A
O4     Cu13    1.959   .     S
C5     C23     1.486   .     S
C6     C24     1.487   .     S
O7     C11     1.292   .     A
O7     Cu13    1.977   .     S
O8     Cu14    1.977   .     S
O8     C12     1.293   .     A
O9     Cu14    1.965   .     S
O9     C11     1.291   .     A
O10    C12     1.290   .     A
O10    Cu13    1.965   .     S
C11    C15     1.434   .     S
C12    C16     1.435   .     S
Cu13   Cu14    2.693   .     S
Cu13   N38     2.023   .     S
Cu14   N37     2.023   .     S
C15    C300    1.326   1_455 S
C15    H301    1.084   1_455 S
C16    C157    1.326   .     S
C16    H160    1.086   .     S
H17    C157    1.084   .     S
H18    C300    1.086   1_455 S
C19    C31     1.425   .     A
C19    C47     1.492   .     S
C19    C21     1.403   .     A
C20    C22     1.408   .     A
C20    C58     1.486   .     S
C20    C32     1.421   .     A
C21    O69     1.379   .     S
C21    C23     1.409   .     A
C22    C24     1.424   .     A
C22    O71     1.378   .     S
C23    C25     1.414   .     A
C24    C26     1.410   .     A
C25    C73     1.477   .     S
C25    C27     1.396   .     A
C26    C84     1.498   .     S
C26    C28     1.393   .     A
C27    H29     1.082   .     S
C27    C31     1.404   .     A
C28    C32     1.400   .     A
C28    H30     1.076   .     S
C31    C458    1.496   1_545 S
C32    C457    1.496   .     S
C33    C45     1.413   .     A
C33    O95     1.380   .     S
C33    C35     1.410   .     A
C34    O97     1.380   .     S
C34    C46     1.403   .     A
C34    C36     1.421   .     A
C35    N37     1.378   .     A
C35    C99     1.475   .     S
C36    C110    1.483   .     S
C36    N38     1.381   .     A
N37    C39     1.365   .     A
N38    C40     1.364   .     A
C39    H41     1.081   .     S
C39    C43     1.418   .     A
C40    C44     1.422   .     A
C40    H42     1.081   .     S
C43    C121    1.483   .     S
C43    C45     1.429   .     A
C44    C46     1.431   .     A
C44    C132    1.492   .     S
C45    C898    1.530   1_554 S
C46    C897    1.530   .     S
C47    C48     1.407   .     A
C47    C52     1.408   .     A
C48    H53     1.082   .     S
C48    C475    1.398   1_545 S
C49    C50     1.397   .     A
C49    H54     1.082   .     S
C49    C474    1.398   .     S
C50    H55     1.083   .     S
C50    C477    1.397   .     S
C51    H56     1.082   .     S
C51    C52     1.398   .     A
C51    C476    1.397   1_545 S
C52    H57     1.082   .     S
C58    C63     1.406   .     A
C58    C485    1.404   .     S
C59    C60     1.399   .     A
C59    H64     1.082   .     S
C59    C484    1.404   1_545 S
C60    C61     1.398   .     A
C60    H65     1.082   .     S
C61    H66     1.082   .     S
C61    C488    1.398   1_545 S
C62    H67     1.082   .     S
C62    C63     1.398   .     A
C62    C487    1.398   .     S
C63    H68     1.082   .     S
O69    H70     0.989   .     S
O71    H72     0.983   .     S
C73    C74     1.403   .     A
C73    C78     1.404   .     A
C74    C75     1.396   .     A
C74    H79     1.081   .     S
C75    H80     1.081   .     S
C75    C76     1.397   .     A
C76    C77     1.398   .     A
C76    H81     1.082   .     S
C77    C78     1.399   .     A
C77    H82     1.082   .     S
C78    H83     1.083   .     S
C84    C85     1.415   .     A
C84    C89     1.408   .     A
C85    C86     1.397   .     A
C85    H90     1.083   .     S
C86    H91     1.083   .     S
C86    C87     1.393   .     A
C87    C88     1.395   .     A
C87    H92     1.082   .     S
C88    H93     1.080   .     S
C88    C89     1.396   .     A
C89    H94     1.081   .     S
O95    H96     0.986   .     S
O97    H98     0.987   .     S
C99    C104    1.401   .     A
C99    C100    1.401   .     A
C100   H105    1.078   .     S
C100   C101    1.397   .     A
C101   C102    1.395   .     A
C101   H106    1.083   .     S
C102   C245    1.398   .     S
C102   H249    1.082   .     S
C103   H108    1.076   .     S
C103   C386    1.398   1_455 S
C103   C388    1.393   1_455 S
C104   H109    1.082   .     S
C104   C245    1.393   .     S
H107   C386    1.082   1_455 S
C110   C111    1.404   .     A
C110   C115    1.402   .     A
C111   H116    1.068   .     S
C111   C112    1.395   .     A
C112   C113    1.389   .     A
C112   H117    1.077   .     S
C113   C114    1.393   .     A
C113   H402    1.080   1_455 S
C114   C115    1.399   .     A
C114   H403    1.078   1_455 S
C115   H120    1.083   .     S
H118   C255    1.080   .     S
H119   C256    1.078   .     S
C121   C126    1.407   .     A
C121   C974    1.406   1_554 S
C122   H127    1.083   .     S
C122   C123    1.398   .     A
C122   C973    1.406   .     S
C123   C408    1.398   1_455 S
C123   H412    1.082   1_455 S
C124   H129    1.083   .     S
C124   C265    1.398   .     S
C124   C1119   1.396   .     S
C125   C126    1.398   .     A
C125   C1260   1.396   1_454 S
C125   H414    1.082   1_455 S
C126   H131    1.083   .     S
H128   C265    1.082   .     S
H130   C267    1.082   .     S
C132   C137    1.409   .     A
C132   C985    1.408   .     S
C133   C134    1.398   .     A
C133   H138    1.082   .     S
C133   C984    1.408   1_554 S
C134   H139    1.081   .     S
C134   C135    1.396   .     A
C135   H140    1.082   .     S
C135   C988    1.396   1_554 S
C136   H141    1.082   .     S
C136   C137    1.398   .     A
C136   C987    1.396   .     S
C137   H142    1.082   .     S
O143   C147    1.309   .     A
O143   Cu155   1.963   .     S
O144   C148    1.304   .     A
O144   Cu156   1.963   .     S
O145   Cu156   1.959   .     S
O145   C147    1.301   .     A
O146   C148    1.304   .     A
O146   Cu155   1.959   .     S
C147   C165    1.486   .     S
C148   C166    1.487   .     S
O149   C153    1.292   .     A
O149   Cu155   1.977   .     S
O150   Cu156   1.977   .     S
O150   C154    1.293   .     A
O151   Cu156   1.965   .     S
O151   C153    1.291   .     A
O152   C154    1.290   .     A
O152   Cu155   1.965   .     S
C153   C157    1.434   .     S
C154   C158    1.435   .     S
Cu155  Cu156   2.693   .     S
Cu155  N180    2.023   .     S
Cu156  N179    2.023   .     S
C158   C299    1.326   .     S
C158   H302    1.086   .     S
H159   C299    1.084   .     S
C161   C173    1.425   .     A
C161   C189    1.492   .     S
C161   C163    1.403   .     A
C162   C164    1.408   .     A
C162   C200    1.486   .     S
C162   C174    1.421   .     A
C163   O211    1.379   .     S
C163   C165    1.409   .     A
C164   C166    1.424   .     A
C164   O213    1.378   .     S
C165   C167    1.414   .     A
C166   C168    1.410   .     A
C167   C215    1.477   .     S
C167   C169    1.396   .     A
C168   C226    1.498   .     S
C168   C170    1.393   .     A
C169   H171    1.082   .     S
C169   C173    1.404   .     A
C170   C174    1.400   .     A
C170   H172    1.076   .     S
C173   C600    1.496   1_545 S
C174   C599    1.496   .     S
C175   C187    1.413   .     A
C175   O237    1.380   .     S
C175   C177    1.410   .     A
C176   O239    1.380   .     S
C176   C188    1.403   .     A
C176   C178    1.421   .     A
C177   N179    1.378   .     A
C177   C241    1.475   .     S
C178   C252    1.483   .     S
C178   N180    1.381   .     A
N179   C181    1.365   .     A
N180   C182    1.364   .     A
C181   H183    1.081   .     S
C181   C185    1.418   .     A
C182   C186    1.422   .     A
C182   H184    1.081   .     S
C185   C263    1.483   .     S
C185   C187    1.429   .     A
C186   C188    1.431   .     A
C186   C274    1.492   .     S
C187   C1040   1.530   1_554 S
C188   C1039   1.530   .     S
C189   C190    1.407   .     A
C189   C194    1.408   .     A
C190   H195    1.082   .     S
C190   C617    1.398   1_545 S
C191   C192    1.397   .     A
C191   H196    1.082   .     S
C191   C616    1.398   .     S
C192   H197    1.083   .     S
C192   C619    1.397   .     S
C193   H198    1.082   .     S
C193   C194    1.398   .     A
C193   C618    1.397   1_545 S
C194   H199    1.082   .     S
C200   C205    1.406   .     A
C200   C627    1.404   .     S
C201   C202    1.399   .     A
C201   H206    1.082   .     S
C201   C626    1.404   1_545 S
C202   C203    1.398   .     A
C202   H207    1.082   .     S
C203   H208    1.082   .     S
C203   C630    1.398   1_545 S
C204   H209    1.082   .     S
C204   C205    1.398   .     A
C204   C629    1.398   .     S
C205   H210    1.082   .     S
O211   H212    0.989   .     S
O213   H214    0.983   .     S
C215   C216    1.403   .     A
C215   C220    1.404   .     A
C216   C217    1.396   .     A
C216   H221    1.081   .     S
C217   H222    1.081   .     S
C217   C218    1.397   .     A
C218   C219    1.398   .     A
C218   H223    1.082   .     S
C219   C220    1.399   .     A
C219   H224    1.082   .     S
C220   H225    1.083   .     S
C226   C227    1.415   .     A
C226   C231    1.408   .     A
C227   C228    1.397   .     A
C227   H232    1.083   .     S
C228   H233    1.083   .     S
C228   C229    1.393   .     A
C229   C230    1.395   .     A
C229   H234    1.082   .     S
C230   H235    1.080   .     S
C230   C231    1.396   .     A
C231   H236    1.081   .     S
O237   H238    0.986   .     S
O239   H240    0.987   .     S
C241   C246    1.401   .     A
C241   C242    1.401   .     A
C242   H247    1.078   .     S
C242   C243    1.397   .     A
C243   C244    1.395   .     A
C243   H248    1.083   .     S
C244   C387    1.398   .     S
C244   H391    1.082   .     S
C245   H250    1.076   .     S
C246   H251    1.082   .     S
C246   C387    1.393   .     S
C252   C253    1.404   .     A
C252   C257    1.402   .     A
C253   H258    1.068   .     S
C253   C254    1.395   .     A
C254   C255    1.389   .     A
C254   H259    1.077   .     S
C255   C256    1.393   .     A
C256   C257    1.399   .     A
C257   H262    1.083   .     S
H260   C397    1.080   .     S
H261   C398    1.078   .     S
C263   C268    1.407   .     A
C263   C1116   1.406   1_554 S
C264   H269    1.083   .     S
C264   C265    1.398   .     A
C264   C1115   1.406   .     S
C266   H271    1.083   .     S
C266   C407    1.398   .     S
C266   C1261   1.396   .     S
C267   C268    1.398   .     A
C267   C976    1.396   1_554 S
C268   H273    1.083   .     S
H270   C407    1.082   .     S
H272   C409    1.082   .     S
C274   C279    1.409   .     A
C274   C1127   1.408   .     S
C275   C276    1.398   .     A
C275   H280    1.082   .     S
C275   C1126   1.408   1_554 S
C276   H281    1.081   .     S
C276   C277    1.396   .     A
C277   H282    1.082   .     S
C277   C1130   1.396   1_554 S
C278   H283    1.082   .     S
C278   C279    1.398   .     A
C278   C1129   1.396   .     S
C279   H284    1.082   .     S
O285   C289    1.309   .     A
O285   Cu297   1.963   .     S
O286   C290    1.304   .     A
O286   Cu298   1.963   .     S
O287   Cu298   1.959   .     S
O287   C289    1.301   .     A
O288   C290    1.304   .     A
O288   Cu297   1.959   .     S
C289   C307    1.486   .     S
C290   C308    1.487   .     S
O291   C295    1.292   .     A
O291   Cu297   1.977   .     S
O292   Cu298   1.977   .     S
O292   C296    1.293   .     A
O293   Cu298   1.965   .     S
O293   C295    1.291   .     A
O294   C296    1.290   .     A
O294   Cu297   1.965   .     S
C295   C299    1.434   .     S
C296   C300    1.435   .     S
Cu297  Cu298   2.693   .     S
Cu297  N322    2.023   .     S
Cu298  N321    2.023   .     S
C300   C15     1.326   1_655 S
C300   H18     1.086   1_655 S
H301   C15     1.084   1_655 S
C303   C315    1.425   .     A
C303   C331    1.492   .     S
C303   C305    1.403   .     A
C304   C306    1.408   .     A
C304   C342    1.486   .     S
C304   C316    1.421   .     A
C305   O353    1.379   .     S
C305   C307    1.409   .     A
C306   C308    1.424   .     A
C306   O355    1.378   .     S
C307   C309    1.414   .     A
C308   C310    1.410   .     A
C309   C357    1.477   .     S
C309   C311    1.396   .     A
C310   C368    1.498   .     S
C310   C312    1.393   .     A
C311   H313    1.082   .     S
C311   C315    1.404   .     A
C312   C316    1.400   .     A
C312   H314    1.076   .     S
C315   C742    1.496   1_545 S
C316   C741    1.496   .     S
C317   C329    1.413   .     A
C317   O379    1.380   .     S
C317   C319    1.410   .     A
C318   O381    1.380   .     S
C318   C330    1.403   .     A
C318   C320    1.421   .     A
C319   N321    1.378   .     A
C319   C383    1.475   .     S
C320   C394    1.483   .     S
C320   N322    1.381   .     A
N321   C323    1.365   .     A
N322   C324    1.364   .     A
C323   H325    1.081   .     S
C323   C327    1.418   .     A
C324   C328    1.422   .     A
C324   H326    1.081   .     S
C327   C405    1.483   .     S
C327   C329    1.429   .     A
C328   C330    1.431   .     A
C328   C416    1.492   .     S
C329   C1182   1.530   1_554 S
C330   C1181   1.530   .     S
C331   C332    1.407   .     A
C331   C336    1.408   .     A
C332   H337    1.082   .     S
C332   C759    1.398   1_545 S
C333   C334    1.397   .     A
C333   H338    1.082   .     S
C333   C758    1.398   .     S
C334   H339    1.083   .     S
C334   C761    1.397   .     S
C335   H340    1.082   .     S
C335   C336    1.398   .     A
C335   C760    1.397   1_545 S
C336   H341    1.082   .     S
C342   C347    1.406   .     A
C342   C769    1.404   .     S
C343   C344    1.399   .     A
C343   H348    1.082   .     S
C343   C768    1.404   1_545 S
C344   C345    1.398   .     A
C344   H349    1.082   .     S
C345   H350    1.082   .     S
C345   C772    1.398   1_545 S
C346   H351    1.082   .     S
C346   C347    1.398   .     A
C346   C771    1.398   .     S
C347   H352    1.082   .     S
O353   H354    0.989   .     S
O355   H356    0.983   .     S
C357   C358    1.403   .     A
C357   C362    1.404   .     A
C358   C359    1.396   .     A
C358   H363    1.081   .     S
C359   H364    1.081   .     S
C359   C360    1.397   .     A
C360   C361    1.398   .     A
C360   H365    1.082   .     S
C361   C362    1.399   .     A
C361   H366    1.082   .     S
C362   H367    1.083   .     S
C368   C369    1.415   .     A
C368   C373    1.408   .     A
C369   C370    1.397   .     A
C369   H374    1.083   .     S
C370   H375    1.083   .     S
C370   C371    1.393   .     A
C371   C372    1.395   .     A
C371   H376    1.082   .     S
C372   H377    1.080   .     S
C372   C373    1.396   .     A
C373   H378    1.081   .     S
O379   H380    0.986   .     S
O381   H382    0.987   .     S
C383   C388    1.401   .     A
C383   C384    1.401   .     A
C384   H389    1.078   .     S
C384   C385    1.397   .     A
C385   C386    1.395   .     A
C385   H390    1.083   .     S
C386   C103    1.398   1_655 S
C386   H107    1.082   1_655 S
C387   H392    1.076   .     S
C388   H393    1.082   .     S
C388   C103    1.393   1_655 S
C394   C395    1.404   .     A
C394   C399    1.402   .     A
C395   H400    1.068   .     S
C395   C396    1.395   .     A
C396   C397    1.389   .     A
C396   H401    1.077   .     S
C397   C398    1.393   .     A
C398   C399    1.399   .     A
C399   H404    1.083   .     S
H402   C113    1.080   1_655 S
H403   C114    1.078   1_655 S
C405   C410    1.407   .     A
C405   C1258   1.406   1_554 S
C406   H411    1.083   .     S
C406   C407    1.398   .     A
C406   C1257   1.406   .     S
C408   H413    1.083   .     S
C408   C123    1.398   1_655 S
C408   C977    1.396   1_655 S
C409   C410    1.398   .     A
C409   C1118   1.396   1_554 S
C410   H415    1.083   .     S
H412   C123    1.082   1_655 S
H414   C125    1.082   1_655 S
C416   C421    1.409   .     A
C416   C1269   1.408   .     S
C417   C418    1.398   .     A
C417   H422    1.082   .     S
C417   C1268   1.408   1_554 S
C418   H423    1.081   .     S
C418   C419    1.396   .     A
C419   H424    1.082   .     S
C419   C1272   1.396   1_554 S
C420   H425    1.082   .     S
C420   C421    1.398   .     A
C420   C1271   1.396   .     S
C421   H426    1.082   .     S
O427   C431    1.309   .     A
O427   Cu439   1.963   .     S
O428   C432    1.304   .     A
O428   Cu440   1.963   .     S
O429   Cu440   1.959   .     S
O429   C431    1.301   .     A
O430   C432    1.304   .     A
O430   Cu439   1.959   .     S
C431   C449    1.486   .     S
C432   C450    1.487   .     S
O433   C437    1.292   .     A
O433   Cu439   1.977   .     S
O434   Cu440   1.977   .     S
O434   C438    1.293   .     A
O435   Cu440   1.965   .     S
O435   C437    1.291   .     A
O436   C438    1.290   .     A
O436   Cu439   1.965   .     S
C437   C441    1.434   .     S
C438   C442    1.435   .     S
Cu439  Cu440   2.693   .     S
Cu439  N464    2.023   .     S
Cu440  N463    2.023   .     S
C441   C726    1.326   1_455 S
C441   H727    1.084   1_455 S
C442   C583    1.326   .     S
C442   H586    1.086   .     S
H443   C583    1.084   .     S
H444   C726    1.086   1_455 S
C445   C457    1.425   .     A
C445   C473    1.492   .     S
C445   C447    1.403   .     A
C446   C448    1.408   .     A
C446   C484    1.486   .     S
C446   C458    1.421   .     A
C447   O495    1.379   .     S
C447   C449    1.409   .     A
C448   C450    1.424   .     A
C448   O497    1.378   .     S
C449   C451    1.414   .     A
C450   C452    1.410   .     A
C451   C499    1.477   .     S
C451   C453    1.396   .     A
C452   C510    1.498   .     S
C452   C454    1.393   .     A
C453   H455    1.082   .     S
C453   C457    1.404   .     A
C454   C458    1.400   .     A
C454   H456    1.076   .     S
C458   C31     1.496   1_565 S
C459   C471    1.413   .     A
C459   O521    1.380   .     S
C459   C461    1.410   .     A
C460   O523    1.380   .     S
C460   C472    1.403   .     A
C460   C462    1.421   .     A
C461   N463    1.378   .     A
C461   C525    1.475   .     S
C462   C536    1.483   .     S
C462   N464    1.381   .     A
N463   C465    1.365   .     A
N464   C466    1.364   .     A
C465   H467    1.081   .     S
C465   C469    1.418   .     A
C466   C470    1.422   .     A
C466   H468    1.081   .     S
C469   C547    1.483   .     S
C469   C471    1.429   .     A
C470   C472    1.431   .     A
C470   C558    1.492   .     S
C471   C1324   1.530   1_554 S
C472   C1323   1.530   .     S
C473   C474    1.407   .     A
C473   C478    1.408   .     A
C474   H479    1.082   .     S
C475   C476    1.397   .     A
C475   H480    1.082   .     S
C475   C48     1.398   1_565 S
C476   H481    1.083   .     S
C476   C51     1.397   1_565 S
C477   H482    1.082   .     S
C477   C478    1.398   .     A
C478   H483    1.082   .     S
C484   C489    1.406   .     A
C484   C59     1.404   1_565 S
C485   C486    1.399   .     A
C485   H490    1.082   .     S
C486   C487    1.398   .     A
C486   H491    1.082   .     S
C487   H492    1.082   .     S
C488   H493    1.082   .     S
C488   C489    1.398   .     A
C488   C61     1.398   1_565 S
C489   H494    1.082   .     S
O495   H496    0.989   .     S
O497   H498    0.983   .     S
C499   C500    1.403   .     A
C499   C504    1.404   .     A
C500   C501    1.396   .     A
C500   H505    1.081   .     S
C501   H506    1.081   .     S
C501   C502    1.397   .     A
C502   C503    1.398   .     A
C502   H507    1.082   .     S
C503   C504    1.399   .     A
C503   H508    1.082   .     S
C504   H509    1.083   .     S
C510   C511    1.415   .     A
C510   C515    1.408   .     A
C511   C512    1.397   .     A
C511   H516    1.083   .     S
C512   H517    1.083   .     S
C512   C513    1.393   .     A
C513   C514    1.395   .     A
C513   H518    1.082   .     S
C514   H519    1.080   .     S
C514   C515    1.396   .     A
C515   H520    1.081   .     S
O521   H522    0.986   .     S
O523   H524    0.987   .     S
C525   C530    1.401   .     A
C525   C526    1.401   .     A
C526   H531    1.078   .     S
C526   C527    1.397   .     A
C527   C528    1.395   .     A
C527   H532    1.083   .     S
C528   C671    1.398   .     S
C528   H675    1.082   .     S
C529   H534    1.076   .     S
C529   C812    1.398   1_455 S
C529   C814    1.393   1_455 S
C530   H535    1.082   .     S
C530   C671    1.393   .     S
H533   C812    1.082   1_455 S
C536   C537    1.404   .     A
C536   C541    1.402   .     A
C537   H542    1.068   .     S
C537   C538    1.395   .     A
C538   C539    1.389   .     A
C538   H543    1.077   .     S
C539   C540    1.393   .     A
C539   H828    1.080   1_455 S
C540   C541    1.399   .     A
C540   H829    1.078   1_455 S
C541   H546    1.083   .     S
H544   C681    1.080   .     S
H545   C682    1.078   .     S
C547   C552    1.407   .     A
C547   C1400   1.406   1_554 S
C548   H553    1.083   .     S
C548   C549    1.398   .     A
C548   C1399   1.406   .     S
C549   C834    1.398   1_455 S
C549   H838    1.082   1_455 S
C550   H555    1.083   .     S
C550   C691    1.398   .     S
C550   C1545   1.396   .     S
C551   C552    1.398   .     A
C551   C1686   1.396   1_454 S
C551   H840    1.082   1_455 S
C552   H557    1.083   .     S
H554   C691    1.082   .     S
H556   C693    1.082   .     S
C558   C563    1.409   .     A
C558   C1411   1.408   .     S
C559   C560    1.398   .     A
C559   H564    1.082   .     S
C559   C1410   1.408   1_554 S
C560   H565    1.081   .     S
C560   C561    1.396   .     A
C561   H566    1.082   .     S
C561   C1414   1.396   1_554 S
C562   H567    1.082   .     S
C562   C563    1.398   .     A
C562   C1413   1.396   .     S
C563   H568    1.082   .     S
O569   C573    1.309   .     A
O569   Cu581   1.963   .     S
O570   C574    1.304   .     A
O570   Cu582   1.963   .     S
O571   Cu582   1.959   .     S
O571   C573    1.301   .     A
O572   C574    1.304   .     A
O572   Cu581   1.959   .     S
C573   C591    1.486   .     S
C574   C592    1.487   .     S
O575   C579    1.292   .     A
O575   Cu581   1.977   .     S
O576   Cu582   1.977   .     S
O576   C580    1.293   .     A
O577   Cu582   1.965   .     S
O577   C579    1.291   .     A
O578   C580    1.290   .     A
O578   Cu581   1.965   .     S
C579   C583    1.434   .     S
C580   C584    1.435   .     S
Cu581  Cu582   2.693   .     S
Cu581  N606    2.023   .     S
Cu582  N605    2.023   .     S
C584   C725    1.326   .     S
C584   H728    1.086   .     S
H585   C725    1.084   .     S
C587   C599    1.425   .     A
C587   C615    1.492   .     S
C587   C589    1.403   .     A
C588   C590    1.408   .     A
C588   C626    1.486   .     S
C588   C600    1.421   .     A
C589   O637    1.379   .     S
C589   C591    1.409   .     A
C590   C592    1.424   .     A
C590   O639    1.378   .     S
C591   C593    1.414   .     A
C592   C594    1.410   .     A
C593   C641    1.477   .     S
C593   C595    1.396   .     A
C594   C652    1.498   .     S
C594   C596    1.393   .     A
C595   H597    1.082   .     S
C595   C599    1.404   .     A
C596   C600    1.400   .     A
C596   H598    1.076   .     S
C600   C173    1.496   1_565 S
C601   C613    1.413   .     A
C601   O663    1.380   .     S
C601   C603    1.410   .     A
C602   O665    1.380   .     S
C602   C614    1.403   .     A
C602   C604    1.421   .     A
C603   N605    1.378   .     A
C603   C667    1.475   .     S
C604   C678    1.483   .     S
C604   N606    1.381   .     A
N605   C607    1.365   .     A
N606   C608    1.364   .     A
C607   H609    1.081   .     S
C607   C611    1.418   .     A
C608   C612    1.422   .     A
C608   H610    1.081   .     S
C611   C689    1.483   .     S
C611   C613    1.429   .     A
C612   C614    1.431   .     A
C612   C700    1.492   .     S
C613   C1466   1.530   1_554 S
C614   C1465   1.530   .     S
C615   C616    1.407   .     A
C615   C620    1.408   .     A
C616   H621    1.082   .     S
C617   C618    1.397   .     A
C617   H622    1.082   .     S
C617   C190    1.398   1_565 S
C618   H623    1.083   .     S
C618   C193    1.397   1_565 S
C619   H624    1.082   .     S
C619   C620    1.398   .     A
C620   H625    1.082   .     S
C626   C631    1.406   .     A
C626   C201    1.404   1_565 S
C627   C628    1.399   .     A
C627   H632    1.082   .     S
C628   C629    1.398   .     A
C628   H633    1.082   .     S
C629   H634    1.082   .     S
C630   H635    1.082   .     S
C630   C631    1.398   .     A
C630   C203    1.398   1_565 S
C631   H636    1.082   .     S
O637   H638    0.989   .     S
O639   H640    0.983   .     S
C641   C642    1.403   .     A
C641   C646    1.404   .     A
C642   C643    1.396   .     A
C642   H647    1.081   .     S
C643   H648    1.081   .     S
C643   C644    1.397   .     A
C644   C645    1.398   .     A
C644   H649    1.082   .     S
C645   C646    1.399   .     A
C645   H650    1.082   .     S
C646   H651    1.083   .     S
C652   C653    1.415   .     A
C652   C657    1.408   .     A
C653   C654    1.397   .     A
C653   H658    1.083   .     S
C654   H659    1.083   .     S
C654   C655    1.393   .     A
C655   C656    1.395   .     A
C655   H660    1.082   .     S
C656   H661    1.080   .     S
C656   C657    1.396   .     A
C657   H662    1.081   .     S
O663   H664    0.986   .     S
O665   H666    0.987   .     S
C667   C672    1.401   .     A
C667   C668    1.401   .     A
C668   H673    1.078   .     S
C668   C669    1.397   .     A
C669   C670    1.395   .     A
C669   H674    1.083   .     S
C670   C813    1.398   .     S
C670   H817    1.082   .     S
C671   H676    1.076   .     S
C672   H677    1.082   .     S
C672   C813    1.393   .     S
C678   C679    1.404   .     A
C678   C683    1.402   .     A
C679   H684    1.068   .     S
C679   C680    1.395   .     A
C680   C681    1.389   .     A
C680   H685    1.077   .     S
C681   C682    1.393   .     A
C682   C683    1.399   .     A
C683   H688    1.083   .     S
H686   C823    1.080   .     S
H687   C824    1.078   .     S
C689   C694    1.407   .     A
C689   C1542   1.406   1_554 S
C690   H695    1.083   .     S
C690   C691    1.398   .     A
C690   C1541   1.406   .     S
C692   H697    1.083   .     S
C692   C833    1.398   .     S
C692   C1687   1.396   .     S
C693   C694    1.398   .     A
C693   C1402   1.396   1_554 S
C694   H699    1.083   .     S
H696   C833    1.082   .     S
H698   C835    1.082   .     S
C700   C705    1.409   .     A
C700   C1553   1.408   .     S
C701   C702    1.398   .     A
C701   H706    1.082   .     S
C701   C1552   1.408   1_554 S
C702   H707    1.081   .     S
C702   C703    1.396   .     A
C703   H708    1.082   .     S
C703   C1556   1.396   1_554 S
C704   H709    1.082   .     S
C704   C705    1.398   .     A
C704   C1555   1.396   .     S
C705   H710    1.082   .     S
O711   C715    1.309   .     A
O711   Cu723   1.963   .     S
O712   C716    1.304   .     A
O712   Cu724   1.963   .     S
O713   Cu724   1.959   .     S
O713   C715    1.301   .     A
O714   C716    1.304   .     A
O714   Cu723   1.959   .     S
C715   C733    1.486   .     S
C716   C734    1.487   .     S
O717   C721    1.292   .     A
O717   Cu723   1.977   .     S
O718   Cu724   1.977   .     S
O718   C722    1.293   .     A
O719   Cu724   1.965   .     S
O719   C721    1.291   .     A
O720   C722    1.290   .     A
O720   Cu723   1.965   .     S
C721   C725    1.434   .     S
C722   C726    1.435   .     S
Cu723  Cu724   2.693   .     S
Cu723  N748    2.023   .     S
Cu724  N747    2.023   .     S
C726   C441    1.326   1_655 S
C726   H444    1.086   1_655 S
H727   C441    1.084   1_655 S
C729   C741    1.425   .     A
C729   C757    1.492   .     S
C729   C731    1.403   .     A
C730   C732    1.408   .     A
C730   C768    1.486   .     S
C730   C742    1.421   .     A
C731   O779    1.379   .     S
C731   C733    1.409   .     A
C732   C734    1.424   .     A
C732   O781    1.378   .     S
C733   C735    1.414   .     A
C734   C736    1.410   .     A
C735   C783    1.477   .     S
C735   C737    1.396   .     A
C736   C794    1.498   .     S
C736   C738    1.393   .     A
C737   H739    1.082   .     S
C737   C741    1.404   .     A
C738   C742    1.400   .     A
C738   H740    1.076   .     S
C742   C315    1.496   1_565 S
C743   C755    1.413   .     A
C743   O805    1.380   .     S
C743   C745    1.410   .     A
C744   O807    1.380   .     S
C744   C756    1.403   .     A
C744   C746    1.421   .     A
C745   N747    1.378   .     A
C745   C809    1.475   .     S
C746   C820    1.483   .     S
C746   N748    1.381   .     A
N747   C749    1.365   .     A
N748   C750    1.364   .     A
C749   H751    1.081   .     S
C749   C753    1.418   .     A
C750   C754    1.422   .     A
C750   H752    1.081   .     S
C753   C831    1.483   .     S
C753   C755    1.429   .     A
C754   C756    1.431   .     A
C754   C842    1.492   .     S
C755   C1608   1.530   1_554 S
C756   C1607   1.530   .     S
C757   C758    1.407   .     A
C757   C762    1.408   .     A
C758   H763    1.082   .     S
C759   C760    1.397   .     A
C759   H764    1.082   .     S
C759   C332    1.398   1_565 S
C760   H765    1.083   .     S
C760   C335    1.397   1_565 S
C761   H766    1.082   .     S
C761   C762    1.398   .     A
C762   H767    1.082   .     S
C768   C773    1.406   .     A
C768   C343    1.404   1_565 S
C769   C770    1.399   .     A
C769   H774    1.082   .     S
C770   C771    1.398   .     A
C770   H775    1.082   .     S
C771   H776    1.082   .     S
C772   H777    1.082   .     S
C772   C773    1.398   .     A
C772   C345    1.398   1_565 S
C773   H778    1.082   .     S
O779   H780    0.989   .     S
O781   H782    0.983   .     S
C783   C784    1.403   .     A
C783   C788    1.404   .     A
C784   C785    1.396   .     A
C784   H789    1.081   .     S
C785   H790    1.081   .     S
C785   C786    1.397   .     A
C786   C787    1.398   .     A
C786   H791    1.082   .     S
C787   C788    1.399   .     A
C787   H792    1.082   .     S
C788   H793    1.083   .     S
C794   C795    1.415   .     A
C794   C799    1.408   .     A
C795   C796    1.397   .     A
C795   H800    1.083   .     S
C796   H801    1.083   .     S
C796   C797    1.393   .     A
C797   C798    1.395   .     A
C797   H802    1.082   .     S
C798   H803    1.080   .     S
C798   C799    1.396   .     A
C799   H804    1.081   .     S
O805   H806    0.986   .     S
O807   H808    0.987   .     S
C809   C814    1.401   .     A
C809   C810    1.401   .     A
C810   H815    1.078   .     S
C810   C811    1.397   .     A
C811   C812    1.395   .     A
C811   H816    1.083   .     S
C812   C529    1.398   1_655 S
C812   H533    1.082   1_655 S
C813   H818    1.076   .     S
C814   H819    1.082   .     S
C814   C529    1.393   1_655 S
C820   C821    1.404   .     A
C820   C825    1.402   .     A
C821   H826    1.068   .     S
C821   C822    1.395   .     A
C822   C823    1.389   .     A
C822   H827    1.077   .     S
C823   C824    1.393   .     A
C824   C825    1.399   .     A
C825   H830    1.083   .     S
H828   C539    1.080   1_655 S
H829   C540    1.078   1_655 S
C831   C836    1.407   .     A
C831   C1684   1.406   1_554 S
C832   H837    1.083   .     S
C832   C833    1.398   .     A
C832   C1683   1.406   .     S
C834   H839    1.083   .     S
C834   C549    1.398   1_655 S
C834   C1403   1.396   1_655 S
C835   C836    1.398   .     A
C835   C1544   1.396   1_554 S
C836   H841    1.083   .     S
H838   C549    1.082   1_655 S
H840   C551    1.082   1_655 S
C842   C847    1.409   .     A
C842   C1695   1.408   .     S
C843   C844    1.398   .     A
C843   H848    1.082   .     S
C843   C1694   1.408   1_554 S
C844   H849    1.081   .     S
C844   C845    1.396   .     A
C845   H850    1.082   .     S
C845   C1698   1.396   1_554 S
C846   H851    1.082   .     S
C846   C847    1.398   .     A
C846   C1697   1.396   .     S
C847   H852    1.082   .     S
O853   C857    1.309   .     A
O853   Cu865   1.963   .     S
O854   C858    1.304   .     A
O854   Cu866   1.963   .     S
O855   Cu866   1.959   .     S
O855   C857    1.301   .     A
O856   C858    1.304   .     A
O856   Cu865   1.959   .     S
C857   C875    1.486   .     S
C858   C876    1.487   .     S
O859   C863    1.292   .     A
O859   Cu865   1.977   .     S
O860   Cu866   1.977   .     S
O860   C864    1.293   .     A
O861   Cu866   1.965   .     S
O861   C863    1.291   .     A
O862   C864    1.290   .     A
O862   Cu865   1.965   .     S
C863   C867    1.434   .     S
C864   C868    1.435   .     S
Cu865  Cu866   2.693   .     S
Cu865  N890    2.023   .     S
Cu866  N889    2.023   .     S
C867   C1152   1.326   1_455 S
C867   H1153   1.084   1_455 S
C868   C1009   1.326   .     S
C868   H1012   1.086   .     S
H869   C1009   1.084   .     S
H870   C1152   1.086   1_455 S
C871   C883    1.425   .     A
C871   C899    1.492   .     S
C871   C873    1.403   .     A
C872   C874    1.408   .     A
C872   C910    1.486   .     S
C872   C884    1.421   .     A
C873   O921    1.379   .     S
C873   C875    1.409   .     A
C874   C876    1.424   .     A
C874   O923    1.378   .     S
C875   C877    1.414   .     A
C876   C878    1.410   .     A
C877   C925    1.477   .     S
C877   C879    1.396   .     A
C878   C936    1.498   .     S
C878   C880    1.393   .     A
C879   H881    1.082   .     S
C879   C883    1.404   .     A
C880   C884    1.400   .     A
C880   H882    1.076   .     S
C883   C1310   1.496   1_545 S
C884   C1309   1.496   .     S
C885   C897    1.413   .     A
C885   O947    1.380   .     S
C885   C887    1.410   .     A
C886   O949    1.380   .     S
C886   C898    1.403   .     A
C886   C888    1.421   .     A
C887   N889    1.378   .     A
C887   C951    1.475   .     S
C888   C962    1.483   .     S
C888   N890    1.381   .     A
N889   C891    1.365   .     A
N890   C892    1.364   .     A
C891   H893    1.081   .     S
C891   C895    1.418   .     A
C892   C896    1.422   .     A
C892   H894    1.081   .     S
C895   C973    1.483   .     S
C895   C897    1.429   .     A
C896   C898    1.431   .     A
C896   C984    1.492   .     S
C898   C45     1.530   1_556 S
C899   C900    1.407   .     A
C899   C904    1.408   .     A
C900   H905    1.082   .     S
C900   C1327   1.398   1_545 S
C901   C902    1.397   .     A
C901   H906    1.082   .     S
C901   C1326   1.398   .     S
C902   H907    1.083   .     S
C902   C1329   1.397   .     S
C903   H908    1.082   .     S
C903   C904    1.398   .     A
C903   C1328   1.397   1_545 S
C904   H909    1.082   .     S
C910   C915    1.406   .     A
C910   C1337   1.404   .     S
C911   C912    1.399   .     A
C911   H916    1.082   .     S
C911   C1336   1.404   1_545 S
C912   C913    1.398   .     A
C912   H917    1.082   .     S
C913   H918    1.082   .     S
C913   C1340   1.398   1_545 S
C914   H919    1.082   .     S
C914   C915    1.398   .     A
C914   C1339   1.398   .     S
C915   H920    1.082   .     S
O921   H922    0.989   .     S
O923   H924    0.983   .     S
C925   C926    1.403   .     A
C925   C930    1.404   .     A
C926   C927    1.396   .     A
C926   H931    1.081   .     S
C927   H932    1.081   .     S
C927   C928    1.397   .     A
C928   C929    1.398   .     A
C928   H933    1.082   .     S
C929   C930    1.399   .     A
C929   H934    1.082   .     S
C930   H935    1.083   .     S
C936   C937    1.415   .     A
C936   C941    1.408   .     A
C937   C938    1.397   .     A
C937   H942    1.083   .     S
C938   H943    1.083   .     S
C938   C939    1.393   .     A
C939   C940    1.395   .     A
C939   H944    1.082   .     S
C940   H945    1.080   .     S
C940   C941    1.396   .     A
C941   H946    1.081   .     S
O947   H948    0.986   .     S
O949   H950    0.987   .     S
C951   C956    1.401   .     A
C951   C952    1.401   .     A
C952   H957    1.078   .     S
C952   C953    1.397   .     A
C953   C954    1.395   .     A
C953   H958    1.083   .     S
C954   C1097   1.398   .     S
C954   H1101   1.082   .     S
C955   H960    1.076   .     S
C955   C1238   1.398   1_455 S
C955   C1240   1.393   1_455 S
C956   H961    1.082   .     S
C956   C1097   1.393   .     S
H959   C1238   1.082   1_455 S
C962   C963    1.404   .     A
C962   C967    1.402   .     A
C963   H968    1.068   .     S
C963   C964    1.395   .     A
C964   C965    1.389   .     A
C964   H969    1.077   .     S
C965   C966    1.393   .     A
C965   H1254   1.080   1_455 S
C966   C967    1.399   .     A
C966   H1255   1.078   1_455 S
C967   H972    1.083   .     S
H970   C1107   1.080   .     S
H971   C1108   1.078   .     S
C973   C978    1.407   .     A
C974   H979    1.083   .     S
C974   C975    1.398   .     A
C974   C121    1.406   1_556 S
C975   C1260   1.398   1_455 S
C975   H1264   1.082   1_455 S
C976   H981    1.083   .     S
C976   C1117   1.398   .     S
C976   C267    1.396   1_556 S
C977   C978    1.398   .     A
C977   C408    1.396   1_455 S
C977   H1266   1.082   1_455 S
C978   H983    1.083   .     S
H980   C1117   1.082   .     S
H982   C1119   1.082   .     S
C984   C989    1.409   .     A
C984   C133    1.408   1_556 S
C985   C986    1.398   .     A
C985   H990    1.082   .     S
C986   H991    1.081   .     S
C986   C987    1.396   .     A
C987   H992    1.082   .     S
C988   H993    1.082   .     S
C988   C989    1.398   .     A
C988   C135    1.396   1_556 S
C989   H994    1.082   .     S
O995   C999    1.309   .     A
O995   Cu1007  1.963   .     S
O996   C1000   1.304   .     A
O996   Cu1008  1.963   .     S
O997   Cu1008  1.959   .     S
O997   C999    1.301   .     A
O998   C1000   1.304   .     A
O998   Cu1007  1.959   .     S
C999   C1017   1.486   .     S
C1000  C1018   1.487   .     S
O1001  C1005   1.292   .     A
O1001  Cu1007  1.977   .     S
O1002  Cu1008  1.977   .     S
O1002  C1006   1.293   .     A
O1003  Cu1008  1.965   .     S
O1003  C1005   1.291   .     A
O1004  C1006   1.290   .     A
O1004  Cu1007  1.965   .     S
C1005  C1009   1.434   .     S
C1006  C1010   1.435   .     S
Cu1007 Cu1008  2.693   .     S
Cu1007 N1032   2.023   .     S
Cu1008 N1031   2.023   .     S
C1010  C1151   1.326   .     S
C1010  H1154   1.086   .     S
H1011  C1151   1.084   .     S
C1013  C1025   1.425   .     A
C1013  C1041   1.492   .     S
C1013  C1015   1.403   .     A
C1014  C1016   1.408   .     A
C1014  C1052   1.486   .     S
C1014  C1026   1.421   .     A
C1015  O1063   1.379   .     S
C1015  C1017   1.409   .     A
C1016  C1018   1.424   .     A
C1016  O1065   1.378   .     S
C1017  C1019   1.414   .     A
C1018  C1020   1.410   .     A
C1019  C1067   1.477   .     S
C1019  C1021   1.396   .     A
C1020  C1078   1.498   .     S
C1020  C1022   1.393   .     A
C1021  H1023   1.082   .     S
C1021  C1025   1.404   .     A
C1022  C1026   1.400   .     A
C1022  H1024   1.076   .     S
C1025  C1452   1.496   1_545 S
C1026  C1451   1.496   .     S
C1027  C1039   1.413   .     A
C1027  O1089   1.380   .     S
C1027  C1029   1.410   .     A
C1028  O1091   1.380   .     S
C1028  C1040   1.403   .     A
C1028  C1030   1.421   .     A
C1029  N1031   1.378   .     A
C1029  C1093   1.475   .     S
C1030  C1104   1.483   .     S
C1030  N1032   1.381   .     A
N1031  C1033   1.365   .     A
N1032  C1034   1.364   .     A
C1033  H1035   1.081   .     S
C1033  C1037   1.418   .     A
C1034  C1038   1.422   .     A
C1034  H1036   1.081   .     S
C1037  C1115   1.483   .     S
C1037  C1039   1.429   .     A
C1038  C1040   1.431   .     A
C1038  C1126   1.492   .     S
C1040  C187    1.530   1_556 S
C1041  C1042   1.407   .     A
C1041  C1046   1.408   .     A
C1042  H1047   1.082   .     S
C1042  C1469   1.398   1_545 S
C1043  C1044   1.397   .     A
C1043  H1048   1.082   .     S
C1043  C1468   1.398   .     S
C1044  H1049   1.083   .     S
C1044  C1471   1.397   .     S
C1045  H1050   1.082   .     S
C1045  C1046   1.398   .     A
C1045  C1470   1.397   1_545 S
C1046  H1051   1.082   .     S
C1052  C1057   1.406   .     A
C1052  C1479   1.404   .     S
C1053  C1054   1.399   .     A
C1053  H1058   1.082   .     S
C1053  C1478   1.404   1_545 S
C1054  C1055   1.398   .     A
C1054  H1059   1.082   .     S
C1055  H1060   1.082   .     S
C1055  C1482   1.398   1_545 S
C1056  H1061   1.082   .     S
C1056  C1057   1.398   .     A
C1056  C1481   1.398   .     S
C1057  H1062   1.082   .     S
O1063  H1064   0.989   .     S
O1065  H1066   0.983   .     S
C1067  C1068   1.403   .     A
C1067  C1072   1.404   .     A
C1068  C1069   1.396   .     A
C1068  H1073   1.081   .     S
C1069  H1074   1.081   .     S
C1069  C1070   1.397   .     A
C1070  C1071   1.398   .     A
C1070  H1075   1.082   .     S
C1071  C1072   1.399   .     A
C1071  H1076   1.082   .     S
C1072  H1077   1.083   .     S
C1078  C1079   1.415   .     A
C1078  C1083   1.408   .     A
C1079  C1080   1.397   .     A
C1079  H1084   1.083   .     S
C1080  H1085   1.083   .     S
C1080  C1081   1.393   .     A
C1081  C1082   1.395   .     A
C1081  H1086   1.082   .     S
C1082  H1087   1.080   .     S
C1082  C1083   1.396   .     A
C1083  H1088   1.081   .     S
O1089  H1090   0.986   .     S
O1091  H1092   0.987   .     S
C1093  C1098   1.401   .     A
C1093  C1094   1.401   .     A
C1094  H1099   1.078   .     S
C1094  C1095   1.397   .     A
C1095  C1096   1.395   .     A
C1095  H1100   1.083   .     S
C1096  C1239   1.398   .     S
C1096  H1243   1.082   .     S
C1097  H1102   1.076   .     S
C1098  H1103   1.082   .     S
C1098  C1239   1.393   .     S
C1104  C1105   1.404   .     A
C1104  C1109   1.402   .     A
C1105  H1110   1.068   .     S
C1105  C1106   1.395   .     A
C1106  C1107   1.389   .     A
C1106  H1111   1.077   .     S
C1107  C1108   1.393   .     A
C1108  C1109   1.399   .     A
C1109  H1114   1.083   .     S
H1112  C1249   1.080   .     S
H1113  C1250   1.078   .     S
C1115  C1120   1.407   .     A
C1116  H1121   1.083   .     S
C1116  C1117   1.398   .     A
C1116  C263    1.406   1_556 S
C1118  H1123   1.083   .     S
C1118  C1259   1.398   .     S
C1118  C409    1.396   1_556 S
C1119  C1120   1.398   .     A
C1120  H1125   1.083   .     S
H1122  C1259   1.082   .     S
H1124  C1261   1.082   .     S
C1126  C1131   1.409   .     A
C1126  C275    1.408   1_556 S
C1127  C1128   1.398   .     A
C1127  H1132   1.082   .     S
C1128  H1133   1.081   .     S
C1128  C1129   1.396   .     A
C1129  H1134   1.082   .     S
C1130  H1135   1.082   .     S
C1130  C1131   1.398   .     A
C1130  C277    1.396   1_556 S
C1131  H1136   1.082   .     S
O1137  C1141   1.309   .     A
O1137  Cu1149  1.963   .     S
O1138  C1142   1.304   .     A
O1138  Cu1150  1.963   .     S
O1139  Cu1150  1.959   .     S
O1139  C1141   1.301   .     A
O1140  C1142   1.304   .     A
O1140  Cu1149  1.959   .     S
C1141  C1159   1.486   .     S
C1142  C1160   1.487   .     S
O1143  C1147   1.292   .     A
O1143  Cu1149  1.977   .     S
O1144  Cu1150  1.977   .     S
O1144  C1148   1.293   .     A
O1145  Cu1150  1.965   .     S
O1145  C1147   1.291   .     A
O1146  C1148   1.290   .     A
O1146  Cu1149  1.965   .     S
C1147  C1151   1.434   .     S
C1148  C1152   1.435   .     S
Cu1149 Cu1150  2.693   .     S
Cu1149 N1174   2.023   .     S
Cu1150 N1173   2.023   .     S
C1152  C867    1.326   1_655 S
C1152  H870    1.086   1_655 S
H1153  C867    1.084   1_655 S
C1155  C1167   1.425   .     A
C1155  C1183   1.492   .     S
C1155  C1157   1.403   .     A
C1156  C1158   1.408   .     A
C1156  C1194   1.486   .     S
C1156  C1168   1.421   .     A
C1157  O1205   1.379   .     S
C1157  C1159   1.409   .     A
C1158  C1160   1.424   .     A
C1158  O1207   1.378   .     S
C1159  C1161   1.414   .     A
C1160  C1162   1.410   .     A
C1161  C1209   1.477   .     S
C1161  C1163   1.396   .     A
C1162  C1220   1.498   .     S
C1162  C1164   1.393   .     A
C1163  H1165   1.082   .     S
C1163  C1167   1.404   .     A
C1164  C1168   1.400   .     A
C1164  H1166   1.076   .     S
C1167  C1594   1.496   1_545 S
C1168  C1593   1.496   .     S
C1169  C1181   1.413   .     A
C1169  O1231   1.380   .     S
C1169  C1171   1.410   .     A
C1170  O1233   1.380   .     S
C1170  C1182   1.403   .     A
C1170  C1172   1.421   .     A
C1171  N1173   1.378   .     A
C1171  C1235   1.475   .     S
C1172  C1246   1.483   .     S
C1172  N1174   1.381   .     A
N1173  C1175   1.365   .     A
N1174  C1176   1.364   .     A
C1175  H1177   1.081   .     S
C1175  C1179   1.418   .     A
C1176  C1180   1.422   .     A
C1176  H1178   1.081   .     S
C1179  C1257   1.483   .     S
C1179  C1181   1.429   .     A
C1180  C1182   1.431   .     A
C1180  C1268   1.492   .     S
C1182  C329    1.530   1_556 S
C1183  C1184   1.407   .     A
C1183  C1188   1.408   .     A
C1184  H1189   1.082   .     S
C1184  C1611   1.398   1_545 S
C1185  C1186   1.397   .     A
C1185  H1190   1.082   .     S
C1185  C1610   1.398   .     S
C1186  H1191   1.083   .     S
C1186  C1613   1.397   .     S
C1187  H1192   1.082   .     S
C1187  C1188   1.398   .     A
C1187  C1612   1.397   1_545 S
C1188  H1193   1.082   .     S
C1194  C1199   1.406   .     A
C1194  C1621   1.404   .     S
C1195  C1196   1.399   .     A
C1195  H1200   1.082   .     S
C1195  C1620   1.404   1_545 S
C1196  C1197   1.398   .     A
C1196  H1201   1.082   .     S
C1197  H1202   1.082   .     S
C1197  C1624   1.398   1_545 S
C1198  H1203   1.082   .     S
C1198  C1199   1.398   .     A
C1198  C1623   1.398   .     S
C1199  H1204   1.082   .     S
O1205  H1206   0.989   .     S
O1207  H1208   0.983   .     S
C1209  C1210   1.403   .     A
C1209  C1214   1.404   .     A
C1210  C1211   1.396   .     A
C1210  H1215   1.081   .     S
C1211  H1216   1.081   .     S
C1211  C1212   1.397   .     A
C1212  C1213   1.398   .     A
C1212  H1217   1.082   .     S
C1213  C1214   1.399   .     A
C1213  H1218   1.082   .     S
C1214  H1219   1.083   .     S
C1220  C1221   1.415   .     A
C1220  C1225   1.408   .     A
C1221  C1222   1.397   .     A
C1221  H1226   1.083   .     S
C1222  H1227   1.083   .     S
C1222  C1223   1.393   .     A
C1223  C1224   1.395   .     A
C1223  H1228   1.082   .     S
C1224  H1229   1.080   .     S
C1224  C1225   1.396   .     A
C1225  H1230   1.081   .     S
O1231  H1232   0.986   .     S
O1233  H1234   0.987   .     S
C1235  C1240   1.401   .     A
C1235  C1236   1.401   .     A
C1236  H1241   1.078   .     S
C1236  C1237   1.397   .     A
C1237  C1238   1.395   .     A
C1237  H1242   1.083   .     S
C1238  C955    1.398   1_655 S
C1238  H959    1.082   1_655 S
C1239  H1244   1.076   .     S
C1240  H1245   1.082   .     S
C1240  C955    1.393   1_655 S
C1246  C1247   1.404   .     A
C1246  C1251   1.402   .     A
C1247  H1252   1.068   .     S
C1247  C1248   1.395   .     A
C1248  C1249   1.389   .     A
C1248  H1253   1.077   .     S
C1249  C1250   1.393   .     A
C1250  C1251   1.399   .     A
C1251  H1256   1.083   .     S
H1254  C965    1.080   1_655 S
H1255  C966    1.078   1_655 S
C1257  C1262   1.407   .     A
C1258  H1263   1.083   .     S
C1258  C1259   1.398   .     A
C1258  C405    1.406   1_556 S
C1260  H1265   1.083   .     S
C1260  C975    1.398   1_655 S
C1260  C125    1.396   1_656 S
C1261  C1262   1.398   .     A
C1262  H1267   1.083   .     S
H1264  C975    1.082   1_655 S
H1266  C977    1.082   1_655 S
C1268  C1273   1.409   .     A
C1268  C417    1.408   1_556 S
C1269  C1270   1.398   .     A
C1269  H1274   1.082   .     S
C1270  H1275   1.081   .     S
C1270  C1271   1.396   .     A
C1271  H1276   1.082   .     S
C1272  H1277   1.082   .     S
C1272  C1273   1.398   .     A
C1272  C419    1.396   1_556 S
C1273  H1278   1.082   .     S
O1279  C1283   1.309   .     A
O1279  Cu1291  1.963   .     S
O1280  C1284   1.304   .     A
O1280  Cu1292  1.963   .     S
O1281  Cu1292  1.959   .     S
O1281  C1283   1.301   .     A
O1282  C1284   1.304   .     A
O1282  Cu1291  1.959   .     S
C1283  C1301   1.486   .     S
C1284  C1302   1.487   .     S
O1285  C1289   1.292   .     A
O1285  Cu1291  1.977   .     S
O1286  Cu1292  1.977   .     S
O1286  C1290   1.293   .     A
O1287  Cu1292  1.965   .     S
O1287  C1289   1.291   .     A
O1288  C1290   1.290   .     A
O1288  Cu1291  1.965   .     S
C1289  C1293   1.434   .     S
C1290  C1294   1.435   .     S
Cu1291 Cu1292  2.693   .     S
Cu1291 N1316   2.023   .     S
Cu1292 N1315   2.023   .     S
C1293  C1578   1.326   1_455 S
C1293  H1579   1.084   1_455 S
C1294  C1435   1.326   .     S
C1294  H1438   1.086   .     S
H1295  C1435   1.084   .     S
H1296  C1578   1.086   1_455 S
C1297  C1309   1.425   .     A
C1297  C1325   1.492   .     S
C1297  C1299   1.403   .     A
C1298  C1300   1.408   .     A
C1298  C1336   1.486   .     S
C1298  C1310   1.421   .     A
C1299  O1347   1.379   .     S
C1299  C1301   1.409   .     A
C1300  C1302   1.424   .     A
C1300  O1349   1.378   .     S
C1301  C1303   1.414   .     A
C1302  C1304   1.410   .     A
C1303  C1351   1.477   .     S
C1303  C1305   1.396   .     A
C1304  C1362   1.498   .     S
C1304  C1306   1.393   .     A
C1305  H1307   1.082   .     S
C1305  C1309   1.404   .     A
C1306  C1310   1.400   .     A
C1306  H1308   1.076   .     S
C1310  C883    1.496   1_565 S
C1311  C1323   1.413   .     A
C1311  O1373   1.380   .     S
C1311  C1313   1.410   .     A
C1312  O1375   1.380   .     S
C1312  C1324   1.403   .     A
C1312  C1314   1.421   .     A
C1313  N1315   1.378   .     A
C1313  C1377   1.475   .     S
C1314  C1388   1.483   .     S
C1314  N1316   1.381   .     A
N1315  C1317   1.365   .     A
N1316  C1318   1.364   .     A
C1317  H1319   1.081   .     S
C1317  C1321   1.418   .     A
C1318  C1322   1.422   .     A
C1318  H1320   1.081   .     S
C1321  C1399   1.483   .     S
C1321  C1323   1.429   .     A
C1322  C1324   1.431   .     A
C1322  C1410   1.492   .     S
C1324  C471    1.530   1_556 S
C1325  C1326   1.407   .     A
C1325  C1330   1.408   .     A
C1326  H1331   1.082   .     S
C1327  C1328   1.397   .     A
C1327  H1332   1.082   .     S
C1327  C900    1.398   1_565 S
C1328  H1333   1.083   .     S
C1328  C903    1.397   1_565 S
C1329  H1334   1.082   .     S
C1329  C1330   1.398   .     A
C1330  H1335   1.082   .     S
C1336  C1341   1.406   .     A
C1336  C911    1.404   1_565 S
C1337  C1338   1.399   .     A
C1337  H1342   1.082   .     S
C1338  C1339   1.398   .     A
C1338  H1343   1.082   .     S
C1339  H1344   1.082   .     S
C1340  H1345   1.082   .     S
C1340  C1341   1.398   .     A
C1340  C913    1.398   1_565 S
C1341  H1346   1.082   .     S
O1347  H1348   0.989   .     S
O1349  H1350   0.983   .     S
C1351  C1352   1.403   .     A
C1351  C1356   1.404   .     A
C1352  C1353   1.396   .     A
C1352  H1357   1.081   .     S
C1353  H1358   1.081   .     S
C1353  C1354   1.397   .     A
C1354  C1355   1.398   .     A
C1354  H1359   1.082   .     S
C1355  C1356   1.399   .     A
C1355  H1360   1.082   .     S
C1356  H1361   1.083   .     S
C1362  C1363   1.415   .     A
C1362  C1367   1.408   .     A
C1363  C1364   1.397   .     A
C1363  H1368   1.083   .     S
C1364  H1369   1.083   .     S
C1364  C1365   1.393   .     A
C1365  C1366   1.395   .     A
C1365  H1370   1.082   .     S
C1366  H1371   1.080   .     S
C1366  C1367   1.396   .     A
C1367  H1372   1.081   .     S
O1373  H1374   0.986   .     S
O1375  H1376   0.987   .     S
C1377  C1382   1.401   .     A
C1377  C1378   1.401   .     A
C1378  H1383   1.078   .     S
C1378  C1379   1.397   .     A
C1379  C1380   1.395   .     A
C1379  H1384   1.083   .     S
C1380  C1523   1.398   .     S
C1380  H1527   1.082   .     S
C1381  H1386   1.076   .     S
C1381  C1664   1.398   1_455 S
C1381  C1666   1.393   1_455 S
C1382  H1387   1.082   .     S
C1382  C1523   1.393   .     S
H1385  C1664   1.082   1_455 S
C1388  C1389   1.404   .     A
C1388  C1393   1.402   .     A
C1389  H1394   1.068   .     S
C1389  C1390   1.395   .     A
C1390  C1391   1.389   .     A
C1390  H1395   1.077   .     S
C1391  C1392   1.393   .     A
C1391  H1680   1.080   1_455 S
C1392  C1393   1.399   .     A
C1392  H1681   1.078   1_455 S
C1393  H1398   1.083   .     S
H1396  C1533   1.080   .     S
H1397  C1534   1.078   .     S
C1399  C1404   1.407   .     A
C1400  H1405   1.083   .     S
C1400  C1401   1.398   .     A
C1400  C547    1.406   1_556 S
C1401  C1686   1.398   1_455 S
C1401  H1690   1.082   1_455 S
C1402  H1407   1.083   .     S
C1402  C1543   1.398   .     S
C1402  C693    1.396   1_556 S
C1403  C1404   1.398   .     A
C1403  C834    1.396   1_455 S
C1403  H1692   1.082   1_455 S
C1404  H1409   1.083   .     S
H1406  C1543   1.082   .     S
H1408  C1545   1.082   .     S
C1410  C1415   1.409   .     A
C1410  C559    1.408   1_556 S
C1411  C1412   1.398   .     A
C1411  H1416   1.082   .     S
C1412  H1417   1.081   .     S
C1412  C1413   1.396   .     A
C1413  H1418   1.082   .     S
C1414  H1419   1.082   .     S
C1414  C1415   1.398   .     A
C1414  C561    1.396   1_556 S
C1415  H1420   1.082   .     S
O1421  C1425   1.309   .     A
O1421  Cu1433  1.963   .     S
O1422  C1426   1.304   .     A
O1422  Cu1434  1.963   .     S
O1423  Cu1434  1.959   .     S
O1423  C1425   1.301   .     A
O1424  C1426   1.304   .     A
O1424  Cu1433  1.959   .     S
C1425  C1443   1.486   .     S
C1426  C1444   1.487   .     S
O1427  C1431   1.292   .     A
O1427  Cu1433  1.977   .     S
O1428  Cu1434  1.977   .     S
O1428  C1432   1.293   .     A
O1429  Cu1434  1.965   .     S
O1429  C1431   1.291   .     A
O1430  C1432   1.290   .     A
O1430  Cu1433  1.965   .     S
C1431  C1435   1.434   .     S
C1432  C1436   1.435   .     S
Cu1433 Cu1434  2.693   .     S
Cu1433 N1458   2.023   .     S
Cu1434 N1457   2.023   .     S
C1436  C1577   1.326   .     S
C1436  H1580   1.086   .     S
H1437  C1577   1.084   .     S
C1439  C1451   1.425   .     A
C1439  C1467   1.492   .     S
C1439  C1441   1.403   .     A
C1440  C1442   1.408   .     A
C1440  C1478   1.486   .     S
C1440  C1452   1.421   .     A
C1441  O1489   1.379   .     S
C1441  C1443   1.409   .     A
C1442  C1444   1.424   .     A
C1442  O1491   1.378   .     S
C1443  C1445   1.414   .     A
C1444  C1446   1.410   .     A
C1445  C1493   1.477   .     S
C1445  C1447   1.396   .     A
C1446  C1504   1.498   .     S
C1446  C1448   1.393   .     A
C1447  H1449   1.082   .     S
C1447  C1451   1.404   .     A
C1448  C1452   1.400   .     A
C1448  H1450   1.076   .     S
C1452  C1025   1.496   1_565 S
C1453  C1465   1.413   .     A
C1453  O1515   1.380   .     S
C1453  C1455   1.410   .     A
C1454  O1517   1.380   .     S
C1454  C1466   1.403   .     A
C1454  C1456   1.421   .     A
C1455  N1457   1.378   .     A
C1455  C1519   1.475   .     S
C1456  C1530   1.483   .     S
C1456  N1458   1.381   .     A
N1457  C1459   1.365   .     A
N1458  C1460   1.364   .     A
C1459  H1461   1.081   .     S
C1459  C1463   1.418   .     A
C1460  C1464   1.422   .     A
C1460  H1462   1.081   .     S
C1463  C1541   1.483   .     S
C1463  C1465   1.429   .     A
C1464  C1466   1.431   .     A
C1464  C1552   1.492   .     S
C1466  C613    1.530   1_556 S
C1467  C1468   1.407   .     A
C1467  C1472   1.408   .     A
C1468  H1473   1.082   .     S
C1469  C1470   1.397   .     A
C1469  H1474   1.082   .     S
C1469  C1042   1.398   1_565 S
C1470  H1475   1.083   .     S
C1470  C1045   1.397   1_565 S
C1471  H1476   1.082   .     S
C1471  C1472   1.398   .     A
C1472  H1477   1.082   .     S
C1478  C1483   1.406   .     A
C1478  C1053   1.404   1_565 S
C1479  C1480   1.399   .     A
C1479  H1484   1.082   .     S
C1480  C1481   1.398   .     A
C1480  H1485   1.082   .     S
C1481  H1486   1.082   .     S
C1482  H1487   1.082   .     S
C1482  C1483   1.398   .     A
C1482  C1055   1.398   1_565 S
C1483  H1488   1.082   .     S
O1489  H1490   0.989   .     S
O1491  H1492   0.983   .     S
C1493  C1494   1.403   .     A
C1493  C1498   1.404   .     A
C1494  C1495   1.396   .     A
C1494  H1499   1.081   .     S
C1495  H1500   1.081   .     S
C1495  C1496   1.397   .     A
C1496  C1497   1.398   .     A
C1496  H1501   1.082   .     S
C1497  C1498   1.399   .     A
C1497  H1502   1.082   .     S
C1498  H1503   1.083   .     S
C1504  C1505   1.415   .     A
C1504  C1509   1.408   .     A
C1505  C1506   1.397   .     A
C1505  H1510   1.083   .     S
C1506  H1511   1.083   .     S
C1506  C1507   1.393   .     A
C1507  C1508   1.395   .     A
C1507  H1512   1.082   .     S
C1508  H1513   1.080   .     S
C1508  C1509   1.396   .     A
C1509  H1514   1.081   .     S
O1515  H1516   0.986   .     S
O1517  H1518   0.987   .     S
C1519  C1524   1.401   .     A
C1519  C1520   1.401   .     A
C1520  H1525   1.078   .     S
C1520  C1521   1.397   .     A
C1521  C1522   1.395   .     A
C1521  H1526   1.083   .     S
C1522  C1665   1.398   .     S
C1522  H1669   1.082   .     S
C1523  H1528   1.076   .     S
C1524  H1529   1.082   .     S
C1524  C1665   1.393   .     S
C1530  C1531   1.404   .     A
C1530  C1535   1.402   .     A
C1531  H1536   1.068   .     S
C1531  C1532   1.395   .     A
C1532  C1533   1.389   .     A
C1532  H1537   1.077   .     S
C1533  C1534   1.393   .     A
C1534  C1535   1.399   .     A
C1535  H1540   1.083   .     S
H1538  C1675   1.080   .     S
H1539  C1676   1.078   .     S
C1541  C1546   1.407   .     A
C1542  H1547   1.083   .     S
C1542  C1543   1.398   .     A
C1542  C689    1.406   1_556 S
C1544  H1549   1.083   .     S
C1544  C1685   1.398   .     S
C1544  C835    1.396   1_556 S
C1545  C1546   1.398   .     A
C1546  H1551   1.083   .     S
H1548  C1685   1.082   .     S
H1550  C1687   1.082   .     S
C1552  C1557   1.409   .     A
C1552  C701    1.408   1_556 S
C1553  C1554   1.398   .     A
C1553  H1558   1.082   .     S
C1554  H1559   1.081   .     S
C1554  C1555   1.396   .     A
C1555  H1560   1.082   .     S
C1556  H1561   1.082   .     S
C1556  C1557   1.398   .     A
C1556  C703    1.396   1_556 S
C1557  H1562   1.082   .     S
O1563  C1567   1.309   .     A
O1563  Cu1575  1.963   .     S
O1564  C1568   1.304   .     A
O1564  Cu1576  1.963   .     S
O1565  Cu1576  1.959   .     S
O1565  C1567   1.301   .     A
O1566  C1568   1.304   .     A
O1566  Cu1575  1.959   .     S
C1567  C1585   1.486   .     S
C1568  C1586   1.487   .     S
O1569  C1573   1.292   .     A
O1569  Cu1575  1.977   .     S
O1570  Cu1576  1.977   .     S
O1570  C1574   1.293   .     A
O1571  Cu1576  1.965   .     S
O1571  C1573   1.291   .     A
O1572  C1574   1.290   .     A
O1572  Cu1575  1.965   .     S
C1573  C1577   1.434   .     S
C1574  C1578   1.435   .     S
Cu1575 Cu1576  2.693   .     S
Cu1575 N1600   2.023   .     S
Cu1576 N1599   2.023   .     S
C1578  C1293   1.326   1_655 S
C1578  H1296   1.086   1_655 S
H1579  C1293   1.084   1_655 S
C1581  C1593   1.425   .     A
C1581  C1609   1.492   .     S
C1581  C1583   1.403   .     A
C1582  C1584   1.408   .     A
C1582  C1620   1.486   .     S
C1582  C1594   1.421   .     A
C1583  O1631   1.379   .     S
C1583  C1585   1.409   .     A
C1584  C1586   1.424   .     A
C1584  O1633   1.378   .     S
C1585  C1587   1.414   .     A
C1586  C1588   1.410   .     A
C1587  C1635   1.477   .     S
C1587  C1589   1.396   .     A
C1588  C1646   1.498   .     S
C1588  C1590   1.393   .     A
C1589  H1591   1.082   .     S
C1589  C1593   1.404   .     A
C1590  C1594   1.400   .     A
C1590  H1592   1.076   .     S
C1594  C1167   1.496   1_565 S
C1595  C1607   1.413   .     A
C1595  O1657   1.380   .     S
C1595  C1597   1.410   .     A
C1596  O1659   1.380   .     S
C1596  C1608   1.403   .     A
C1596  C1598   1.421   .     A
C1597  N1599   1.378   .     A
C1597  C1661   1.475   .     S
C1598  C1672   1.483   .     S
C1598  N1600   1.381   .     A
N1599  C1601   1.365   .     A
N1600  C1602   1.364   .     A
C1601  H1603   1.081   .     S
C1601  C1605   1.418   .     A
C1602  C1606   1.422   .     A
C1602  H1604   1.081   .     S
C1605  C1683   1.483   .     S
C1605  C1607   1.429   .     A
C1606  C1608   1.431   .     A
C1606  C1694   1.492   .     S
C1608  C755    1.530   1_556 S
C1609  C1610   1.407   .     A
C1609  C1614   1.408   .     A
C1610  H1615   1.082   .     S
C1611  C1612   1.397   .     A
C1611  H1616   1.082   .     S
C1611  C1184   1.398   1_565 S
C1612  H1617   1.083   .     S
C1612  C1187   1.397   1_565 S
C1613  H1618   1.082   .     S
C1613  C1614   1.398   .     A
C1614  H1619   1.082   .     S
C1620  C1625   1.406   .     A
C1620  C1195   1.404   1_565 S
C1621  C1622   1.399   .     A
C1621  H1626   1.082   .     S
C1622  C1623   1.398   .     A
C1622  H1627   1.082   .     S
C1623  H1628   1.082   .     S
C1624  H1629   1.082   .     S
C1624  C1625   1.398   .     A
C1624  C1197   1.398   1_565 S
C1625  H1630   1.082   .     S
O1631  H1632   0.989   .     S
O1633  H1634   0.983   .     S
C1635  C1636   1.403   .     A
C1635  C1640   1.404   .     A
C1636  C1637   1.396   .     A
C1636  H1641   1.081   .     S
C1637  H1642   1.081   .     S
C1637  C1638   1.397   .     A
C1638  C1639   1.398   .     A
C1638  H1643   1.082   .     S
C1639  C1640   1.399   .     A
C1639  H1644   1.082   .     S
C1640  H1645   1.083   .     S
C1646  C1647   1.415   .     A
C1646  C1651   1.408   .     A
C1647  C1648   1.397   .     A
C1647  H1652   1.083   .     S
C1648  H1653   1.083   .     S
C1648  C1649   1.393   .     A
C1649  C1650   1.395   .     A
C1649  H1654   1.082   .     S
C1650  H1655   1.080   .     S
C1650  C1651   1.396   .     A
C1651  H1656   1.081   .     S
O1657  H1658   0.986   .     S
O1659  H1660   0.987   .     S
C1661  C1666   1.401   .     A
C1661  C1662   1.401   .     A
C1662  H1667   1.078   .     S
C1662  C1663   1.397   .     A
C1663  C1664   1.395   .     A
C1663  H1668   1.083   .     S
C1664  C1381   1.398   1_655 S
C1664  H1385   1.082   1_655 S
C1665  H1670   1.076   .     S
C1666  H1671   1.082   .     S
C1666  C1381   1.393   1_655 S
C1672  C1673   1.404   .     A
C1672  C1677   1.402   .     A
C1673  H1678   1.068   .     S
C1673  C1674   1.395   .     A
C1674  C1675   1.389   .     A
C1674  H1679   1.077   .     S
C1675  C1676   1.393   .     A
C1676  C1677   1.399   .     A
C1677  H1682   1.083   .     S
H1680  C1391   1.080   1_655 S
H1681  C1392   1.078   1_655 S
C1683  C1688   1.407   .     A
C1684  H1689   1.083   .     S
C1684  C1685   1.398   .     A
C1684  C831    1.406   1_556 S
C1686  H1691   1.083   .     S
C1686  C1401   1.398   1_655 S
C1686  C551    1.396   1_656 S
C1687  C1688   1.398   .     A
C1688  H1693   1.083   .     S
H1690  C1401   1.082   1_655 S
H1692  C1403   1.082   1_655 S
C1694  C1699   1.409   .     A
C1694  C843    1.408   1_556 S
C1695  C1696   1.398   .     A
C1695  H1700   1.082   .     S
C1696  H1701   1.081   .     S
C1696  C1697   1.396   .     A
C1697  H1702   1.082   .     S
C1698  H1703   1.082   .     S
C1698  C1699   1.398   .     A
C1698  C845    1.396   1_556 S
C1699  H1704   1.082   .     S
