data_str_m1_o5_o17_pcu_sym.64
_audit_creation_date              2020-01-03
_audit_creation_method            'Materials Studio'
_symmetry_space_group_name_H-M    'P1'
_symmetry_Int_Tables_number       1
_symmetry_cell_setting            triclinic
loop_
_symmetry_equiv_pos_as_xyz
  x,y,z
_cell_length_a                    31.7632
_cell_length_b                    31.7639
_cell_length_c                    34.5662
_cell_angle_alpha                 89.9967
_cell_angle_beta                  90.0049
_cell_angle_gamma                 89.9979
loop_
_atom_site_label
_atom_site_type_symbol
_atom_site_fract_x
_atom_site_fract_y
_atom_site_fract_z
_atom_site_U_iso_or_equiv
_atom_site_adp_type
_atom_site_occupancy
C1     C     0.25000  -0.00000   0.35607   0.00000  Uiso   1.00
C2     C     0.33001   0.41999   0.75000   0.00000  Uiso   1.00
C3     C     0.49875   0.32730   0.02010   0.00000  Uiso   1.00
C4     C     0.32731   0.49926   0.97990   0.00000  Uiso   1.00
C5     C     0.17269   0.00074   0.02010   0.00000  Uiso   1.00
C6     C     0.49875   0.32707   0.97949   0.00000  Uiso   1.00
C7     C     0.00125   0.17293   0.02051   0.00000  Uiso   1.00
C8     C     0.41999   0.16999   0.25000   0.00000  Uiso   1.00
C9     C     0.08001   0.33001   0.75000   0.00000  Uiso   1.00
C10    C     0.33001   0.41999   0.25000   0.00000  Uiso   1.00
C11    C     0.16999   0.08001   0.75000   0.00000  Uiso   1.00
C12    C     0.08001   0.33001   0.25000   0.00000  Uiso   1.00
C13    C     0.41999   0.16999   0.75000   0.00000  Uiso   1.00
C14    C     0.16999   0.41999   0.75000   0.00000  Uiso   1.00
C15    C     0.33001   0.08001   0.25000   0.00000  Uiso   1.00
C16    C     0.41999   0.33001   0.75000   0.00000  Uiso   1.00
C17    C     0.25000   0.00000   0.64394   0.00000  Uiso   1.00
C18    C     0.08001   0.16999   0.25000   0.00000  Uiso   1.00
C19    C     0.33001   0.08001   0.75000   0.00000  Uiso   1.00
C20    C     0.16999   0.41999   0.25000   0.00000  Uiso   1.00
C21    C     0.08001   0.16999   0.75000   0.00000  Uiso   1.00
C22    C     0.41999   0.33001   0.25000   0.00000  Uiso   1.00
C23    C     0.13833   0.38833   0.25000   0.00000  Uiso   1.00
C24    C     0.36167   0.11167   0.75000   0.00000  Uiso   1.00
C25    C     0.11167   0.13834   0.25000   0.00000  Uiso   1.00
C26    C     0.38833   0.36166   0.75000   0.00000  Uiso   1.00
C27    C     0.36167   0.11167   0.25000   0.00000  Uiso   1.00
C28    C     0.00000   0.25000   0.35606   0.00000  Uiso   1.00
C29    C     0.13833   0.38833   0.75000   0.00000  Uiso   1.00
C30    C     0.38834   0.36167   0.25000   0.00000  Uiso   1.00
C31    C     0.11166   0.13833   0.75000   0.00000  Uiso   1.00
C32    C     0.13833   0.11167   0.75000   0.00000  Uiso   1.00
C33    C     0.36166   0.38833   0.25000   0.00000  Uiso   1.00
C34    C     0.11167   0.36166   0.75000   0.00000  Uiso   1.00
C35    C     0.38833   0.13833   0.25000   0.00000  Uiso   1.00
C36    C     0.36167   0.38834   0.75000   0.00000  Uiso   1.00
C37    C     0.13833   0.11166   0.25000   0.00000  Uiso   1.00
C38    C     0.38833   0.13833   0.75000   0.00000  Uiso   1.00
C39    C     0.49999   0.25000   0.64393   0.00000  Uiso   1.00
C40    C     0.11167   0.36166   0.25000   0.00000  Uiso   1.00
C41    C     0.46191   0.25155   0.41873   0.00000  Uiso   1.00
C42    C     0.03801   0.24845   0.58123   0.00000  Uiso   1.00
C43    C     0.24870   0.03808   0.41873   0.00000  Uiso   1.00
C44    C     0.25124   0.46192   0.58126   0.00000  Uiso   1.00
C45    C     0.03806   0.24844   0.41878   0.00000  Uiso   1.00
C46    C     0.46186   0.25155   0.58127   0.00000  Uiso   1.00
C47    C     0.25124   0.46192   0.41874   0.00000  Uiso   1.00
C48    C     0.24870   0.03809   0.58126   0.00000  Uiso   1.00
C49    C     0.28815   0.49964   0.91874   0.00000  Uiso   1.00
C50    C     0.00000   0.24999   0.85606   0.00000  Uiso   1.00
C51    C     0.21185   0.00036   0.08126   0.00000  Uiso   1.00
C52    C     0.49941   0.28805   0.91874   0.00000  Uiso   1.00
C53    C     0.00059   0.21195   0.08126   0.00000  Uiso   1.00
C54    C     0.21195   0.00035   0.91874   0.00000  Uiso   1.00
C55    C     0.28805   0.49965   0.08126   0.00000  Uiso   1.00
C56    C     0.00060   0.21185   0.91874   0.00000  Uiso   1.00
C57    C     0.49940   0.28815   0.08126   0.00000  Uiso   1.00
C58    C     0.49999   0.25000   0.39850   0.00000  Uiso   1.00
C59    C     0.49996   0.25000   0.60149   0.00000  Uiso   1.00
C60    C     0.24998  -0.00000   0.39851   0.00000  Uiso   1.00
C61    C    -0.00000   0.25000   0.14394   0.00000  Uiso   1.00
C62    C     0.24998   0.00000   0.60151   0.00000  Uiso   1.00
C63    C     0.25003  -0.00000   0.89850   0.00000  Uiso   1.00
C64    C     0.24997   0.00000   0.10150   0.00000  Uiso   1.00
C65    C     0.00000   0.24997   0.89850   0.00000  Uiso   1.00
C66    C    -0.00000   0.25003   0.10150   0.00000  Uiso   1.00
C67    C     0.03860   0.24839   0.45931   0.00000  Uiso   1.00
C68    C     0.46119   0.25161   0.54072   0.00000  Uiso   1.00
C69    C     0.25127   0.46127   0.45928   0.00000  Uiso   1.00
C70    C     0.24864   0.03862   0.54074   0.00000  Uiso   1.00
C71    C     0.46135   0.25160   0.45924   0.00000  Uiso   1.00
C72    C     0.25001  -0.00000   0.85606   0.00000  Uiso   1.00
C73    C     0.03854   0.24839   0.54071   0.00000  Uiso   1.00
C74    C     0.24864   0.03873   0.45927   0.00000  Uiso   1.00
C75    C     0.25127   0.46138   0.54075   0.00000  Uiso   1.00
C76    C     0.21141   0.00037   0.95924   0.00000  Uiso   1.00
C77    C     0.28859   0.49964   0.04076   0.00000  Uiso   1.00
C78    C     0.00062   0.21120   0.95929   0.00000  Uiso   1.00
C79    C     0.49938   0.28880   0.04071   0.00000  Uiso   1.00
C80    C     0.28880   0.49963   0.95929   0.00000  Uiso   1.00
C81    C     0.21120   0.00037   0.04071   0.00000  Uiso   1.00
C82    C     0.49939   0.28859   0.95924   0.00000  Uiso   1.00
C83    C     0.24999   0.00000   0.14394   0.00000  Uiso   1.00
C84    C     0.00061   0.21141   0.04076   0.00000  Uiso   1.00
C85    C     0.49995   0.24999   0.47967   0.00000  Uiso   1.00
C86    C     0.49989   0.25000   0.52034   0.00000  Uiso   1.00
C87    C     0.24995  -0.00000   0.47964   0.00000  Uiso   1.00
C88    C     0.24995  -0.00000   0.52034   0.00000  Uiso   1.00
C89    C     0.25006  -0.00000   0.97965   0.00000  Uiso   1.00
C90    C     0.24994   0.00000   0.02035   0.00000  Uiso   1.00
C91    C     0.00000   0.24994   0.97965   0.00000  Uiso   1.00
C92    C    -0.00000   0.25006   0.02035   0.00000  Uiso   1.00
C93    C     0.07706   0.24674   0.47962   0.00000  Uiso   1.00
C94    C     0.16999   0.08001   0.25000   0.00000  Uiso   1.00
C95    C     0.42270   0.25324   0.52012   0.00000  Uiso   1.00
C96    C     0.25260   0.42276   0.47987   0.00000  Uiso   1.00
C97    C     0.24729   0.07706   0.52046   0.00000  Uiso   1.00
C98    C     0.42290   0.25323   0.47950   0.00000  Uiso   1.00
C99    C     0.07703   0.24674   0.52043   0.00000  Uiso   1.00
C100   C     0.24728   0.07724   0.47985   0.00000  Uiso   1.00
C101   C     0.25259   0.42294   0.52047   0.00000  Uiso   1.00
C102   C     0.17292   0.00074   0.97949   0.00000  Uiso   1.00
C103   C     0.32708   0.49926   0.02051   0.00000  Uiso   1.00
C104   C     0.00125   0.17270   0.97990   0.00000  Uiso   1.00
H105   H     0.43265   0.25278   0.40268   0.00000  Uiso   1.00
H106   H     0.18275   0.00064   0.09750   0.00000  Uiso   1.00
H107   H     0.49893   0.31733   0.90270   0.00000  Uiso   1.00
H108   H     0.00107   0.18266   0.09730   0.00000  Uiso   1.00
H109   H     0.18266   0.00063   0.90269   0.00000  Uiso   1.00
H110   H     0.31734   0.49937   0.09731   0.00000  Uiso   1.00
H111   H     0.00107   0.18276   0.90249   0.00000  Uiso   1.00
H112   H     0.49893   0.31724   0.09751   0.00000  Uiso   1.00
H113   H     0.13440   0.27105   0.46622   0.00000  Uiso   1.00
H114   H     0.13208   0.21755   0.46621   0.00000  Uiso   1.00
H115   H     0.38205   0.28187   0.55706   0.00000  Uiso   1.00
H116   H     0.06726   0.24722   0.59728   0.00000  Uiso   1.00
H117   H     0.37975   0.22819   0.55707   0.00000  Uiso   1.00
H118   H     0.22721   0.38002   0.44290   0.00000  Uiso   1.00
H119   H     0.28091   0.38188   0.44292   0.00000  Uiso   1.00
H120   H     0.21861   0.13234   0.53317   0.00000  Uiso   1.00
H121   H     0.27195   0.13424   0.53318   0.00000  Uiso   1.00
H122   H     0.36555   0.22898   0.46676   0.00000  Uiso   1.00
H123   H     0.36783   0.28230   0.46675   0.00000  Uiso   1.00
H124   H     0.13437   0.27105   0.53389   0.00000  Uiso   1.00
H125   H     0.13205   0.21755   0.53389   0.00000  Uiso   1.00
H126   H     0.27266   0.12000   0.44290   0.00000  Uiso   1.00
H127   H     0.24770   0.06716   0.40248   0.00000  Uiso   1.00
H128   H     0.21896   0.11809   0.44289   0.00000  Uiso   1.00
H129   H     0.28123   0.36764   0.53320   0.00000  Uiso   1.00
H130   H     0.22788   0.36578   0.53319   0.00000  Uiso   1.00
H131   H     0.11641   0.47461   0.96673   0.00000  Uiso   1.00
H132   H     0.11693   0.02798   0.96672   0.00000  Uiso   1.00
H133   H     0.38307   0.47203   0.03328   0.00000  Uiso   1.00
H134   H     0.38359   0.02541   0.03327   0.00000  Uiso   1.00
H135   H     0.47509   0.13041   0.94297   0.00000  Uiso   1.00
H136   H     0.02881   0.13130   0.94297   0.00000  Uiso   1.00
H137   H     0.47119   0.36870   0.05703   0.00000  Uiso   1.00
H138   H     0.25225   0.43264   0.59730   0.00000  Uiso   1.00
H139   H     0.02491   0.36959   0.05703   0.00000  Uiso   1.00
H140   H     0.36942   0.02571   0.94297   0.00000  Uiso   1.00
H141   H     0.36890   0.47199   0.94298   0.00000  Uiso   1.00
H142   H     0.13111   0.02802   0.05702   0.00000  Uiso   1.00
H143   H     0.13058   0.47430   0.05703   0.00000  Uiso   1.00
H144   H     0.02451   0.38376   0.96673   0.00000  Uiso   1.00
H145   H     0.47113   0.38287   0.96672   0.00000  Uiso   1.00
H146   H     0.02887   0.11713   0.03328   0.00000  Uiso   1.00
H147   H     0.47549   0.11624   0.03327   0.00000  Uiso   1.00
H148   H     0.06732   0.24722   0.40273   0.00000  Uiso   1.00
H149   H     0.43280   0.25278   0.59752   0.00000  Uiso   1.00
H150   H     0.25225   0.43284   0.40249   0.00000  Uiso   1.00
H151   H     0.24770   0.06736   0.59730   0.00000  Uiso   1.00
H152   H     0.31725   0.49936   0.90250   0.00000  Uiso   1.00
N153   N     0.11604   0.24505   0.45860   0.00000  Uiso   1.00
N154   N     0.36619   0.49888   0.04136   0.00000  Uiso   1.00
N155   N     0.00191   0.13282   0.96035   0.00000  Uiso   1.00
N156   N     0.49809   0.36718   0.03965   0.00000  Uiso   1.00
N157   N     0.36719   0.49887   0.96035   0.00000  Uiso   1.00
N158   N     0.13281   0.00114   0.03965   0.00000  Uiso   1.00
N159   N     0.49811   0.36618   0.95864   0.00000  Uiso   1.00
N160   N     0.00189   0.13382   0.04136   0.00000  Uiso   1.00
N161   N     0.38286   0.25495   0.53969   0.00000  Uiso   1.00
N162   N     0.25399   0.38291   0.46029   0.00000  Uiso   1.00
N163   N     0.24589   0.11616   0.54128   0.00000  Uiso   1.00
N164   N     0.38382   0.25490   0.45867   0.00000  Uiso   1.00
N165   N     0.11599   0.24505   0.54149   0.00000  Uiso   1.00
N166   N     0.24587   0.11708   0.46027   0.00000  Uiso   1.00
N167   N     0.25396   0.38384   0.54129   0.00000  Uiso   1.00
N168   N     0.13381   0.00113   0.95864   0.00000  Uiso   1.00
O169   O     0.25000  -0.00000   0.25000   0.00000  Uiso   1.00
O170   O     0.25000   0.46538   0.66251   0.00000  Uiso   1.00
O171   O     0.46538   0.25000   0.33749   0.00000  Uiso   1.00
O172   O     0.03461   0.25000   0.66251   0.00000  Uiso   1.00
O173   O     0.00000   0.21538   0.83749   0.00000  Uiso   1.00
O174   O     0.00000   0.28461   0.16251   0.00000  Uiso   1.00
O175   O     0.28461  -0.00000   0.83749   0.00000  Uiso   1.00
O176   O     0.21538  -0.00000   0.16251   0.00000  Uiso   1.00
O177   O     0.00000   0.28461   0.83749   0.00000  Uiso   1.00
O178   O     0.00000   0.21538   0.16251   0.00000  Uiso   1.00
O179   O     0.21538  -0.00000   0.83749   0.00000  Uiso   1.00
O180   O     0.25000  -0.00000   0.75000   0.00000  Uiso   1.00
O181   O     0.28461  -0.00000   0.16251   0.00000  Uiso   1.00
O182   O     0.20126   0.08332   0.27298   0.00000  Uiso   1.00
O183   O     0.29873   0.41668   0.72702   0.00000  Uiso   1.00
O184   O     0.41668   0.20126   0.27298   0.00000  Uiso   1.00
O185   O     0.08332   0.29873   0.72702   0.00000  Uiso   1.00
O186   O     0.29873   0.41668   0.27298   0.00000  Uiso   1.00
O187   O     0.20126   0.08332   0.72702   0.00000  Uiso   1.00
O188   O     0.08332   0.29873   0.27298   0.00000  Uiso   1.00
O189   O     0.41668   0.20126   0.72702   0.00000  Uiso   1.00
O190   O     0.20126   0.41668   0.72702   0.00000  Uiso   1.00
O191   O     0.00000   0.25000   0.25000   0.00000  Uiso   1.00
O192   O     0.29873   0.08332   0.27298   0.00000  Uiso   1.00
O193   O     0.41668   0.29873   0.72702   0.00000  Uiso   1.00
O194   O     0.08332   0.20126   0.27298   0.00000  Uiso   1.00
O195   O     0.29873   0.08332   0.72702   0.00000  Uiso   1.00
O196   O     0.20126   0.41668   0.27298   0.00000  Uiso   1.00
O197   O     0.08332   0.20126   0.72702   0.00000  Uiso   1.00
O198   O     0.41668   0.29873   0.27298   0.00000  Uiso   1.00
O199   O     0.45126   0.33332   0.77298   0.00000  Uiso   1.00
O200   O     0.04873   0.16668   0.22702   0.00000  Uiso   1.00
O201   O     0.16668   0.45126   0.77298   0.00000  Uiso   1.00
O202   O     0.00000   0.25000   0.75000   0.00000  Uiso   1.00
O203   O     0.33332   0.04873   0.22702   0.00000  Uiso   1.00
O204   O     0.04873   0.16668   0.77298   0.00000  Uiso   1.00
O205   O     0.45126   0.33332   0.22702   0.00000  Uiso   1.00
O206   O     0.33332   0.04873   0.77298   0.00000  Uiso   1.00
O207   O     0.16668   0.45126   0.22702   0.00000  Uiso   1.00
O208   O     0.45126   0.16668   0.22702   0.00000  Uiso   1.00
O209   O     0.04873   0.33332   0.77298   0.00000  Uiso   1.00
O210   O     0.16668   0.04873   0.22702   0.00000  Uiso   1.00
O211   O     0.33332   0.45126   0.77298   0.00000  Uiso   1.00
O212   O     0.04873   0.33332   0.22702   0.00000  Uiso   1.00
O213   O     0.25000   0.46538   0.33749   0.00000  Uiso   1.00
O214   O     0.45126   0.16668   0.77298   0.00000  Uiso   1.00
O215   O     0.33332   0.45126   0.22702   0.00000  Uiso   1.00
O216   O     0.16668   0.04873   0.77298   0.00000  Uiso   1.00
O217   O     0.25000   0.03461   0.66251   0.00000  Uiso   1.00
O218   O     0.03461   0.25000   0.33749   0.00000  Uiso   1.00
O219   O     0.46538   0.25000   0.66251   0.00000  Uiso   1.00
O220   O     0.25000   0.03461   0.33749   0.00000  Uiso   1.00
Zn221  Zn    0.20052  -0.00000   0.21730   0.00000  Uiso   1.00
Zn222  Zn    0.04947   0.25000   0.28270   0.00000  Uiso   1.00
Zn223  Zn    0.25000   0.45052   0.71730   0.00000  Uiso   1.00
Zn224  Zn    0.25000   0.04947   0.28270   0.00000  Uiso   1.00
Zn225  Zn    0.04947   0.25000   0.71730   0.00000  Uiso   1.00
Zn226  Zn    0.45052   0.25000   0.28270   0.00000  Uiso   1.00
Zn227  Zn    0.25000   0.04947   0.71730   0.00000  Uiso   1.00
Zn228  Zn    0.25000   0.45052   0.28270   0.00000  Uiso   1.00
Zn229  Zn    0.29947  -0.00000   0.78270   0.00000  Uiso   1.00
Zn230  Zn   -0.00000   0.20052   0.21730   0.00000  Uiso   1.00
Zn231  Zn    0.00000   0.29947   0.78270   0.00000  Uiso   1.00
Zn232  Zn    0.29947  -0.00000   0.21730   0.00000  Uiso   1.00
Zn233  Zn    0.20052  -0.00000   0.78270   0.00000  Uiso   1.00
Zn234  Zn   -0.00000   0.29947   0.21730   0.00000  Uiso   1.00
Zn235  Zn    0.00000   0.20052   0.78270   0.00000  Uiso   1.00
Zn236  Zn    0.45052   0.25000   0.71730   0.00000  Uiso   1.00
C237   C     0.75000  -0.00000   0.35607   0.00000  Uiso   1.00
C238   C     0.83001   0.41999   0.75000   0.00000  Uiso   1.00
C239   C     0.99875   0.32730   0.02010   0.00000  Uiso   1.00
C240   C     0.82731   0.49926   0.97990   0.00000  Uiso   1.00
C241   C     0.67269   0.00074   0.02010   0.00000  Uiso   1.00
C242   C     0.99875   0.32707   0.97949   0.00000  Uiso   1.00
C243   C     0.50125   0.17293   0.02051   0.00000  Uiso   1.00
C244   C     0.91999   0.16999   0.25000   0.00000  Uiso   1.00
C245   C     0.58001   0.33001   0.75000   0.00000  Uiso   1.00
C246   C     0.83001   0.41999   0.25000   0.00000  Uiso   1.00
C247   C     0.66999   0.08001   0.75000   0.00000  Uiso   1.00
C248   C     0.58001   0.33001   0.25000   0.00000  Uiso   1.00
C249   C     0.91999   0.16999   0.75000   0.00000  Uiso   1.00
C250   C     0.66999   0.41999   0.75000   0.00000  Uiso   1.00
C251   C     0.83001   0.08001   0.25000   0.00000  Uiso   1.00
C252   C     0.91999   0.33001   0.75000   0.00000  Uiso   1.00
C253   C     0.75000   0.00000   0.64394   0.00000  Uiso   1.00
C254   C     0.58001   0.16999   0.25000   0.00000  Uiso   1.00
C255   C     0.83001   0.08001   0.75000   0.00000  Uiso   1.00
C256   C     0.66999   0.41999   0.25000   0.00000  Uiso   1.00
C257   C     0.58001   0.16999   0.75000   0.00000  Uiso   1.00
C258   C     0.91999   0.33001   0.25000   0.00000  Uiso   1.00
C259   C     0.63833   0.38833   0.25000   0.00000  Uiso   1.00
C260   C     0.86167   0.11167   0.75000   0.00000  Uiso   1.00
C261   C     0.61167   0.13834   0.25000   0.00000  Uiso   1.00
C262   C     0.88833   0.36166   0.75000   0.00000  Uiso   1.00
C263   C     0.86167   0.11167   0.25000   0.00000  Uiso   1.00
C264   C     0.50000   0.25000   0.35606   0.00000  Uiso   1.00
C265   C     0.63833   0.38833   0.75000   0.00000  Uiso   1.00
C266   C     0.88834   0.36167   0.25000   0.00000  Uiso   1.00
C267   C     0.61166   0.13833   0.75000   0.00000  Uiso   1.00
C268   C     0.63833   0.11167   0.75000   0.00000  Uiso   1.00
C269   C     0.86166   0.38833   0.25000   0.00000  Uiso   1.00
C270   C     0.61167   0.36166   0.75000   0.00000  Uiso   1.00
C271   C     0.88833   0.13833   0.25000   0.00000  Uiso   1.00
C272   C     0.86167   0.38834   0.75000   0.00000  Uiso   1.00
C273   C     0.63833   0.11166   0.25000   0.00000  Uiso   1.00
C274   C     0.88833   0.13833   0.75000   0.00000  Uiso   1.00
C275   C     0.99999   0.25000   0.64393   0.00000  Uiso   1.00
C276   C     0.61167   0.36166   0.25000   0.00000  Uiso   1.00
C277   C     0.96191   0.25155   0.41873   0.00000  Uiso   1.00
C278   C     0.53801   0.24845   0.58123   0.00000  Uiso   1.00
C279   C     0.74870   0.03808   0.41873   0.00000  Uiso   1.00
C280   C     0.75124   0.46192   0.58126   0.00000  Uiso   1.00
C281   C     0.53806   0.24844   0.41878   0.00000  Uiso   1.00
C282   C     0.96186   0.25155   0.58127   0.00000  Uiso   1.00
C283   C     0.75124   0.46192   0.41874   0.00000  Uiso   1.00
C284   C     0.74870   0.03809   0.58126   0.00000  Uiso   1.00
C285   C     0.78815   0.49964   0.91874   0.00000  Uiso   1.00
C286   C     0.50000   0.24999   0.85606   0.00000  Uiso   1.00
C287   C     0.71185   0.00036   0.08126   0.00000  Uiso   1.00
C288   C     0.99941   0.28805   0.91874   0.00000  Uiso   1.00
C289   C     0.50059   0.21195   0.08126   0.00000  Uiso   1.00
C290   C     0.71195   0.00035   0.91874   0.00000  Uiso   1.00
C291   C     0.78805   0.49965   0.08126   0.00000  Uiso   1.00
C292   C     0.50060   0.21185   0.91874   0.00000  Uiso   1.00
C293   C     0.99940   0.28815   0.08126   0.00000  Uiso   1.00
C294   C     0.99999   0.25000   0.39850   0.00000  Uiso   1.00
C295   C     0.99996   0.25000   0.60149   0.00000  Uiso   1.00
C296   C     0.74998  -0.00000   0.39851   0.00000  Uiso   1.00
C297   C     0.50000   0.25000   0.14394   0.00000  Uiso   1.00
C298   C     0.74998   0.00000   0.60151   0.00000  Uiso   1.00
C299   C     0.75003  -0.00000   0.89850   0.00000  Uiso   1.00
C300   C     0.74997   0.00000   0.10150   0.00000  Uiso   1.00
C301   C     0.50000   0.24997   0.89850   0.00000  Uiso   1.00
C302   C     0.50000   0.25003   0.10150   0.00000  Uiso   1.00
C303   C     0.53860   0.24839   0.45931   0.00000  Uiso   1.00
C304   C     0.96119   0.25161   0.54072   0.00000  Uiso   1.00
C305   C     0.75127   0.46127   0.45928   0.00000  Uiso   1.00
C306   C     0.74864   0.03862   0.54074   0.00000  Uiso   1.00
C307   C     0.96135   0.25160   0.45924   0.00000  Uiso   1.00
C308   C     0.75001  -0.00000   0.85606   0.00000  Uiso   1.00
C309   C     0.53854   0.24839   0.54071   0.00000  Uiso   1.00
C310   C     0.74864   0.03873   0.45927   0.00000  Uiso   1.00
C311   C     0.75127   0.46138   0.54075   0.00000  Uiso   1.00
C312   C     0.71141   0.00037   0.95924   0.00000  Uiso   1.00
C313   C     0.78859   0.49964   0.04076   0.00000  Uiso   1.00
C314   C     0.50062   0.21120   0.95929   0.00000  Uiso   1.00
C315   C     0.99938   0.28880   0.04071   0.00000  Uiso   1.00
C316   C     0.78880   0.49963   0.95929   0.00000  Uiso   1.00
C317   C     0.71120   0.00037   0.04071   0.00000  Uiso   1.00
C318   C     0.99939   0.28859   0.95924   0.00000  Uiso   1.00
C319   C     0.74999   0.00000   0.14394   0.00000  Uiso   1.00
C320   C     0.50061   0.21141   0.04076   0.00000  Uiso   1.00
C321   C     0.99995   0.24999   0.47967   0.00000  Uiso   1.00
C322   C     0.99989   0.25000   0.52034   0.00000  Uiso   1.00
C323   C     0.74995  -0.00000   0.47964   0.00000  Uiso   1.00
C324   C     0.74995  -0.00000   0.52034   0.00000  Uiso   1.00
C325   C     0.75006  -0.00000   0.97965   0.00000  Uiso   1.00
C326   C     0.74994   0.00000   0.02035   0.00000  Uiso   1.00
C327   C     0.50000   0.24994   0.97965   0.00000  Uiso   1.00
C328   C     0.50000   0.25006   0.02035   0.00000  Uiso   1.00
C329   C     0.57706   0.24674   0.47962   0.00000  Uiso   1.00
C330   C     0.66999   0.08001   0.25000   0.00000  Uiso   1.00
C331   C     0.92270   0.25324   0.52012   0.00000  Uiso   1.00
C332   C     0.75260   0.42276   0.47987   0.00000  Uiso   1.00
C333   C     0.74729   0.07706   0.52046   0.00000  Uiso   1.00
C334   C     0.92290   0.25323   0.47950   0.00000  Uiso   1.00
C335   C     0.57703   0.24674   0.52043   0.00000  Uiso   1.00
C336   C     0.74728   0.07724   0.47985   0.00000  Uiso   1.00
C337   C     0.75259   0.42294   0.52047   0.00000  Uiso   1.00
C338   C     0.67292   0.00074   0.97949   0.00000  Uiso   1.00
C339   C     0.82708   0.49926   0.02051   0.00000  Uiso   1.00
C340   C     0.50125   0.17270   0.97990   0.00000  Uiso   1.00
H341   H     0.93265   0.25278   0.40268   0.00000  Uiso   1.00
H342   H     0.68275   0.00064   0.09750   0.00000  Uiso   1.00
H343   H     0.99893   0.31733   0.90270   0.00000  Uiso   1.00
H344   H     0.50107   0.18266   0.09730   0.00000  Uiso   1.00
H345   H     0.68266   0.00063   0.90269   0.00000  Uiso   1.00
H346   H     0.81734   0.49937   0.09731   0.00000  Uiso   1.00
H347   H     0.50107   0.18276   0.90249   0.00000  Uiso   1.00
H348   H     0.99893   0.31724   0.09751   0.00000  Uiso   1.00
H349   H     0.63440   0.27105   0.46622   0.00000  Uiso   1.00
H350   H     0.63208   0.21755   0.46621   0.00000  Uiso   1.00
H351   H     0.88205   0.28187   0.55706   0.00000  Uiso   1.00
H352   H     0.56726   0.24722   0.59728   0.00000  Uiso   1.00
H353   H     0.87975   0.22819   0.55707   0.00000  Uiso   1.00
H354   H     0.72721   0.38002   0.44290   0.00000  Uiso   1.00
H355   H     0.78091   0.38188   0.44292   0.00000  Uiso   1.00
H356   H     0.71861   0.13234   0.53317   0.00000  Uiso   1.00
H357   H     0.77195   0.13424   0.53318   0.00000  Uiso   1.00
H358   H     0.86555   0.22898   0.46676   0.00000  Uiso   1.00
H359   H     0.86783   0.28230   0.46675   0.00000  Uiso   1.00
H360   H     0.63437   0.27105   0.53389   0.00000  Uiso   1.00
H361   H     0.63205   0.21755   0.53389   0.00000  Uiso   1.00
H362   H     0.77266   0.12000   0.44290   0.00000  Uiso   1.00
H363   H     0.74770   0.06716   0.40248   0.00000  Uiso   1.00
H364   H     0.71896   0.11809   0.44289   0.00000  Uiso   1.00
H365   H     0.78123   0.36764   0.53320   0.00000  Uiso   1.00
H366   H     0.72788   0.36578   0.53319   0.00000  Uiso   1.00
H367   H     0.61641   0.47461   0.96673   0.00000  Uiso   1.00
H368   H     0.61693   0.02798   0.96672   0.00000  Uiso   1.00
H369   H     0.88307   0.47203   0.03328   0.00000  Uiso   1.00
H370   H     0.88359   0.02541   0.03327   0.00000  Uiso   1.00
H371   H     0.97509   0.13041   0.94297   0.00000  Uiso   1.00
H372   H     0.52881   0.13130   0.94297   0.00000  Uiso   1.00
H373   H     0.97119   0.36870   0.05703   0.00000  Uiso   1.00
H374   H     0.75225   0.43264   0.59730   0.00000  Uiso   1.00
H375   H     0.52491   0.36959   0.05703   0.00000  Uiso   1.00
H376   H     0.86942   0.02571   0.94297   0.00000  Uiso   1.00
H377   H     0.86890   0.47199   0.94298   0.00000  Uiso   1.00
H378   H     0.63111   0.02802   0.05702   0.00000  Uiso   1.00
H379   H     0.63058   0.47430   0.05703   0.00000  Uiso   1.00
H380   H     0.52451   0.38376   0.96673   0.00000  Uiso   1.00
H381   H     0.97113   0.38287   0.96672   0.00000  Uiso   1.00
H382   H     0.52887   0.11713   0.03328   0.00000  Uiso   1.00
H383   H     0.97549   0.11624   0.03327   0.00000  Uiso   1.00
H384   H     0.56732   0.24722   0.40273   0.00000  Uiso   1.00
H385   H     0.93280   0.25278   0.59752   0.00000  Uiso   1.00
H386   H     0.75225   0.43284   0.40249   0.00000  Uiso   1.00
H387   H     0.74770   0.06736   0.59730   0.00000  Uiso   1.00
H388   H     0.81725   0.49936   0.90250   0.00000  Uiso   1.00
N389   N     0.61604   0.24505   0.45860   0.00000  Uiso   1.00
N390   N     0.86619   0.49888   0.04136   0.00000  Uiso   1.00
N391   N     0.50191   0.13282   0.96035   0.00000  Uiso   1.00
N392   N     0.99809   0.36718   0.03965   0.00000  Uiso   1.00
N393   N     0.86719   0.49887   0.96035   0.00000  Uiso   1.00
N394   N     0.63281   0.00114   0.03965   0.00000  Uiso   1.00
N395   N     0.99811   0.36618   0.95864   0.00000  Uiso   1.00
N396   N     0.50189   0.13382   0.04136   0.00000  Uiso   1.00
N397   N     0.88286   0.25495   0.53969   0.00000  Uiso   1.00
N398   N     0.75399   0.38291   0.46029   0.00000  Uiso   1.00
N399   N     0.74589   0.11616   0.54128   0.00000  Uiso   1.00
N400   N     0.88382   0.25490   0.45867   0.00000  Uiso   1.00
N401   N     0.61599   0.24505   0.54149   0.00000  Uiso   1.00
N402   N     0.74587   0.11708   0.46027   0.00000  Uiso   1.00
N403   N     0.75396   0.38384   0.54129   0.00000  Uiso   1.00
N404   N     0.63381   0.00113   0.95864   0.00000  Uiso   1.00
O405   O     0.75000  -0.00000   0.25000   0.00000  Uiso   1.00
O406   O     0.75000   0.46538   0.66251   0.00000  Uiso   1.00
O407   O     0.96538   0.25000   0.33749   0.00000  Uiso   1.00
O408   O     0.53461   0.25000   0.66251   0.00000  Uiso   1.00
O409   O     0.50000   0.21538   0.83749   0.00000  Uiso   1.00
O410   O     0.50000   0.28461   0.16251   0.00000  Uiso   1.00
O411   O     0.78461  -0.00000   0.83749   0.00000  Uiso   1.00
O412   O     0.71538  -0.00000   0.16251   0.00000  Uiso   1.00
O413   O     0.50000   0.28461   0.83749   0.00000  Uiso   1.00
O414   O     0.50000   0.21538   0.16251   0.00000  Uiso   1.00
O415   O     0.71538  -0.00000   0.83749   0.00000  Uiso   1.00
O416   O     0.75000  -0.00000   0.75000   0.00000  Uiso   1.00
O417   O     0.78461  -0.00000   0.16251   0.00000  Uiso   1.00
O418   O     0.70126   0.08332   0.27298   0.00000  Uiso   1.00
O419   O     0.79873   0.41668   0.72702   0.00000  Uiso   1.00
O420   O     0.91668   0.20126   0.27298   0.00000  Uiso   1.00
O421   O     0.58332   0.29873   0.72702   0.00000  Uiso   1.00
O422   O     0.79873   0.41668   0.27298   0.00000  Uiso   1.00
O423   O     0.70126   0.08332   0.72702   0.00000  Uiso   1.00
O424   O     0.58332   0.29873   0.27298   0.00000  Uiso   1.00
O425   O     0.91668   0.20126   0.72702   0.00000  Uiso   1.00
O426   O     0.70126   0.41668   0.72702   0.00000  Uiso   1.00
O427   O     0.50000   0.25000   0.25000   0.00000  Uiso   1.00
O428   O     0.79873   0.08332   0.27298   0.00000  Uiso   1.00
O429   O     0.91668   0.29873   0.72702   0.00000  Uiso   1.00
O430   O     0.58332   0.20126   0.27298   0.00000  Uiso   1.00
O431   O     0.79873   0.08332   0.72702   0.00000  Uiso   1.00
O432   O     0.70126   0.41668   0.27298   0.00000  Uiso   1.00
O433   O     0.58332   0.20126   0.72702   0.00000  Uiso   1.00
O434   O     0.91668   0.29873   0.27298   0.00000  Uiso   1.00
O435   O     0.95126   0.33332   0.77298   0.00000  Uiso   1.00
O436   O     0.54873   0.16668   0.22702   0.00000  Uiso   1.00
O437   O     0.66668   0.45126   0.77298   0.00000  Uiso   1.00
O438   O     0.50000   0.25000   0.75000   0.00000  Uiso   1.00
O439   O     0.83332   0.04873   0.22702   0.00000  Uiso   1.00
O440   O     0.54873   0.16668   0.77298   0.00000  Uiso   1.00
O441   O     0.95126   0.33332   0.22702   0.00000  Uiso   1.00
O442   O     0.83332   0.04873   0.77298   0.00000  Uiso   1.00
O443   O     0.66668   0.45126   0.22702   0.00000  Uiso   1.00
O444   O     0.95126   0.16668   0.22702   0.00000  Uiso   1.00
O445   O     0.54873   0.33332   0.77298   0.00000  Uiso   1.00
O446   O     0.66668   0.04873   0.22702   0.00000  Uiso   1.00
O447   O     0.83332   0.45126   0.77298   0.00000  Uiso   1.00
O448   O     0.54873   0.33332   0.22702   0.00000  Uiso   1.00
O449   O     0.75000   0.46538   0.33749   0.00000  Uiso   1.00
O450   O     0.95126   0.16668   0.77298   0.00000  Uiso   1.00
O451   O     0.83332   0.45126   0.22702   0.00000  Uiso   1.00
O452   O     0.66668   0.04873   0.77298   0.00000  Uiso   1.00
O453   O     0.75000   0.03461   0.66251   0.00000  Uiso   1.00
O454   O     0.53461   0.25000   0.33749   0.00000  Uiso   1.00
O455   O     0.96538   0.25000   0.66251   0.00000  Uiso   1.00
O456   O     0.75000   0.03461   0.33749   0.00000  Uiso   1.00
Zn457  Zn    0.70052  -0.00000   0.21730   0.00000  Uiso   1.00
Zn458  Zn    0.54947   0.25000   0.28270   0.00000  Uiso   1.00
Zn459  Zn    0.75000   0.45052   0.71730   0.00000  Uiso   1.00
Zn460  Zn    0.75000   0.04947   0.28270   0.00000  Uiso   1.00
Zn461  Zn    0.54947   0.25000   0.71730   0.00000  Uiso   1.00
Zn462  Zn    0.95052   0.25000   0.28270   0.00000  Uiso   1.00
Zn463  Zn    0.75000   0.04947   0.71730   0.00000  Uiso   1.00
Zn464  Zn    0.75000   0.45052   0.28270   0.00000  Uiso   1.00
Zn465  Zn    0.79947  -0.00000   0.78270   0.00000  Uiso   1.00
Zn466  Zn    0.50000   0.20052   0.21730   0.00000  Uiso   1.00
Zn467  Zn    0.50000   0.29947   0.78270   0.00000  Uiso   1.00
Zn468  Zn    0.79947  -0.00000   0.21730   0.00000  Uiso   1.00
Zn469  Zn    0.70052  -0.00000   0.78270   0.00000  Uiso   1.00
Zn470  Zn    0.50000   0.29947   0.21730   0.00000  Uiso   1.00
Zn471  Zn    0.50000   0.20052   0.78270   0.00000  Uiso   1.00
Zn472  Zn    0.95052   0.25000   0.71730   0.00000  Uiso   1.00
C473   C     0.25000   0.50000   0.35607   0.00000  Uiso   1.00
C474   C     0.33001   0.91999   0.75000   0.00000  Uiso   1.00
C475   C     0.49875   0.82730   0.02010   0.00000  Uiso   1.00
C476   C     0.32731   0.99926   0.97990   0.00000  Uiso   1.00
C477   C     0.17269   0.50074   0.02010   0.00000  Uiso   1.00
C478   C     0.49875   0.82707   0.97949   0.00000  Uiso   1.00
C479   C     0.00125   0.67293   0.02051   0.00000  Uiso   1.00
C480   C     0.41999   0.66999   0.25000   0.00000  Uiso   1.00
C481   C     0.08001   0.83001   0.75000   0.00000  Uiso   1.00
C482   C     0.33001   0.91999   0.25000   0.00000  Uiso   1.00
C483   C     0.16999   0.58001   0.75000   0.00000  Uiso   1.00
C484   C     0.08001   0.83001   0.25000   0.00000  Uiso   1.00
C485   C     0.41999   0.66999   0.75000   0.00000  Uiso   1.00
C486   C     0.16999   0.91999   0.75000   0.00000  Uiso   1.00
C487   C     0.33001   0.58001   0.25000   0.00000  Uiso   1.00
C488   C     0.41999   0.83001   0.75000   0.00000  Uiso   1.00
C489   C     0.25000   0.50000   0.64394   0.00000  Uiso   1.00
C490   C     0.08001   0.66999   0.25000   0.00000  Uiso   1.00
C491   C     0.33001   0.58001   0.75000   0.00000  Uiso   1.00
C492   C     0.16999   0.91999   0.25000   0.00000  Uiso   1.00
C493   C     0.08001   0.66999   0.75000   0.00000  Uiso   1.00
C494   C     0.41999   0.83001   0.25000   0.00000  Uiso   1.00
C495   C     0.13833   0.88833   0.25000   0.00000  Uiso   1.00
C496   C     0.36167   0.61167   0.75000   0.00000  Uiso   1.00
C497   C     0.11167   0.63834   0.25000   0.00000  Uiso   1.00
C498   C     0.38833   0.86166   0.75000   0.00000  Uiso   1.00
C499   C     0.36167   0.61167   0.25000   0.00000  Uiso   1.00
C500   C     0.00000   0.75000   0.35606   0.00000  Uiso   1.00
C501   C     0.13833   0.88833   0.75000   0.00000  Uiso   1.00
C502   C     0.38834   0.86167   0.25000   0.00000  Uiso   1.00
C503   C     0.11166   0.63833   0.75000   0.00000  Uiso   1.00
C504   C     0.13833   0.61167   0.75000   0.00000  Uiso   1.00
C505   C     0.36166   0.88833   0.25000   0.00000  Uiso   1.00
C506   C     0.11167   0.86166   0.75000   0.00000  Uiso   1.00
C507   C     0.38833   0.63833   0.25000   0.00000  Uiso   1.00
C508   C     0.36167   0.88834   0.75000   0.00000  Uiso   1.00
C509   C     0.13833   0.61166   0.25000   0.00000  Uiso   1.00
C510   C     0.38833   0.63833   0.75000   0.00000  Uiso   1.00
C511   C     0.49999   0.75000   0.64393   0.00000  Uiso   1.00
C512   C     0.11167   0.86166   0.25000   0.00000  Uiso   1.00
C513   C     0.46191   0.75155   0.41873   0.00000  Uiso   1.00
C514   C     0.03801   0.74845   0.58123   0.00000  Uiso   1.00
C515   C     0.24870   0.53808   0.41873   0.00000  Uiso   1.00
C516   C     0.25124   0.96192   0.58126   0.00000  Uiso   1.00
C517   C     0.03806   0.74844   0.41878   0.00000  Uiso   1.00
C518   C     0.46186   0.75155   0.58127   0.00000  Uiso   1.00
C519   C     0.25124   0.96192   0.41874   0.00000  Uiso   1.00
C520   C     0.24870   0.53809   0.58126   0.00000  Uiso   1.00
C521   C     0.28815   0.99964   0.91874   0.00000  Uiso   1.00
C522   C     0.00000   0.74999   0.85606   0.00000  Uiso   1.00
C523   C     0.21185   0.50036   0.08126   0.00000  Uiso   1.00
C524   C     0.49941   0.78805   0.91874   0.00000  Uiso   1.00
C525   C     0.00059   0.71195   0.08126   0.00000  Uiso   1.00
C526   C     0.21195   0.50035   0.91874   0.00000  Uiso   1.00
C527   C     0.28805   0.99965   0.08126   0.00000  Uiso   1.00
C528   C     0.00060   0.71185   0.91874   0.00000  Uiso   1.00
C529   C     0.49940   0.78815   0.08126   0.00000  Uiso   1.00
C530   C     0.49999   0.75000   0.39850   0.00000  Uiso   1.00
C531   C     0.49996   0.75000   0.60149   0.00000  Uiso   1.00
C532   C     0.24998   0.50000   0.39851   0.00000  Uiso   1.00
C533   C    -0.00000   0.75000   0.14394   0.00000  Uiso   1.00
C534   C     0.24998   0.50000   0.60151   0.00000  Uiso   1.00
C535   C     0.25003   0.50000   0.89850   0.00000  Uiso   1.00
C536   C     0.24997   0.50000   0.10150   0.00000  Uiso   1.00
C537   C     0.00000   0.74997   0.89850   0.00000  Uiso   1.00
C538   C    -0.00000   0.75003   0.10150   0.00000  Uiso   1.00
C539   C     0.03860   0.74839   0.45931   0.00000  Uiso   1.00
C540   C     0.46119   0.75161   0.54072   0.00000  Uiso   1.00
C541   C     0.25127   0.96127   0.45928   0.00000  Uiso   1.00
C542   C     0.24864   0.53862   0.54074   0.00000  Uiso   1.00
C543   C     0.46135   0.75160   0.45924   0.00000  Uiso   1.00
C544   C     0.25001   0.50000   0.85606   0.00000  Uiso   1.00
C545   C     0.03854   0.74839   0.54071   0.00000  Uiso   1.00
C546   C     0.24864   0.53873   0.45927   0.00000  Uiso   1.00
C547   C     0.25127   0.96138   0.54075   0.00000  Uiso   1.00
C548   C     0.21141   0.50037   0.95924   0.00000  Uiso   1.00
C549   C     0.28859   0.99964   0.04076   0.00000  Uiso   1.00
C550   C     0.00062   0.71120   0.95929   0.00000  Uiso   1.00
C551   C     0.49938   0.78880   0.04071   0.00000  Uiso   1.00
C552   C     0.28880   0.99963   0.95929   0.00000  Uiso   1.00
C553   C     0.21120   0.50037   0.04071   0.00000  Uiso   1.00
C554   C     0.49939   0.78859   0.95924   0.00000  Uiso   1.00
C555   C     0.24999   0.50000   0.14394   0.00000  Uiso   1.00
C556   C     0.00061   0.71141   0.04076   0.00000  Uiso   1.00
C557   C     0.49995   0.74999   0.47967   0.00000  Uiso   1.00
C558   C     0.49989   0.75000   0.52034   0.00000  Uiso   1.00
C559   C     0.24995   0.50000   0.47964   0.00000  Uiso   1.00
C560   C     0.24995   0.50000   0.52034   0.00000  Uiso   1.00
C561   C     0.25006   0.50000   0.97965   0.00000  Uiso   1.00
C562   C     0.24994   0.50000   0.02035   0.00000  Uiso   1.00
C563   C     0.00000   0.74994   0.97965   0.00000  Uiso   1.00
C564   C    -0.00000   0.75006   0.02035   0.00000  Uiso   1.00
C565   C     0.07706   0.74674   0.47962   0.00000  Uiso   1.00
C566   C     0.16999   0.58001   0.25000   0.00000  Uiso   1.00
C567   C     0.42270   0.75324   0.52012   0.00000  Uiso   1.00
C568   C     0.25260   0.92276   0.47987   0.00000  Uiso   1.00
C569   C     0.24729   0.57706   0.52046   0.00000  Uiso   1.00
C570   C     0.42290   0.75323   0.47950   0.00000  Uiso   1.00
C571   C     0.07703   0.74674   0.52043   0.00000  Uiso   1.00
C572   C     0.24728   0.57724   0.47985   0.00000  Uiso   1.00
C573   C     0.25259   0.92294   0.52047   0.00000  Uiso   1.00
C574   C     0.17292   0.50074   0.97949   0.00000  Uiso   1.00
C575   C     0.32708   0.99926   0.02051   0.00000  Uiso   1.00
C576   C     0.00125   0.67270   0.97990   0.00000  Uiso   1.00
H577   H     0.43265   0.75278   0.40268   0.00000  Uiso   1.00
H578   H     0.18275   0.50064   0.09750   0.00000  Uiso   1.00
H579   H     0.49893   0.81733   0.90270   0.00000  Uiso   1.00
H580   H     0.00107   0.68266   0.09730   0.00000  Uiso   1.00
H581   H     0.18266   0.50063   0.90269   0.00000  Uiso   1.00
H582   H     0.31734   0.99937   0.09731   0.00000  Uiso   1.00
H583   H     0.00107   0.68276   0.90249   0.00000  Uiso   1.00
H584   H     0.49893   0.81724   0.09751   0.00000  Uiso   1.00
H585   H     0.13440   0.77105   0.46622   0.00000  Uiso   1.00
H586   H     0.13208   0.71755   0.46621   0.00000  Uiso   1.00
H587   H     0.38205   0.78187   0.55706   0.00000  Uiso   1.00
H588   H     0.06726   0.74722   0.59728   0.00000  Uiso   1.00
H589   H     0.37975   0.72819   0.55707   0.00000  Uiso   1.00
H590   H     0.22721   0.88002   0.44290   0.00000  Uiso   1.00
H591   H     0.28091   0.88188   0.44292   0.00000  Uiso   1.00
H592   H     0.21861   0.63234   0.53317   0.00000  Uiso   1.00
H593   H     0.27195   0.63424   0.53318   0.00000  Uiso   1.00
H594   H     0.36555   0.72898   0.46676   0.00000  Uiso   1.00
H595   H     0.36783   0.78230   0.46675   0.00000  Uiso   1.00
H596   H     0.13437   0.77105   0.53389   0.00000  Uiso   1.00
H597   H     0.13205   0.71755   0.53389   0.00000  Uiso   1.00
H598   H     0.27266   0.62000   0.44290   0.00000  Uiso   1.00
H599   H     0.24770   0.56716   0.40248   0.00000  Uiso   1.00
H600   H     0.21896   0.61809   0.44289   0.00000  Uiso   1.00
H601   H     0.28123   0.86764   0.53320   0.00000  Uiso   1.00
H602   H     0.22788   0.86578   0.53319   0.00000  Uiso   1.00
H603   H     0.11641   0.97461   0.96673   0.00000  Uiso   1.00
H604   H     0.11693   0.52798   0.96672   0.00000  Uiso   1.00
H605   H     0.38307   0.97203   0.03328   0.00000  Uiso   1.00
H606   H     0.38359   0.52541   0.03327   0.00000  Uiso   1.00
H607   H     0.47509   0.63041   0.94297   0.00000  Uiso   1.00
H608   H     0.02881   0.63130   0.94297   0.00000  Uiso   1.00
H609   H     0.47119   0.86870   0.05703   0.00000  Uiso   1.00
H610   H     0.25225   0.93264   0.59730   0.00000  Uiso   1.00
H611   H     0.02491   0.86959   0.05703   0.00000  Uiso   1.00
H612   H     0.36942   0.52571   0.94297   0.00000  Uiso   1.00
H613   H     0.36890   0.97199   0.94298   0.00000  Uiso   1.00
H614   H     0.13111   0.52802   0.05702   0.00000  Uiso   1.00
H615   H     0.13058   0.97430   0.05703   0.00000  Uiso   1.00
H616   H     0.02451   0.88376   0.96673   0.00000  Uiso   1.00
H617   H     0.47113   0.88287   0.96672   0.00000  Uiso   1.00
H618   H     0.02887   0.61713   0.03328   0.00000  Uiso   1.00
H619   H     0.47549   0.61624   0.03327   0.00000  Uiso   1.00
H620   H     0.06732   0.74722   0.40273   0.00000  Uiso   1.00
H621   H     0.43280   0.75278   0.59752   0.00000  Uiso   1.00
H622   H     0.25225   0.93284   0.40249   0.00000  Uiso   1.00
H623   H     0.24770   0.56736   0.59730   0.00000  Uiso   1.00
H624   H     0.31725   0.99936   0.90250   0.00000  Uiso   1.00
N625   N     0.11604   0.74505   0.45860   0.00000  Uiso   1.00
N626   N     0.36619   0.99888   0.04136   0.00000  Uiso   1.00
N627   N     0.00191   0.63282   0.96035   0.00000  Uiso   1.00
N628   N     0.49809   0.86718   0.03965   0.00000  Uiso   1.00
N629   N     0.36719   0.99887   0.96035   0.00000  Uiso   1.00
N630   N     0.13281   0.50114   0.03965   0.00000  Uiso   1.00
N631   N     0.49811   0.86618   0.95864   0.00000  Uiso   1.00
N632   N     0.00189   0.63382   0.04136   0.00000  Uiso   1.00
N633   N     0.38286   0.75495   0.53969   0.00000  Uiso   1.00
N634   N     0.25399   0.88291   0.46029   0.00000  Uiso   1.00
N635   N     0.24589   0.61616   0.54128   0.00000  Uiso   1.00
N636   N     0.38382   0.75490   0.45867   0.00000  Uiso   1.00
N637   N     0.11599   0.74505   0.54149   0.00000  Uiso   1.00
N638   N     0.24587   0.61708   0.46027   0.00000  Uiso   1.00
N639   N     0.25396   0.88384   0.54129   0.00000  Uiso   1.00
N640   N     0.13381   0.50113   0.95864   0.00000  Uiso   1.00
O641   O     0.25000   0.50000   0.25000   0.00000  Uiso   1.00
O642   O     0.25000   0.96538   0.66251   0.00000  Uiso   1.00
O643   O     0.46538   0.75000   0.33749   0.00000  Uiso   1.00
O644   O     0.03461   0.75000   0.66251   0.00000  Uiso   1.00
O645   O     0.00000   0.71538   0.83749   0.00000  Uiso   1.00
O646   O     0.00000   0.78461   0.16251   0.00000  Uiso   1.00
O647   O     0.28461   0.50000   0.83749   0.00000  Uiso   1.00
O648   O     0.21538   0.50000   0.16251   0.00000  Uiso   1.00
O649   O     0.00000   0.78461   0.83749   0.00000  Uiso   1.00
O650   O     0.00000   0.71538   0.16251   0.00000  Uiso   1.00
O651   O     0.21538   0.50000   0.83749   0.00000  Uiso   1.00
O652   O     0.25000   0.50000   0.75000   0.00000  Uiso   1.00
O653   O     0.28461   0.50000   0.16251   0.00000  Uiso   1.00
O654   O     0.20126   0.58332   0.27298   0.00000  Uiso   1.00
O655   O     0.29873   0.91668   0.72702   0.00000  Uiso   1.00
O656   O     0.41668   0.70126   0.27298   0.00000  Uiso   1.00
O657   O     0.08332   0.79873   0.72702   0.00000  Uiso   1.00
O658   O     0.29873   0.91668   0.27298   0.00000  Uiso   1.00
O659   O     0.20126   0.58332   0.72702   0.00000  Uiso   1.00
O660   O     0.08332   0.79873   0.27298   0.00000  Uiso   1.00
O661   O     0.41668   0.70126   0.72702   0.00000  Uiso   1.00
O662   O     0.20126   0.91668   0.72702   0.00000  Uiso   1.00
O663   O     0.00000   0.75000   0.25000   0.00000  Uiso   1.00
O664   O     0.29873   0.58332   0.27298   0.00000  Uiso   1.00
O665   O     0.41668   0.79873   0.72702   0.00000  Uiso   1.00
O666   O     0.08332   0.70126   0.27298   0.00000  Uiso   1.00
O667   O     0.29873   0.58332   0.72702   0.00000  Uiso   1.00
O668   O     0.20126   0.91668   0.27298   0.00000  Uiso   1.00
O669   O     0.08332   0.70126   0.72702   0.00000  Uiso   1.00
O670   O     0.41668   0.79873   0.27298   0.00000  Uiso   1.00
O671   O     0.45126   0.83332   0.77298   0.00000  Uiso   1.00
O672   O     0.04873   0.66668   0.22702   0.00000  Uiso   1.00
O673   O     0.16668   0.95126   0.77298   0.00000  Uiso   1.00
O674   O     0.00000   0.75000   0.75000   0.00000  Uiso   1.00
O675   O     0.33332   0.54873   0.22702   0.00000  Uiso   1.00
O676   O     0.04873   0.66668   0.77298   0.00000  Uiso   1.00
O677   O     0.45126   0.83332   0.22702   0.00000  Uiso   1.00
O678   O     0.33332   0.54873   0.77298   0.00000  Uiso   1.00
O679   O     0.16668   0.95126   0.22702   0.00000  Uiso   1.00
O680   O     0.45126   0.66668   0.22702   0.00000  Uiso   1.00
O681   O     0.04873   0.83332   0.77298   0.00000  Uiso   1.00
O682   O     0.16668   0.54873   0.22702   0.00000  Uiso   1.00
O683   O     0.33332   0.95126   0.77298   0.00000  Uiso   1.00
O684   O     0.04873   0.83332   0.22702   0.00000  Uiso   1.00
O685   O     0.25000   0.96538   0.33749   0.00000  Uiso   1.00
O686   O     0.45126   0.66668   0.77298   0.00000  Uiso   1.00
O687   O     0.33332   0.95126   0.22702   0.00000  Uiso   1.00
O688   O     0.16668   0.54873   0.77298   0.00000  Uiso   1.00
O689   O     0.25000   0.53461   0.66251   0.00000  Uiso   1.00
O690   O     0.03461   0.75000   0.33749   0.00000  Uiso   1.00
O691   O     0.46538   0.75000   0.66251   0.00000  Uiso   1.00
O692   O     0.25000   0.53461   0.33749   0.00000  Uiso   1.00
Zn693  Zn    0.20052   0.50000   0.21730   0.00000  Uiso   1.00
Zn694  Zn    0.04947   0.75000   0.28270   0.00000  Uiso   1.00
Zn695  Zn    0.25000   0.95052   0.71730   0.00000  Uiso   1.00
Zn696  Zn    0.25000   0.54947   0.28270   0.00000  Uiso   1.00
Zn697  Zn    0.04947   0.75000   0.71730   0.00000  Uiso   1.00
Zn698  Zn    0.45052   0.75000   0.28270   0.00000  Uiso   1.00
Zn699  Zn    0.25000   0.54947   0.71730   0.00000  Uiso   1.00
Zn700  Zn    0.25000   0.95052   0.28270   0.00000  Uiso   1.00
Zn701  Zn    0.29947   0.50000   0.78270   0.00000  Uiso   1.00
Zn702  Zn   -0.00000   0.70052   0.21730   0.00000  Uiso   1.00
Zn703  Zn    0.00000   0.79947   0.78270   0.00000  Uiso   1.00
Zn704  Zn    0.29947   0.50000   0.21730   0.00000  Uiso   1.00
Zn705  Zn    0.20052   0.50000   0.78270   0.00000  Uiso   1.00
Zn706  Zn   -0.00000   0.79947   0.21730   0.00000  Uiso   1.00
Zn707  Zn    0.00000   0.70052   0.78270   0.00000  Uiso   1.00
Zn708  Zn    0.45052   0.75000   0.71730   0.00000  Uiso   1.00
C709   C     0.75000   0.50000   0.35607   0.00000  Uiso   1.00
C710   C     0.83001   0.91999   0.75000   0.00000  Uiso   1.00
C711   C     0.99875   0.82730   0.02010   0.00000  Uiso   1.00
C712   C     0.82731   0.99926   0.97990   0.00000  Uiso   1.00
C713   C     0.67269   0.50074   0.02010   0.00000  Uiso   1.00
C714   C     0.99875   0.82707   0.97949   0.00000  Uiso   1.00
C715   C     0.50125   0.67293   0.02051   0.00000  Uiso   1.00
C716   C     0.91999   0.66999   0.25000   0.00000  Uiso   1.00
C717   C     0.58001   0.83001   0.75000   0.00000  Uiso   1.00
C718   C     0.83001   0.91999   0.25000   0.00000  Uiso   1.00
C719   C     0.66999   0.58001   0.75000   0.00000  Uiso   1.00
C720   C     0.58001   0.83001   0.25000   0.00000  Uiso   1.00
C721   C     0.91999   0.66999   0.75000   0.00000  Uiso   1.00
C722   C     0.66999   0.91999   0.75000   0.00000  Uiso   1.00
C723   C     0.83001   0.58001   0.25000   0.00000  Uiso   1.00
C724   C     0.91999   0.83001   0.75000   0.00000  Uiso   1.00
C725   C     0.75000   0.50000   0.64394   0.00000  Uiso   1.00
C726   C     0.58001   0.66999   0.25000   0.00000  Uiso   1.00
C727   C     0.83001   0.58001   0.75000   0.00000  Uiso   1.00
C728   C     0.66999   0.91999   0.25000   0.00000  Uiso   1.00
C729   C     0.58001   0.66999   0.75000   0.00000  Uiso   1.00
C730   C     0.91999   0.83001   0.25000   0.00000  Uiso   1.00
C731   C     0.63833   0.88833   0.25000   0.00000  Uiso   1.00
C732   C     0.86167   0.61167   0.75000   0.00000  Uiso   1.00
C733   C     0.61167   0.63834   0.25000   0.00000  Uiso   1.00
C734   C     0.88833   0.86166   0.75000   0.00000  Uiso   1.00
C735   C     0.86167   0.61167   0.25000   0.00000  Uiso   1.00
C736   C     0.50000   0.75000   0.35606   0.00000  Uiso   1.00
C737   C     0.63833   0.88833   0.75000   0.00000  Uiso   1.00
C738   C     0.88834   0.86167   0.25000   0.00000  Uiso   1.00
C739   C     0.61166   0.63833   0.75000   0.00000  Uiso   1.00
C740   C     0.63833   0.61167   0.75000   0.00000  Uiso   1.00
C741   C     0.86166   0.88833   0.25000   0.00000  Uiso   1.00
C742   C     0.61167   0.86166   0.75000   0.00000  Uiso   1.00
C743   C     0.88833   0.63833   0.25000   0.00000  Uiso   1.00
C744   C     0.86167   0.88834   0.75000   0.00000  Uiso   1.00
C745   C     0.63833   0.61166   0.25000   0.00000  Uiso   1.00
C746   C     0.88833   0.63833   0.75000   0.00000  Uiso   1.00
C747   C     0.99999   0.75000   0.64393   0.00000  Uiso   1.00
C748   C     0.61167   0.86166   0.25000   0.00000  Uiso   1.00
C749   C     0.96191   0.75155   0.41873   0.00000  Uiso   1.00
C750   C     0.53801   0.74845   0.58123   0.00000  Uiso   1.00
C751   C     0.74870   0.53808   0.41873   0.00000  Uiso   1.00
C752   C     0.75124   0.96192   0.58126   0.00000  Uiso   1.00
C753   C     0.53806   0.74844   0.41878   0.00000  Uiso   1.00
C754   C     0.96186   0.75155   0.58127   0.00000  Uiso   1.00
C755   C     0.75124   0.96192   0.41874   0.00000  Uiso   1.00
C756   C     0.74870   0.53809   0.58126   0.00000  Uiso   1.00
C757   C     0.78815   0.99964   0.91874   0.00000  Uiso   1.00
C758   C     0.50000   0.74999   0.85606   0.00000  Uiso   1.00
C759   C     0.71185   0.50036   0.08126   0.00000  Uiso   1.00
C760   C     0.99941   0.78805   0.91874   0.00000  Uiso   1.00
C761   C     0.50059   0.71195   0.08126   0.00000  Uiso   1.00
C762   C     0.71195   0.50035   0.91874   0.00000  Uiso   1.00
C763   C     0.78805   0.99965   0.08126   0.00000  Uiso   1.00
C764   C     0.50060   0.71185   0.91874   0.00000  Uiso   1.00
C765   C     0.99940   0.78815   0.08126   0.00000  Uiso   1.00
C766   C     0.99999   0.75000   0.39850   0.00000  Uiso   1.00
C767   C     0.99996   0.75000   0.60149   0.00000  Uiso   1.00
C768   C     0.74998   0.50000   0.39851   0.00000  Uiso   1.00
C769   C     0.50000   0.75000   0.14394   0.00000  Uiso   1.00
C770   C     0.74998   0.50000   0.60151   0.00000  Uiso   1.00
C771   C     0.75003   0.50000   0.89850   0.00000  Uiso   1.00
C772   C     0.74997   0.50000   0.10150   0.00000  Uiso   1.00
C773   C     0.50000   0.74997   0.89850   0.00000  Uiso   1.00
C774   C     0.50000   0.75003   0.10150   0.00000  Uiso   1.00
C775   C     0.53860   0.74839   0.45931   0.00000  Uiso   1.00
C776   C     0.96119   0.75161   0.54072   0.00000  Uiso   1.00
C777   C     0.75127   0.96127   0.45928   0.00000  Uiso   1.00
C778   C     0.74864   0.53862   0.54074   0.00000  Uiso   1.00
C779   C     0.96135   0.75160   0.45924   0.00000  Uiso   1.00
C780   C     0.75001   0.50000   0.85606   0.00000  Uiso   1.00
C781   C     0.53854   0.74839   0.54071   0.00000  Uiso   1.00
C782   C     0.74864   0.53873   0.45927   0.00000  Uiso   1.00
C783   C     0.75127   0.96138   0.54075   0.00000  Uiso   1.00
C784   C     0.71141   0.50037   0.95924   0.00000  Uiso   1.00
C785   C     0.78859   0.99964   0.04076   0.00000  Uiso   1.00
C786   C     0.50062   0.71120   0.95929   0.00000  Uiso   1.00
C787   C     0.99938   0.78880   0.04071   0.00000  Uiso   1.00
C788   C     0.78880   0.99963   0.95929   0.00000  Uiso   1.00
C789   C     0.71120   0.50037   0.04071   0.00000  Uiso   1.00
C790   C     0.99939   0.78859   0.95924   0.00000  Uiso   1.00
C791   C     0.74999   0.50000   0.14394   0.00000  Uiso   1.00
C792   C     0.50061   0.71141   0.04076   0.00000  Uiso   1.00
C793   C     0.99995   0.74999   0.47967   0.00000  Uiso   1.00
C794   C     0.99989   0.75000   0.52034   0.00000  Uiso   1.00
C795   C     0.74995   0.50000   0.47964   0.00000  Uiso   1.00
C796   C     0.74995   0.50000   0.52034   0.00000  Uiso   1.00
C797   C     0.75006   0.50000   0.97965   0.00000  Uiso   1.00
C798   C     0.74994   0.50000   0.02035   0.00000  Uiso   1.00
C799   C     0.50000   0.74994   0.97965   0.00000  Uiso   1.00
C800   C     0.50000   0.75006   0.02035   0.00000  Uiso   1.00
C801   C     0.57706   0.74674   0.47962   0.00000  Uiso   1.00
C802   C     0.66999   0.58001   0.25000   0.00000  Uiso   1.00
C803   C     0.92270   0.75324   0.52012   0.00000  Uiso   1.00
C804   C     0.75260   0.92276   0.47987   0.00000  Uiso   1.00
C805   C     0.74729   0.57706   0.52046   0.00000  Uiso   1.00
C806   C     0.92290   0.75323   0.47950   0.00000  Uiso   1.00
C807   C     0.57703   0.74674   0.52043   0.00000  Uiso   1.00
C808   C     0.74728   0.57724   0.47985   0.00000  Uiso   1.00
C809   C     0.75259   0.92294   0.52047   0.00000  Uiso   1.00
C810   C     0.67292   0.50074   0.97949   0.00000  Uiso   1.00
C811   C     0.82708   0.99926   0.02051   0.00000  Uiso   1.00
C812   C     0.50125   0.67270   0.97990   0.00000  Uiso   1.00
H813   H     0.93265   0.75278   0.40268   0.00000  Uiso   1.00
H814   H     0.68275   0.50064   0.09750   0.00000  Uiso   1.00
H815   H     0.99893   0.81733   0.90270   0.00000  Uiso   1.00
H816   H     0.50107   0.68266   0.09730   0.00000  Uiso   1.00
H817   H     0.68266   0.50063   0.90269   0.00000  Uiso   1.00
H818   H     0.81734   0.99937   0.09731   0.00000  Uiso   1.00
H819   H     0.50107   0.68276   0.90249   0.00000  Uiso   1.00
H820   H     0.99893   0.81724   0.09751   0.00000  Uiso   1.00
H821   H     0.63440   0.77105   0.46622   0.00000  Uiso   1.00
H822   H     0.63208   0.71755   0.46621   0.00000  Uiso   1.00
H823   H     0.88205   0.78187   0.55706   0.00000  Uiso   1.00
H824   H     0.56726   0.74722   0.59728   0.00000  Uiso   1.00
H825   H     0.87975   0.72819   0.55707   0.00000  Uiso   1.00
H826   H     0.72721   0.88002   0.44290   0.00000  Uiso   1.00
H827   H     0.78091   0.88188   0.44292   0.00000  Uiso   1.00
H828   H     0.71861   0.63234   0.53317   0.00000  Uiso   1.00
H829   H     0.77195   0.63424   0.53318   0.00000  Uiso   1.00
H830   H     0.86555   0.72898   0.46676   0.00000  Uiso   1.00
H831   H     0.86783   0.78230   0.46675   0.00000  Uiso   1.00
H832   H     0.63437   0.77105   0.53389   0.00000  Uiso   1.00
H833   H     0.63205   0.71755   0.53389   0.00000  Uiso   1.00
H834   H     0.77266   0.62000   0.44290   0.00000  Uiso   1.00
H835   H     0.74770   0.56716   0.40248   0.00000  Uiso   1.00
H836   H     0.71896   0.61809   0.44289   0.00000  Uiso   1.00
H837   H     0.78123   0.86764   0.53320   0.00000  Uiso   1.00
H838   H     0.72788   0.86578   0.53319   0.00000  Uiso   1.00
H839   H     0.61641   0.97461   0.96673   0.00000  Uiso   1.00
H840   H     0.61693   0.52798   0.96672   0.00000  Uiso   1.00
H841   H     0.88307   0.97203   0.03328   0.00000  Uiso   1.00
H842   H     0.88359   0.52541   0.03327   0.00000  Uiso   1.00
H843   H     0.97509   0.63041   0.94297   0.00000  Uiso   1.00
H844   H     0.52881   0.63130   0.94297   0.00000  Uiso   1.00
H845   H     0.97119   0.86870   0.05703   0.00000  Uiso   1.00
H846   H     0.75225   0.93264   0.59730   0.00000  Uiso   1.00
H847   H     0.52491   0.86959   0.05703   0.00000  Uiso   1.00
H848   H     0.86942   0.52571   0.94297   0.00000  Uiso   1.00
H849   H     0.86890   0.97199   0.94298   0.00000  Uiso   1.00
H850   H     0.63111   0.52802   0.05702   0.00000  Uiso   1.00
H851   H     0.63058   0.97430   0.05703   0.00000  Uiso   1.00
H852   H     0.52451   0.88376   0.96673   0.00000  Uiso   1.00
H853   H     0.97113   0.88287   0.96672   0.00000  Uiso   1.00
H854   H     0.52887   0.61713   0.03328   0.00000  Uiso   1.00
H855   H     0.97549   0.61624   0.03327   0.00000  Uiso   1.00
H856   H     0.56732   0.74722   0.40273   0.00000  Uiso   1.00
H857   H     0.93280   0.75278   0.59752   0.00000  Uiso   1.00
H858   H     0.75225   0.93284   0.40249   0.00000  Uiso   1.00
H859   H     0.74770   0.56736   0.59730   0.00000  Uiso   1.00
H860   H     0.81725   0.99936   0.90250   0.00000  Uiso   1.00
N861   N     0.61604   0.74505   0.45860   0.00000  Uiso   1.00
N862   N     0.86619   0.99888   0.04136   0.00000  Uiso   1.00
N863   N     0.50191   0.63282   0.96035   0.00000  Uiso   1.00
N864   N     0.99809   0.86718   0.03965   0.00000  Uiso   1.00
N865   N     0.86719   0.99887   0.96035   0.00000  Uiso   1.00
N866   N     0.63281   0.50114   0.03965   0.00000  Uiso   1.00
N867   N     0.99811   0.86618   0.95864   0.00000  Uiso   1.00
N868   N     0.50189   0.63382   0.04136   0.00000  Uiso   1.00
N869   N     0.88286   0.75495   0.53969   0.00000  Uiso   1.00
N870   N     0.75399   0.88291   0.46029   0.00000  Uiso   1.00
N871   N     0.74589   0.61616   0.54128   0.00000  Uiso   1.00
N872   N     0.88382   0.75490   0.45867   0.00000  Uiso   1.00
N873   N     0.61599   0.74505   0.54149   0.00000  Uiso   1.00
N874   N     0.74587   0.61708   0.46027   0.00000  Uiso   1.00
N875   N     0.75396   0.88384   0.54129   0.00000  Uiso   1.00
N876   N     0.63381   0.50113   0.95864   0.00000  Uiso   1.00
O877   O     0.75000   0.50000   0.25000   0.00000  Uiso   1.00
O878   O     0.75000   0.96538   0.66251   0.00000  Uiso   1.00
O879   O     0.96538   0.75000   0.33749   0.00000  Uiso   1.00
O880   O     0.53461   0.75000   0.66251   0.00000  Uiso   1.00
O881   O     0.50000   0.71538   0.83749   0.00000  Uiso   1.00
O882   O     0.50000   0.78461   0.16251   0.00000  Uiso   1.00
O883   O     0.78461   0.50000   0.83749   0.00000  Uiso   1.00
O884   O     0.71538   0.50000   0.16251   0.00000  Uiso   1.00
O885   O     0.50000   0.78461   0.83749   0.00000  Uiso   1.00
O886   O     0.50000   0.71538   0.16251   0.00000  Uiso   1.00
O887   O     0.71538   0.50000   0.83749   0.00000  Uiso   1.00
O888   O     0.75000   0.50000   0.75000   0.00000  Uiso   1.00
O889   O     0.78461   0.50000   0.16251   0.00000  Uiso   1.00
O890   O     0.70126   0.58332   0.27298   0.00000  Uiso   1.00
O891   O     0.79873   0.91668   0.72702   0.00000  Uiso   1.00
O892   O     0.91668   0.70126   0.27298   0.00000  Uiso   1.00
O893   O     0.58332   0.79873   0.72702   0.00000  Uiso   1.00
O894   O     0.79873   0.91668   0.27298   0.00000  Uiso   1.00
O895   O     0.70126   0.58332   0.72702   0.00000  Uiso   1.00
O896   O     0.58332   0.79873   0.27298   0.00000  Uiso   1.00
O897   O     0.91668   0.70126   0.72702   0.00000  Uiso   1.00
O898   O     0.70126   0.91668   0.72702   0.00000  Uiso   1.00
O899   O     0.50000   0.75000   0.25000   0.00000  Uiso   1.00
O900   O     0.79873   0.58332   0.27298   0.00000  Uiso   1.00
O901   O     0.91668   0.79873   0.72702   0.00000  Uiso   1.00
O902   O     0.58332   0.70126   0.27298   0.00000  Uiso   1.00
O903   O     0.79873   0.58332   0.72702   0.00000  Uiso   1.00
O904   O     0.70126   0.91668   0.27298   0.00000  Uiso   1.00
O905   O     0.58332   0.70126   0.72702   0.00000  Uiso   1.00
O906   O     0.91668   0.79873   0.27298   0.00000  Uiso   1.00
O907   O     0.95126   0.83332   0.77298   0.00000  Uiso   1.00
O908   O     0.54873   0.66668   0.22702   0.00000  Uiso   1.00
O909   O     0.66668   0.95126   0.77298   0.00000  Uiso   1.00
O910   O     0.50000   0.75000   0.75000   0.00000  Uiso   1.00
O911   O     0.83332   0.54873   0.22702   0.00000  Uiso   1.00
O912   O     0.54873   0.66668   0.77298   0.00000  Uiso   1.00
O913   O     0.95126   0.83332   0.22702   0.00000  Uiso   1.00
O914   O     0.83332   0.54873   0.77298   0.00000  Uiso   1.00
O915   O     0.66668   0.95126   0.22702   0.00000  Uiso   1.00
O916   O     0.95126   0.66668   0.22702   0.00000  Uiso   1.00
O917   O     0.54873   0.83332   0.77298   0.00000  Uiso   1.00
O918   O     0.66668   0.54873   0.22702   0.00000  Uiso   1.00
O919   O     0.83332   0.95126   0.77298   0.00000  Uiso   1.00
O920   O     0.54873   0.83332   0.22702   0.00000  Uiso   1.00
O921   O     0.75000   0.96538   0.33749   0.00000  Uiso   1.00
O922   O     0.95126   0.66668   0.77298   0.00000  Uiso   1.00
O923   O     0.83332   0.95126   0.22702   0.00000  Uiso   1.00
O924   O     0.66668   0.54873   0.77298   0.00000  Uiso   1.00
O925   O     0.75000   0.53461   0.66251   0.00000  Uiso   1.00
O926   O     0.53461   0.75000   0.33749   0.00000  Uiso   1.00
O927   O     0.96538   0.75000   0.66251   0.00000  Uiso   1.00
O928   O     0.75000   0.53461   0.33749   0.00000  Uiso   1.00
Zn929  Zn    0.70052   0.50000   0.21730   0.00000  Uiso   1.00
Zn930  Zn    0.54947   0.75000   0.28270   0.00000  Uiso   1.00
Zn931  Zn    0.75000   0.95052   0.71730   0.00000  Uiso   1.00
Zn932  Zn    0.75000   0.54947   0.28270   0.00000  Uiso   1.00
Zn933  Zn    0.54947   0.75000   0.71730   0.00000  Uiso   1.00
Zn934  Zn    0.95052   0.75000   0.28270   0.00000  Uiso   1.00
Zn935  Zn    0.75000   0.54947   0.71730   0.00000  Uiso   1.00
Zn936  Zn    0.75000   0.95052   0.28270   0.00000  Uiso   1.00
Zn937  Zn    0.79947   0.50000   0.78270   0.00000  Uiso   1.00
Zn938  Zn    0.50000   0.70052   0.21730   0.00000  Uiso   1.00
Zn939  Zn    0.50000   0.79947   0.78270   0.00000  Uiso   1.00
Zn940  Zn    0.79947   0.50000   0.21730   0.00000  Uiso   1.00
Zn941  Zn    0.70052   0.50000   0.78270   0.00000  Uiso   1.00
Zn942  Zn    0.50000   0.79947   0.21730   0.00000  Uiso   1.00
Zn943  Zn    0.50000   0.70052   0.78270   0.00000  Uiso   1.00
Zn944  Zn    0.95052   0.75000   0.71730   0.00000  Uiso   1.00
loop_
_geom_bond_atom_site_label_1
_geom_bond_atom_site_label_2
_geom_bond_distance
_geom_bond_site_symmetry_2
_ccdc_geom_bond_type
C1     C60     1.467   .     S
C1     O685    1.273   1_545 A
C1     O220    1.273   .     S
C2     O211    1.276   .     A
C2     C36     1.422   .     S
C2     O183    1.276   .     A
C3     C79     1.415   .     A
C3     N156    1.436   .     S
C3     C6      1.404   1_554 S
C4     C80     1.415   .     A
C4     N157    1.436   .     S
C4     C103    1.404   1_556 S
C5     C81     1.415   .     A
C5     N158    1.436   .     S
C5     C102    1.404   1_554 S
C6     N159    1.436   .     S
C6     C82     1.409   .     A
C6     C3      1.404   1_556 S
C7     C84     1.409   .     A
C7     N160    1.436   .     S
C7     C104    1.404   1_554 S
C8     O208    1.276   .     A
C8     C35     1.422   .     S
C8     O184    1.276   .     A
C9     O185    1.276   .     A
C9     O209    1.276   .     A
C9     C34     1.422   .     S
C10    O215    1.276   .     A
C10    O186    1.276   .     A
C10    C33     1.422   .     S
C11    O187    1.276   .     A
C11    C32     1.422   .     S
C11    O216    1.276   .     A
C12    O212    1.276   .     A
C12    C40     1.422   .     S
C12    O188    1.276   .     A
C13    O189    1.276   .     A
C13    O214    1.276   .     A
C13    C38     1.422   .     S
C14    O201    1.276   .     A
C14    O190    1.276   .     A
C14    C29     1.422   .     S
C15    O192    1.276   .     A
C15    C27     1.422   .     S
C15    O203    1.276   .     A
C16    O193    1.276   .     A
C16    O199    1.276   .     A
C16    C26     1.422   .     S
C17    C62     1.467   .     S
C17    O217    1.273   .     A
C17    O642    1.273   1_545 S
C18    O194    1.276   .     A
C18    C25     1.422   .     S
C18    O200    1.276   .     A
C19    O195    1.276   .     A
C19    O206    1.276   .     A
C19    C24     1.422   .     S
C20    C23     1.422   .     S
C20    O207    1.276   .     A
C20    O196    1.276   .     A
C21    O204    1.276   .     A
C21    C31     1.422   .     S
C21    O197    1.276   .     A
C22    C30     1.422   .     S
C22    O198    1.276   .     A
C22    O205    1.276   .     A
C23    C40     1.198   .     T
C24    C38     1.198   .     T
C25    C37     1.198   .     T
C26    C36     1.198   .     T
C27    C35     1.198   .     T
C28    O218    1.273   .     A
C28    C294    1.467   1_455 S
C28    O407    1.273   1_455 S
C29    C34     1.198   .     T
C30    C33     1.198   .     T
C31    C32     1.198   .     T
C37    C94     1.422   .     S
C39    O219    1.273   .     A
C39    C59     1.467   .     S
C39    O408    1.273   .     S
C41    H105    1.083   .     S
C41    C58     1.398   .     A
C41    C71     1.400   .     A
C42    C73     1.400   .     A
C42    H116    1.083   .     S
C42    C295    1.398   1_455 S
C43    C74     1.401   .     A
C43    H127    1.081   .     S
C43    C60     1.398   .     S
C44    C75     1.401   .     A
C44    H138    1.083   .     S
C44    C534    1.398   .     S
C45    H148    1.083   .     S
C45    C67     1.401   .     A
C45    C294    1.398   1_455 S
C46    C59     1.398   .     A
C46    C68     1.402   .     A
C46    H149    1.081   .     S
C47    C69     1.401   .     A
C47    C532    1.398   .     A
C47    H150    1.081   .     S
C48    C62     1.398   .     A
C48    C70     1.401   .     A
C48    H151    1.083   .     S
C49    C535    1.398   .     A
C49    H152    1.081   .     S
C49    C80     1.402   .     A
C50    O173    1.273   .     A
C50    O177    1.273   .     A
C50    C65     1.467   .     S
C51    C64     1.398   .     A
C51    C81     1.402   .     A
C51    H106    1.081   .     S
C52    H107    1.083   .     S
C52    C82     1.400   .     A
C52    C301    1.398   .     S
C53    C84     1.400   .     A
C53    H108    1.083   .     S
C53    C66     1.398   .     S
C54    H109    1.083   .     S
C54    C76     1.400   .     A
C54    C63     1.398   .     S
C55    C77     1.400   .     A
C55    H110    1.083   .     S
C55    C536    1.398   .     S
C56    C78     1.402   .     A
C56    H111    1.081   .     S
C56    C65     1.398   .     A
C57    C79     1.402   .     A
C57    C302    1.398   .     A
C57    H112    1.081   .     S
C58    C264    1.467   .     S
C58    C281    1.398   .     S
C59    C278    1.398   .     S
C60    C519    1.398   1_545 A
C61    C66     1.467   .     S
C61    O174    1.273   .     S
C61    O178    1.273   .     S
C62    C516    1.398   1_545 S
C63    C521    1.398   1_545 A
C63    C72     1.467   .     S
C64    C83     1.467   .     S
C64    C527    1.398   1_545 S
C65    C288    1.398   1_455 S
C66    C293    1.398   1_455 A
C67    C93     1.410   .     A
C67    C321    1.416   1_455 S
C68    C86     1.418   .     A
C68    C95     1.416   .     A
C69    C96     1.416   .     A
C69    C559    1.418   .     A
C70    C88     1.416   .     A
C70    C97     1.409   .     A
C71    C85     1.416   .     A
C71    C98     1.409   .     A
C72    O175    1.273   .     S
C72    O179    1.273   .     S
C73    C99     1.410   .     A
C73    C322    1.416   1_455 S
C74    C100    1.416   .     A
C74    C87     1.418   .     S
C75    C101    1.409   .     A
C75    C560    1.416   .     S
C76    C89     1.416   .     A
C76    C102    1.409   .     A
C77    C103    1.409   .     A
C77    C562    1.416   .     S
C78    C104    1.415   .     A
C78    C91     1.418   .     A
C79    C328    1.418   .     A
C80    C561    1.418   .     S
C81    C90     1.418   .     A
C82    C327    1.416   .     S
C83    O176    1.273   .     S
C83    O181    1.273   .     S
C84    C92     1.416   .     S
C85    C86     1.406   .     A
C85    C303    1.416   .     S
C86    C309    1.416   .     S
C87    C541    1.418   1_545 A
C87    C88     1.407   .     S
C88    C547    1.416   1_545 S
C89    C552    1.418   1_545 S
C89    C90     1.407   1_556 S
C90    C549    1.416   1_545 S
C90    C89     1.407   1_554 S
C91    C318    1.416   1_455 S
C91    C92     1.407   1_556 S
C92    C315    1.418   1_455 A
C92    C91     1.407   1_554 S
C93    C99     1.411   .     A
C93    N153    1.437   .     S
C94    O210    1.276   .     A
C94    O182    1.276   .     A
C95    C98     1.404   .     A
C95    N161    1.436   .     S
C96    C101    1.404   .     A
C96    N162    1.436   .     S
C97    N163    1.436   .     S
C97    C100    1.404   .     A
C98    N164    1.436   .     S
C99    N165    1.437   .     S
C100   N166    1.436   .     S
C101   N167    1.436   .     S
C102   N168    1.436   .     S
C102   C5      1.404   1_556 S
C103   N154    1.436   .     S
C103   C4      1.404   1_554 S
C104   N155    1.436   .     S
C104   C7      1.404   1_556 S
H113   N153    1.045   .     S
H114   N153    1.045   .     S
H115   N161    1.045   .     S
H117   N161    1.045   .     S
H118   N162    1.045   .     S
H119   N162    1.045   .     S
H120   N163    1.046   .     S
H121   N163    1.046   .     S
H122   N164    1.046   .     S
H123   N164    1.046   .     S
H124   N165    1.045   .     S
H125   N165    1.045   .     S
H126   N166    1.045   .     S
H128   N166    1.045   .     S
H129   N167    1.046   .     S
H130   N167    1.046   .     S
H131   N640    1.046   .     S
H132   N168    1.046   .     S
H133   N154    1.046   .     S
H134   N626    1.046   1_545 S
H135   N391    1.045   .     S
H136   N155    1.045   .     S
H137   N156    1.045   .     S
H139   N392    1.045   1_455 S
H140   N629    1.045   1_545 S
H141   N157    1.045   .     S
H142   N158    1.045   .     S
H143   N630    1.045   .     S
H144   N395    1.046   1_455 S
H145   N159    1.046   .     S
H146   N160    1.046   .     S
H147   N396    1.046   .     S
N154   H606    1.046   .     S
N155   H371    1.045   1_455 S
N156   H375    1.045   .     S
N157   H612    1.045   .     S
N158   H615    1.045   1_545 S
N159   H380    1.046   .     S
N160   H383    1.046   1_455 S
N168   H603    1.046   1_545 S
O169   Zn224   1.936   .     S
O169   Zn221   1.936   .     S
O169   Zn232   1.936   .     S
O169   Zn700   1.936   1_545 S
O170   Zn223   1.952   .     S
O170   C489    1.273   .     S
O171   Zn226   1.952   .     S
O171   C264    1.273   .     S
O172   Zn225   1.952   .     S
O172   C275    1.273   1_455 S
O173   Zn235   1.952   .     S
O174   Zn234   1.952   .     S
O175   Zn229   1.952   .     S
O176   Zn221   1.952   .     S
O177   Zn231   1.952   .     S
O178   Zn230   1.952   .     S
O179   Zn233   1.952   .     S
O180   Zn229   1.936   .     S
O180   Zn233   1.936   .     S
O180   Zn227   1.936   .     S
O180   Zn695   1.936   1_545 S
O181   Zn232   1.952   .     S
O182   Zn224   1.914   .     S
O183   Zn223   1.914   .     S
O184   Zn226   1.914   .     S
O185   Zn225   1.914   .     S
O186   Zn228   1.914   .     S
O187   Zn227   1.914   .     S
O188   Zn222   1.914   .     S
O189   Zn236   1.914   .     S
O190   Zn223   1.914   .     S
O191   Zn222   1.936   .     S
O191   Zn462   1.936   1_455 S
O191   Zn230   1.936   .     S
O191   Zn234   1.936   .     S
O192   Zn224   1.914   .     S
O193   Zn236   1.914   .     S
O194   Zn222   1.914   .     S
O195   Zn227   1.914   .     S
O196   Zn228   1.914   .     S
O197   Zn225   1.914   .     S
O198   Zn226   1.914   .     S
O199   Zn467   1.914   .     S
O200   Zn230   1.914   .     S
O201   Zn705   1.914   .     S
O202   Zn235   1.936   .     S
O202   Zn225   1.936   .     S
O202   Zn231   1.936   .     S
O202   Zn472   1.936   1_455 S
O203   Zn232   1.914   .     S
O204   Zn235   1.914   .     S
O205   Zn470   1.914   .     S
O206   Zn229   1.914   .     S
O207   Zn693   1.914   .     S
O208   Zn466   1.914   .     S
O209   Zn231   1.914   .     S
O210   Zn221   1.914   .     S
O211   Zn701   1.914   .     S
O212   Zn234   1.914   .     S
O213   C473    1.273   .     A
O213   Zn228   1.952   .     S
O214   Zn471   1.914   .     S
O215   Zn704   1.914   .     S
O216   Zn233   1.914   .     S
O217   Zn227   1.952   .     S
O218   Zn222   1.952   .     S
O219   Zn236   1.952   .     S
O220   Zn224   1.952   .     S
Zn221  O679    1.914   1_545 S
Zn223  O652    1.936   .     S
Zn226  O427    1.936   .     S
Zn228  O641    1.936   .     S
Zn229  O683    1.914   1_545 S
Zn230  O444    1.914   1_455 S
Zn231  O435    1.914   1_455 S
Zn232  O687    1.914   1_545 S
Zn233  O673    1.914   1_545 S
Zn234  O441    1.914   1_455 S
Zn235  O450    1.914   1_455 S
Zn236  O438    1.936   .     S
C237   C296    1.467   .     S
C237   O921    1.273   1_545 A
C237   O456    1.273   .     S
C238   O447    1.276   .     A
C238   C272    1.422   .     S
C238   O419    1.276   .     A
C239   C315    1.415   .     A
C239   N392    1.436   .     S
C239   C242    1.404   1_554 S
C240   C316    1.415   .     A
C240   N393    1.436   .     S
C240   C339    1.404   1_556 S
C241   C317    1.415   .     A
C241   N394    1.436   .     S
C241   C338    1.404   1_554 S
C242   N395    1.436   .     S
C242   C318    1.409   .     A
C242   C239    1.404   1_556 S
C243   C320    1.409   .     A
C243   N396    1.436   .     S
C243   C340    1.404   1_554 S
C244   O444    1.276   .     A
C244   C271    1.422   .     S
C244   O420    1.276   .     A
C245   O421    1.276   .     A
C245   O445    1.276   .     A
C245   C270    1.422   .     S
C246   O451    1.276   .     A
C246   O422    1.276   .     A
C246   C269    1.422   .     S
C247   O423    1.276   .     A
C247   C268    1.422   .     S
C247   O452    1.276   .     A
C248   O448    1.276   .     A
C248   C276    1.422   .     S
C248   O424    1.276   .     A
C249   O425    1.276   .     A
C249   O450    1.276   .     A
C249   C274    1.422   .     S
C250   O437    1.276   .     A
C250   O426    1.276   .     A
C250   C265    1.422   .     S
C251   O428    1.276   .     A
C251   C263    1.422   .     S
C251   O439    1.276   .     A
C252   O429    1.276   .     A
C252   O435    1.276   .     A
C252   C262    1.422   .     S
C253   C298    1.467   .     S
C253   O453    1.273   .     A
C253   O878    1.273   1_545 S
C254   O430    1.276   .     A
C254   C261    1.422   .     S
C254   O436    1.276   .     A
C255   O431    1.276   .     A
C255   O442    1.276   .     A
C255   C260    1.422   .     S
C256   C259    1.422   .     S
C256   O443    1.276   .     A
C256   O432    1.276   .     A
C257   O440    1.276   .     A
C257   C267    1.422   .     S
C257   O433    1.276   .     A
C258   C266    1.422   .     S
C258   O434    1.276   .     A
C258   O441    1.276   .     A
C259   C276    1.198   .     T
C260   C274    1.198   .     T
C261   C273    1.198   .     T
C262   C272    1.198   .     T
C263   C271    1.198   .     T
C264   O454    1.273   .     A
C265   C270    1.198   .     T
C266   C269    1.198   .     T
C267   C268    1.198   .     T
C273   C330    1.422   .     S
C275   O455    1.273   .     A
C275   C295    1.467   .     S
C275   O172    1.273   1_655 S
C277   H341    1.083   .     S
C277   C294    1.398   .     A
C277   C307    1.400   .     A
C278   C309    1.400   .     A
C278   H352    1.083   .     S
C279   C310    1.401   .     A
C279   H363    1.081   .     S
C279   C296    1.398   .     S
C280   C311    1.401   .     A
C280   H374    1.083   .     S
C280   C770    1.398   .     S
C281   H384    1.083   .     S
C281   C303    1.401   .     A
C282   C295    1.398   .     A
C282   C304    1.402   .     A
C282   H385    1.081   .     S
C283   C305    1.401   .     A
C283   C768    1.398   .     A
C283   H386    1.081   .     S
C284   C298    1.398   .     A
C284   C306    1.401   .     A
C284   H387    1.083   .     S
C285   C771    1.398   .     A
C285   H388    1.081   .     S
C285   C316    1.402   .     A
C286   O409    1.273   .     A
C286   O413    1.273   .     A
C286   C301    1.467   .     S
C287   C300    1.398   .     A
C287   C317    1.402   .     A
C287   H342    1.081   .     S
C288   H343    1.083   .     S
C288   C318    1.400   .     A
C288   C65     1.398   1_655 S
C289   C320    1.400   .     A
C289   H344    1.083   .     S
C289   C302    1.398   .     S
C290   H345    1.083   .     S
C290   C312    1.400   .     A
C290   C299    1.398   .     S
C291   C313    1.400   .     A
C291   H346    1.083   .     S
C291   C772    1.398   .     S
C292   C314    1.402   .     A
C292   H347    1.081   .     S
C292   C301    1.398   .     A
C293   C315    1.402   .     A
C293   C66     1.398   1_655 A
C293   H348    1.081   .     S
C294   C28     1.467   1_655 S
C294   C45     1.398   1_655 S
C295   C42     1.398   1_655 S
C296   C755    1.398   1_545 A
C297   C302    1.467   .     S
C297   O410    1.273   .     S
C297   O414    1.273   .     S
C298   C752    1.398   1_545 S
C299   C757    1.398   1_545 A
C299   C308    1.467   .     S
C300   C319    1.467   .     S
C300   C763    1.398   1_545 S
C303   C329    1.410   .     A
C304   C322    1.418   .     A
C304   C331    1.416   .     A
C305   C332    1.416   .     A
C305   C795    1.418   .     A
C306   C324    1.416   .     A
C306   C333    1.409   .     A
C307   C321    1.416   .     A
C307   C334    1.409   .     A
C308   O411    1.273   .     S
C308   O415    1.273   .     S
C309   C335    1.410   .     A
C310   C336    1.416   .     A
C310   C323    1.418   .     S
C311   C337    1.409   .     A
C311   C796    1.416   .     S
C312   C325    1.416   .     A
C312   C338    1.409   .     A
C313   C339    1.409   .     A
C313   C798    1.416   .     S
C314   C340    1.415   .     A
C314   C327    1.418   .     A
C315   C92     1.418   1_655 A
C316   C797    1.418   .     S
C317   C326    1.418   .     A
C318   C91     1.416   1_655 S
C319   O412    1.273   .     S
C319   O417    1.273   .     S
C320   C328    1.416   .     S
C321   C322    1.406   .     A
C321   C67     1.416   1_655 S
C322   C73     1.416   1_655 S
C323   C777    1.418   1_545 A
C323   C324    1.407   .     S
C324   C783    1.416   1_545 S
C325   C788    1.418   1_545 S
C325   C326    1.407   1_556 S
C326   C785    1.416   1_545 S
C326   C325    1.407   1_554 S
C327   C328    1.407   1_556 S
C328   C327    1.407   1_554 S
C329   C335    1.411   .     A
C329   N389    1.437   .     S
C330   O446    1.276   .     A
C330   O418    1.276   .     A
C331   C334    1.404   .     A
C331   N397    1.436   .     S
C332   C337    1.404   .     A
C332   N398    1.436   .     S
C333   N399    1.436   .     S
C333   C336    1.404   .     A
C334   N400    1.436   .     S
C335   N401    1.437   .     S
C336   N402    1.436   .     S
C337   N403    1.436   .     S
C338   N404    1.436   .     S
C338   C241    1.404   1_556 S
C339   N390    1.436   .     S
C339   C240    1.404   1_554 S
C340   N391    1.436   .     S
C340   C243    1.404   1_556 S
H349   N389    1.045   .     S
H350   N389    1.045   .     S
H351   N397    1.045   .     S
H353   N397    1.045   .     S
H354   N398    1.045   .     S
H355   N398    1.045   .     S
H356   N399    1.046   .     S
H357   N399    1.046   .     S
H358   N400    1.046   .     S
H359   N400    1.046   .     S
H360   N401    1.045   .     S
H361   N401    1.045   .     S
H362   N402    1.045   .     S
H364   N402    1.045   .     S
H365   N403    1.046   .     S
H366   N403    1.046   .     S
H367   N876    1.046   .     S
H368   N404    1.046   .     S
H369   N390    1.046   .     S
H370   N862    1.046   1_545 S
H371   N155    1.045   1_655 S
H372   N391    1.045   .     S
H373   N392    1.045   .     S
H376   N865    1.045   1_545 S
H377   N393    1.045   .     S
H378   N394    1.045   .     S
H379   N866    1.045   .     S
H381   N395    1.046   .     S
H382   N396    1.046   .     S
H383   N160    1.046   1_655 S
N390   H842    1.046   .     S
N392   H139    1.045   1_655 S
N393   H848    1.045   .     S
N394   H851    1.045   1_545 S
N395   H144    1.046   1_655 S
N404   H839    1.046   1_545 S
O405   Zn460   1.936   .     S
O405   Zn457   1.936   .     S
O405   Zn468   1.936   .     S
O405   Zn936   1.936   1_545 S
O406   Zn459   1.952   .     S
O406   C725    1.273   .     S
O407   Zn462   1.952   .     S
O407   C28     1.273   1_655 S
O408   Zn461   1.952   .     S
O409   Zn471   1.952   .     S
O410   Zn470   1.952   .     S
O411   Zn465   1.952   .     S
O412   Zn457   1.952   .     S
O413   Zn467   1.952   .     S
O414   Zn466   1.952   .     S
O415   Zn469   1.952   .     S
O416   Zn465   1.936   .     S
O416   Zn469   1.936   .     S
O416   Zn463   1.936   .     S
O416   Zn931   1.936   1_545 S
O417   Zn468   1.952   .     S
O418   Zn460   1.914   .     S
O419   Zn459   1.914   .     S
O420   Zn462   1.914   .     S
O421   Zn461   1.914   .     S
O422   Zn464   1.914   .     S
O423   Zn463   1.914   .     S
O424   Zn458   1.914   .     S
O425   Zn472   1.914   .     S
O426   Zn459   1.914   .     S
O427   Zn458   1.936   .     S
O427   Zn466   1.936   .     S
O427   Zn470   1.936   .     S
O428   Zn460   1.914   .     S
O429   Zn472   1.914   .     S
O430   Zn458   1.914   .     S
O431   Zn463   1.914   .     S
O432   Zn464   1.914   .     S
O433   Zn461   1.914   .     S
O434   Zn462   1.914   .     S
O435   Zn231   1.914   1_655 S
O436   Zn466   1.914   .     S
O437   Zn941   1.914   .     S
O438   Zn471   1.936   .     S
O438   Zn461   1.936   .     S
O438   Zn467   1.936   .     S
O439   Zn468   1.914   .     S
O440   Zn471   1.914   .     S
O441   Zn234   1.914   1_655 S
O442   Zn465   1.914   .     S
O443   Zn929   1.914   .     S
O444   Zn230   1.914   1_655 S
O445   Zn467   1.914   .     S
O446   Zn457   1.914   .     S
O447   Zn937   1.914   .     S
O448   Zn470   1.914   .     S
O449   C709    1.273   .     A
O449   Zn464   1.952   .     S
O450   Zn235   1.914   1_655 S
O451   Zn940   1.914   .     S
O452   Zn469   1.914   .     S
O453   Zn463   1.952   .     S
O454   Zn458   1.952   .     S
O455   Zn472   1.952   .     S
O456   Zn460   1.952   .     S
Zn457  O915    1.914   1_545 S
Zn459  O888    1.936   .     S
Zn462  O191    1.936   1_655 S
Zn464  O877    1.936   .     S
Zn465  O919    1.914   1_545 S
Zn468  O923    1.914   1_545 S
Zn469  O909    1.914   1_545 S
Zn472  O202    1.936   1_655 S
C473   C532    1.467   .     S
C473   O692    1.273   .     S
C474   O683    1.276   .     A
C474   C508    1.422   .     S
C474   O655    1.276   .     A
C475   C551    1.415   .     A
C475   N628    1.436   .     S
C475   C478    1.404   1_554 S
C476   C552    1.415   .     A
C476   N629    1.436   .     S
C476   C575    1.404   1_556 S
C477   C553    1.415   .     A
C477   N630    1.436   .     S
C477   C574    1.404   1_554 S
C478   N631    1.436   .     S
C478   C554    1.409   .     A
C478   C475    1.404   1_556 S
C479   C556    1.409   .     A
C479   N632    1.436   .     S
C479   C576    1.404   1_554 S
C480   O680    1.276   .     A
C480   C507    1.422   .     S
C480   O656    1.276   .     A
C481   O657    1.276   .     A
C481   O681    1.276   .     A
C481   C506    1.422   .     S
C482   O687    1.276   .     A
C482   O658    1.276   .     A
C482   C505    1.422   .     S
C483   O659    1.276   .     A
C483   C504    1.422   .     S
C483   O688    1.276   .     A
C484   O684    1.276   .     A
C484   C512    1.422   .     S
C484   O660    1.276   .     A
C485   O661    1.276   .     A
C485   O686    1.276   .     A
C485   C510    1.422   .     S
C486   O673    1.276   .     A
C486   O662    1.276   .     A
C486   C501    1.422   .     S
C487   O664    1.276   .     A
C487   C499    1.422   .     S
C487   O675    1.276   .     A
C488   O665    1.276   .     A
C488   O671    1.276   .     A
C488   C498    1.422   .     S
C489   C534    1.467   .     S
C489   O689    1.273   .     A
C490   O666    1.276   .     A
C490   C497    1.422   .     S
C490   O672    1.276   .     A
C491   O667    1.276   .     A
C491   O678    1.276   .     A
C491   C496    1.422   .     S
C492   C495    1.422   .     S
C492   O679    1.276   .     A
C492   O668    1.276   .     A
C493   O676    1.276   .     A
C493   C503    1.422   .     S
C493   O669    1.276   .     A
C494   C502    1.422   .     S
C494   O670    1.276   .     A
C494   O677    1.276   .     A
C495   C512    1.198   .     T
C496   C510    1.198   .     T
C497   C509    1.198   .     T
C498   C508    1.198   .     T
C499   C507    1.198   .     T
C500   O690    1.273   .     A
C500   C766    1.467   1_455 S
C500   O879    1.273   1_455 S
C501   C506    1.198   .     T
C502   C505    1.198   .     T
C503   C504    1.198   .     T
C509   C566    1.422   .     S
C511   O691    1.273   .     A
C511   C531    1.467   .     S
C511   O880    1.273   .     S
C513   H577    1.083   .     S
C513   C530    1.398   .     A
C513   C543    1.400   .     A
C514   C545    1.400   .     A
C514   H588    1.083   .     S
C514   C767    1.398   1_455 S
C515   C546    1.401   .     A
C515   H599    1.081   .     S
C515   C532    1.398   .     S
C516   C547    1.401   .     A
C516   H610    1.083   .     S
C516   C62     1.398   1_565 S
C517   H620    1.083   .     S
C517   C539    1.401   .     A
C517   C766    1.398   1_455 S
C518   C531    1.398   .     A
C518   C540    1.402   .     A
C518   H621    1.081   .     S
C519   C541    1.401   .     A
C519   C60     1.398   1_565 A
C519   H622    1.081   .     S
C520   C534    1.398   .     A
C520   C542    1.401   .     A
C520   H623    1.083   .     S
C521   C63     1.398   1_565 A
C521   H624    1.081   .     S
C521   C552    1.402   .     A
C522   O645    1.273   .     A
C522   O649    1.273   .     A
C522   C537    1.467   .     S
C523   C536    1.398   .     A
C523   C553    1.402   .     A
C523   H578    1.081   .     S
C524   H579    1.083   .     S
C524   C554    1.400   .     A
C524   C773    1.398   .     S
C525   C556    1.400   .     A
C525   H580    1.083   .     S
C525   C538    1.398   .     S
C526   H581    1.083   .     S
C526   C548    1.400   .     A
C526   C535    1.398   .     S
C527   C549    1.400   .     A
C527   H582    1.083   .     S
C527   C64     1.398   1_565 S
C528   C550    1.402   .     A
C528   H583    1.081   .     S
C528   C537    1.398   .     A
C529   C551    1.402   .     A
C529   C774    1.398   .     A
C529   H584    1.081   .     S
C530   C736    1.467   .     S
C530   C753    1.398   .     S
C531   C750    1.398   .     S
C533   C538    1.467   .     S
C533   O646    1.273   .     S
C533   O650    1.273   .     S
C535   C544    1.467   .     S
C536   C555    1.467   .     S
C537   C760    1.398   1_455 S
C538   C765    1.398   1_455 A
C539   C565    1.410   .     A
C539   C793    1.416   1_455 S
C540   C558    1.418   .     A
C540   C567    1.416   .     A
C541   C568    1.416   .     A
C541   C87     1.418   1_565 A
C542   C560    1.416   .     A
C542   C569    1.409   .     A
C543   C557    1.416   .     A
C543   C570    1.409   .     A
C544   O647    1.273   .     S
C544   O651    1.273   .     S
C545   C571    1.410   .     A
C545   C794    1.416   1_455 S
C546   C572    1.416   .     A
C546   C559    1.418   .     S
C547   C573    1.409   .     A
C547   C88     1.416   1_565 S
C548   C561    1.416   .     A
C548   C574    1.409   .     A
C549   C575    1.409   .     A
C549   C90     1.416   1_565 S
C550   C576    1.415   .     A
C550   C563    1.418   .     A
C551   C800    1.418   .     A
C552   C89     1.418   1_565 S
C553   C562    1.418   .     A
C554   C799    1.416   .     S
C555   O648    1.273   .     S
C555   O653    1.273   .     S
C556   C564    1.416   .     S
C557   C558    1.406   .     A
C557   C775    1.416   .     S
C558   C781    1.416   .     S
C559   C560    1.407   .     S
C561   C562    1.407   1_556 S
C562   C561    1.407   1_554 S
C563   C790    1.416   1_455 S
C563   C564    1.407   1_556 S
C564   C787    1.418   1_455 A
C564   C563    1.407   1_554 S
C565   C571    1.411   .     A
C565   N625    1.437   .     S
C566   O682    1.276   .     A
C566   O654    1.276   .     A
C567   C570    1.404   .     A
C567   N633    1.436   .     S
C568   C573    1.404   .     A
C568   N634    1.436   .     S
C569   N635    1.436   .     S
C569   C572    1.404   .     A
C570   N636    1.436   .     S
C571   N637    1.437   .     S
C572   N638    1.436   .     S
C573   N639    1.436   .     S
C574   N640    1.436   .     S
C574   C477    1.404   1_556 S
C575   N626    1.436   .     S
C575   C476    1.404   1_554 S
C576   N627    1.436   .     S
C576   C479    1.404   1_556 S
H585   N625    1.045   .     S
H586   N625    1.045   .     S
H587   N633    1.045   .     S
H589   N633    1.045   .     S
H590   N634    1.045   .     S
H591   N634    1.045   .     S
H592   N635    1.046   .     S
H593   N635    1.046   .     S
H594   N636    1.046   .     S
H595   N636    1.046   .     S
H596   N637    1.045   .     S
H597   N637    1.045   .     S
H598   N638    1.045   .     S
H600   N638    1.045   .     S
H601   N639    1.046   .     S
H602   N639    1.046   .     S
H603   N168    1.046   1_565 S
H604   N640    1.046   .     S
H605   N626    1.046   .     S
H607   N863    1.045   .     S
H608   N627    1.045   .     S
H609   N628    1.045   .     S
H611   N864    1.045   1_455 S
H613   N629    1.045   .     S
H614   N630    1.045   .     S
H615   N158    1.045   1_565 S
H616   N867    1.046   1_455 S
H617   N631    1.046   .     S
H618   N632    1.046   .     S
H619   N868    1.046   .     S
N626   H134    1.046   1_565 S
N627   H843    1.045   1_455 S
N628   H847    1.045   .     S
N629   H140    1.045   1_565 S
N631   H852    1.046   .     S
N632   H855    1.046   1_455 S
O641   Zn696   1.936   .     S
O641   Zn693   1.936   .     S
O641   Zn704   1.936   .     S
O642   Zn695   1.952   .     S
O642   C17     1.273   1_565 S
O643   Zn698   1.952   .     S
O643   C736    1.273   .     S
O644   Zn697   1.952   .     S
O644   C747    1.273   1_455 S
O645   Zn707   1.952   .     S
O646   Zn706   1.952   .     S
O647   Zn701   1.952   .     S
O648   Zn693   1.952   .     S
O649   Zn703   1.952   .     S
O650   Zn702   1.952   .     S
O651   Zn705   1.952   .     S
O652   Zn701   1.936   .     S
O652   Zn705   1.936   .     S
O652   Zn699   1.936   .     S
O653   Zn704   1.952   .     S
O654   Zn696   1.914   .     S
O655   Zn695   1.914   .     S
O656   Zn698   1.914   .     S
O657   Zn697   1.914   .     S
O658   Zn700   1.914   .     S
O659   Zn699   1.914   .     S
O660   Zn694   1.914   .     S
O661   Zn708   1.914   .     S
O662   Zn695   1.914   .     S
O663   Zn694   1.936   .     S
O663   Zn934   1.936   1_455 S
O663   Zn702   1.936   .     S
O663   Zn706   1.936   .     S
O664   Zn696   1.914   .     S
O665   Zn708   1.914   .     S
O666   Zn694   1.914   .     S
O667   Zn699   1.914   .     S
O668   Zn700   1.914   .     S
O669   Zn697   1.914   .     S
O670   Zn698   1.914   .     S
O671   Zn939   1.914   .     S
O672   Zn702   1.914   .     S
O673   Zn233   1.914   1_565 S
O674   Zn707   1.936   .     S
O674   Zn697   1.936   .     S
O674   Zn703   1.936   .     S
O674   Zn944   1.936   1_455 S
O675   Zn704   1.914   .     S
O676   Zn707   1.914   .     S
O677   Zn942   1.914   .     S
O678   Zn701   1.914   .     S
O679   Zn221   1.914   1_565 S
O680   Zn938   1.914   .     S
O681   Zn703   1.914   .     S
O682   Zn693   1.914   .     S
O683   Zn229   1.914   1_565 S
O684   Zn706   1.914   .     S
O685   C1      1.273   1_565 A
O685   Zn700   1.952   .     S
O686   Zn943   1.914   .     S
O687   Zn232   1.914   1_565 S
O688   Zn705   1.914   .     S
O689   Zn699   1.952   .     S
O690   Zn694   1.952   .     S
O691   Zn708   1.952   .     S
O692   Zn696   1.952   .     S
Zn695  O180    1.936   1_565 S
Zn698  O899    1.936   .     S
Zn700  O169    1.936   1_565 S
Zn702  O916    1.914   1_455 S
Zn703  O907    1.914   1_455 S
Zn706  O913    1.914   1_455 S
Zn707  O922    1.914   1_455 S
Zn708  O910    1.936   .     S
C709   C768    1.467   .     S
C709   O928    1.273   .     S
C710   O919    1.276   .     A
C710   C744    1.422   .     S
C710   O891    1.276   .     A
C711   C787    1.415   .     A
C711   N864    1.436   .     S
C711   C714    1.404   1_554 S
C712   C788    1.415   .     A
C712   N865    1.436   .     S
C712   C811    1.404   1_556 S
C713   C789    1.415   .     A
C713   N866    1.436   .     S
C713   C810    1.404   1_554 S
C714   N867    1.436   .     S
C714   C790    1.409   .     A
C714   C711    1.404   1_556 S
C715   C792    1.409   .     A
C715   N868    1.436   .     S
C715   C812    1.404   1_554 S
C716   O916    1.276   .     A
C716   C743    1.422   .     S
C716   O892    1.276   .     A
C717   O893    1.276   .     A
C717   O917    1.276   .     A
C717   C742    1.422   .     S
C718   O923    1.276   .     A
C718   O894    1.276   .     A
C718   C741    1.422   .     S
C719   O895    1.276   .     A
C719   C740    1.422   .     S
C719   O924    1.276   .     A
C720   O920    1.276   .     A
C720   C748    1.422   .     S
C720   O896    1.276   .     A
C721   O897    1.276   .     A
C721   O922    1.276   .     A
C721   C746    1.422   .     S
C722   O909    1.276   .     A
C722   O898    1.276   .     A
C722   C737    1.422   .     S
C723   O900    1.276   .     A
C723   C735    1.422   .     S
C723   O911    1.276   .     A
C724   O901    1.276   .     A
C724   O907    1.276   .     A
C724   C734    1.422   .     S
C725   C770    1.467   .     S
C725   O925    1.273   .     A
C726   O902    1.276   .     A
C726   C733    1.422   .     S
C726   O908    1.276   .     A
C727   O903    1.276   .     A
C727   O914    1.276   .     A
C727   C732    1.422   .     S
C728   C731    1.422   .     S
C728   O915    1.276   .     A
C728   O904    1.276   .     A
C729   O912    1.276   .     A
C729   C739    1.422   .     S
C729   O905    1.276   .     A
C730   C738    1.422   .     S
C730   O906    1.276   .     A
C730   O913    1.276   .     A
C731   C748    1.198   .     T
C732   C746    1.198   .     T
C733   C745    1.198   .     T
C734   C744    1.198   .     T
C735   C743    1.198   .     T
C736   O926    1.273   .     A
C737   C742    1.198   .     T
C738   C741    1.198   .     T
C739   C740    1.198   .     T
C745   C802    1.422   .     S
C747   O927    1.273   .     A
C747   C767    1.467   .     S
C747   O644    1.273   1_655 S
C749   H813    1.083   .     S
C749   C766    1.398   .     A
C749   C779    1.400   .     A
C750   C781    1.400   .     A
C750   H824    1.083   .     S
C751   C782    1.401   .     A
C751   H835    1.081   .     S
C751   C768    1.398   .     S
C752   C783    1.401   .     A
C752   H846    1.083   .     S
C752   C298    1.398   1_565 S
C753   H856    1.083   .     S
C753   C775    1.401   .     A
C754   C767    1.398   .     A
C754   C776    1.402   .     A
C754   H857    1.081   .     S
C755   C777    1.401   .     A
C755   C296    1.398   1_565 A
C755   H858    1.081   .     S
C756   C770    1.398   .     A
C756   C778    1.401   .     A
C756   H859    1.083   .     S
C757   C299    1.398   1_565 A
C757   H860    1.081   .     S
C757   C788    1.402   .     A
C758   O881    1.273   .     A
C758   O885    1.273   .     A
C758   C773    1.467   .     S
C759   C772    1.398   .     A
C759   C789    1.402   .     A
C759   H814    1.081   .     S
C760   H815    1.083   .     S
C760   C790    1.400   .     A
C760   C537    1.398   1_655 S
C761   C792    1.400   .     A
C761   H816    1.083   .     S
C761   C774    1.398   .     S
C762   H817    1.083   .     S
C762   C784    1.400   .     A
C762   C771    1.398   .     S
C763   C785    1.400   .     A
C763   H818    1.083   .     S
C763   C300    1.398   1_565 S
C764   C786    1.402   .     A
C764   H819    1.081   .     S
C764   C773    1.398   .     A
C765   C787    1.402   .     A
C765   C538    1.398   1_655 A
C765   H820    1.081   .     S
C766   C500    1.467   1_655 S
C766   C517    1.398   1_655 S
C767   C514    1.398   1_655 S
C769   C774    1.467   .     S
C769   O882    1.273   .     S
C769   O886    1.273   .     S
C771   C780    1.467   .     S
C772   C791    1.467   .     S
C775   C801    1.410   .     A
C776   C794    1.418   .     A
C776   C803    1.416   .     A
C777   C804    1.416   .     A
C777   C323    1.418   1_565 A
C778   C796    1.416   .     A
C778   C805    1.409   .     A
C779   C793    1.416   .     A
C779   C806    1.409   .     A
C780   O883    1.273   .     S
C780   O887    1.273   .     S
C781   C807    1.410   .     A
C782   C808    1.416   .     A
C782   C795    1.418   .     S
C783   C809    1.409   .     A
C783   C324    1.416   1_565 S
C784   C797    1.416   .     A
C784   C810    1.409   .     A
C785   C811    1.409   .     A
C785   C326    1.416   1_565 S
C786   C812    1.415   .     A
C786   C799    1.418   .     A
C787   C564    1.418   1_655 A
C788   C325    1.418   1_565 S
C789   C798    1.418   .     A
C790   C563    1.416   1_655 S
C791   O884    1.273   .     S
C791   O889    1.273   .     S
C792   C800    1.416   .     S
C793   C794    1.406   .     A
C793   C539    1.416   1_655 S
C794   C545    1.416   1_655 S
C795   C796    1.407   .     S
C797   C798    1.407   1_556 S
C798   C797    1.407   1_554 S
C799   C800    1.407   1_556 S
C800   C799    1.407   1_554 S
C801   C807    1.411   .     A
C801   N861    1.437   .     S
C802   O918    1.276   .     A
C802   O890    1.276   .     A
C803   C806    1.404   .     A
C803   N869    1.436   .     S
C804   C809    1.404   .     A
C804   N870    1.436   .     S
C805   N871    1.436   .     S
C805   C808    1.404   .     A
C806   N872    1.436   .     S
C807   N873    1.437   .     S
C808   N874    1.436   .     S
C809   N875    1.436   .     S
C810   N876    1.436   .     S
C810   C713    1.404   1_556 S
C811   N862    1.436   .     S
C811   C712    1.404   1_554 S
C812   N863    1.436   .     S
C812   C715    1.404   1_556 S
H821   N861    1.045   .     S
H822   N861    1.045   .     S
H823   N869    1.045   .     S
H825   N869    1.045   .     S
H826   N870    1.045   .     S
H827   N870    1.045   .     S
H828   N871    1.046   .     S
H829   N871    1.046   .     S
H830   N872    1.046   .     S
H831   N872    1.046   .     S
H832   N873    1.045   .     S
H833   N873    1.045   .     S
H834   N874    1.045   .     S
H836   N874    1.045   .     S
H837   N875    1.046   .     S
H838   N875    1.046   .     S
H839   N404    1.046   1_565 S
H840   N876    1.046   .     S
H841   N862    1.046   .     S
H843   N627    1.045   1_655 S
H844   N863    1.045   .     S
H845   N864    1.045   .     S
H849   N865    1.045   .     S
H850   N866    1.045   .     S
H851   N394    1.045   1_565 S
H853   N867    1.046   .     S
H854   N868    1.046   .     S
H855   N632    1.046   1_655 S
N862   H370    1.046   1_565 S
N864   H611    1.045   1_655 S
N865   H376    1.045   1_565 S
N867   H616    1.046   1_655 S
O877   Zn932   1.936   .     S
O877   Zn929   1.936   .     S
O877   Zn940   1.936   .     S
O878   Zn931   1.952   .     S
O878   C253    1.273   1_565 S
O879   Zn934   1.952   .     S
O879   C500    1.273   1_655 S
O880   Zn933   1.952   .     S
O881   Zn943   1.952   .     S
O882   Zn942   1.952   .     S
O883   Zn937   1.952   .     S
O884   Zn929   1.952   .     S
O885   Zn939   1.952   .     S
O886   Zn938   1.952   .     S
O887   Zn941   1.952   .     S
O888   Zn937   1.936   .     S
O888   Zn941   1.936   .     S
O888   Zn935   1.936   .     S
O889   Zn940   1.952   .     S
O890   Zn932   1.914   .     S
O891   Zn931   1.914   .     S
O892   Zn934   1.914   .     S
O893   Zn933   1.914   .     S
O894   Zn936   1.914   .     S
O895   Zn935   1.914   .     S
O896   Zn930   1.914   .     S
O897   Zn944   1.914   .     S
O898   Zn931   1.914   .     S
O899   Zn930   1.936   .     S
O899   Zn938   1.936   .     S
O899   Zn942   1.936   .     S
O900   Zn932   1.914   .     S
O901   Zn944   1.914   .     S
O902   Zn930   1.914   .     S
O903   Zn935   1.914   .     S
O904   Zn936   1.914   .     S
O905   Zn933   1.914   .     S
O906   Zn934   1.914   .     S
O907   Zn703   1.914   1_655 S
O908   Zn938   1.914   .     S
O909   Zn469   1.914   1_565 S
O910   Zn943   1.936   .     S
O910   Zn933   1.936   .     S
O910   Zn939   1.936   .     S
O911   Zn940   1.914   .     S
O912   Zn943   1.914   .     S
O913   Zn706   1.914   1_655 S
O914   Zn937   1.914   .     S
O915   Zn457   1.914   1_565 S
O916   Zn702   1.914   1_655 S
O917   Zn939   1.914   .     S
O918   Zn929   1.914   .     S
O919   Zn465   1.914   1_565 S
O920   Zn942   1.914   .     S
O921   C237    1.273   1_565 A
O921   Zn936   1.952   .     S
O922   Zn707   1.914   1_655 S
O923   Zn468   1.914   1_565 S
O924   Zn941   1.914   .     S
O925   Zn935   1.952   .     S
O926   Zn930   1.952   .     S
O927   Zn944   1.952   .     S
O928   Zn932   1.952   .     S
Zn931  O416    1.936   1_565 S
Zn934  O663    1.936   1_655 S
Zn936  O405    1.936   1_565 S
Zn944  O674    1.936   1_655 S
