data_str_m2_o2_o10_pcu_sym.136
_audit_creation_date              2020-01-03
_audit_creation_method            'Materials Studio'
_symmetry_space_group_name_H-M    'P1'
_symmetry_Int_Tables_number       1
_symmetry_cell_setting            triclinic
loop_
_symmetry_equiv_pos_as_xyz
  x,y,z
_cell_length_a                    26.1719
_cell_length_b                    30.2412
_cell_length_c                    27.8555
_cell_angle_alpha                 88.5705
_cell_angle_beta                  97.4299
_cell_angle_gamma                 91.2796
loop_
_atom_site_label
_atom_site_type_symbol
_atom_site_fract_x
_atom_site_fract_y
_atom_site_fract_z
_atom_site_U_iso_or_equiv
_atom_site_adp_type
_atom_site_occupancy
C1     C     0.16709   0.16522   0.25063   0.00000  Uiso   1.00
C2     C     0.16639   0.33531   0.24926   0.00000  Uiso   1.00
C3     C     0.20566   0.26851   0.05709   0.00000  Uiso   1.00
C4     C     0.14474   0.21627   0.44519   0.00000  Uiso   1.00
C5     C     0.20560   0.26993   0.10735   0.00000  Uiso   1.00
C6     C     0.14352   0.21639   0.39469   0.00000  Uiso   1.00
C7     C     0.12503   0.23257   0.10088   0.00000  Uiso   1.00
C8     C     0.18682   0.28568   0.39621   0.00000  Uiso   1.00
C9     C     0.12110   0.23490   0.04979   0.00000  Uiso   1.00
C10    C     0.18382   0.28891   0.44628   0.00000  Uiso   1.00
C11    C     0.16285   0.25227   0.02674   0.00000  Uiso   1.00
C12    C     0.16353   0.25299   0.47225   0.00000  Uiso   1.00
C13    C     0.06801   0.24945   0.23773   0.00000  Uiso   1.00
C14    C     0.26534   0.24985   0.26233   0.00000  Uiso   1.00
C15    C     0.01285   0.24823   0.23101   0.00000  Uiso   1.00
C16    C     0.32055   0.24993   0.26920   0.00000  Uiso   1.00
C17    C     0.21050   0.04859   0.27794   0.00000  Uiso   1.00
C18    C     0.16920   0.45615   0.20639   0.00000  Uiso   1.00
C19    C     0.21016   0.09496   0.27786   0.00000  Uiso   1.00
C20    C     0.16734   0.40980   0.20450   0.00000  Uiso   1.00
C21    C     0.16813   0.11733   0.25232   0.00000  Uiso   1.00
C22    C     0.16618   0.38421   0.24794   0.00000  Uiso   1.00
C23    C     0.12646   0.09387   0.22807   0.00000  Uiso   1.00
C24    C     0.16516   0.40597   0.29180   0.00000  Uiso   1.00
C25    C     0.12622   0.04803   0.22908   0.00000  Uiso   1.00
C26    C     0.16559   0.45176   0.29309   0.00000  Uiso   1.00
C27    C     0.16830   0.02523   0.25324   0.00000  Uiso   1.00
C28    C     0.16803   0.47694   0.25078   0.00000  Uiso   1.00
Cu29   Cu    0.16667   0.25000   0.29822   0.00000  Uiso   1.00
Cu30   Cu    0.16667   0.25001   0.20178   0.00000  Uiso   1.00
H31    H     0.32662   0.24582   0.19432   0.00000  Uiso   1.00
H32    H     0.00689   0.25178   0.30598   0.00000  Uiso   1.00
H33    H     0.23910   0.28140   0.04186   0.00000  Uiso   1.00
H34    H     0.12969   0.18751   0.46295   0.00000  Uiso   1.00
N35    N     0.16667   0.25001   0.12934   0.00000  Uiso   1.00
N36    N     0.16667   0.24999   0.37066   0.00000  Uiso   1.00
O37    O     0.16667   0.18573   0.29072   0.00000  Uiso   1.00
O38    O     0.16666   0.31428   0.20928   0.00000  Uiso   1.00
O39    O     0.16667   0.18573   0.20928   0.00000  Uiso   1.00
O40    O     0.16666   0.31427   0.29072   0.00000  Uiso   1.00
O41    O     0.09161   0.25000   0.28132   0.00000  Uiso   1.00
O42    O     0.24172   0.25001   0.21868   0.00000  Uiso   1.00
O43    O     0.09161   0.25000   0.19989   0.00000  Uiso   1.00
O44    O     0.24172   0.25000   0.30011   0.00000  Uiso   1.00
Cl45   Cl    0.26467   0.02014   0.30690   0.00000  Uiso   1.00
Cl46   Cl    0.17468   0.48827   0.15317   0.00000  Uiso   1.00
Cl47   Cl    0.26333   0.12492   0.30763   0.00000  Uiso   1.00
Cl48   Cl    0.16564   0.38585   0.14694   0.00000  Uiso   1.00
H49    H     0.09396   0.11112   0.20868   0.00000  Uiso   1.00
H50    H     0.16384   0.38760   0.32552   0.00000  Uiso   1.00
H51    H     0.09357   0.03016   0.21027   0.00000  Uiso   1.00
H52    H     0.16425   0.46772   0.32730   0.00000  Uiso   1.00
Cl53   Cl    0.25447   0.30252   0.13897   0.00000  Uiso   1.00
Cl54   Cl    0.10673   0.17396   0.36419   0.00000  Uiso   1.00
H55    H     0.09337   0.21823   0.11769   0.00000  Uiso   1.00
H56    H     0.20367   0.31293   0.37747   0.00000  Uiso   1.00
Cl57   Cl    0.06150   0.21929   0.01716   0.00000  Uiso   1.00
Cl58   Cl    0.20177   0.34007   0.47305   0.00000  Uiso   1.00
C59    C     0.50042   0.16522   0.25063   0.00000  Uiso   1.00
C60    C     0.49973   0.33531   0.24926   0.00000  Uiso   1.00
C61    C     0.53899   0.26851   0.05709   0.00000  Uiso   1.00
C62    C     0.47807   0.21627   0.44519   0.00000  Uiso   1.00
C63    C     0.53893   0.26993   0.10735   0.00000  Uiso   1.00
C64    C     0.47685   0.21639   0.39469   0.00000  Uiso   1.00
C65    C     0.45837   0.23257   0.10088   0.00000  Uiso   1.00
C66    C     0.52015   0.28568   0.39621   0.00000  Uiso   1.00
C67    C     0.45444   0.23490   0.04979   0.00000  Uiso   1.00
C68    C     0.51715   0.28891   0.44628   0.00000  Uiso   1.00
C69    C     0.49618   0.25227   0.02674   0.00000  Uiso   1.00
C70    C     0.49686   0.25299   0.47225   0.00000  Uiso   1.00
C71    C     0.40135   0.24945   0.23773   0.00000  Uiso   1.00
C72    C     0.59867   0.24985   0.26233   0.00000  Uiso   1.00
C73    C     0.34618   0.24823   0.23101   0.00000  Uiso   1.00
C74    C     0.65389   0.24993   0.26920   0.00000  Uiso   1.00
C75    C     0.54384   0.04859   0.27794   0.00000  Uiso   1.00
C76    C     0.50254   0.45615   0.20639   0.00000  Uiso   1.00
C77    C     0.54350   0.09496   0.27786   0.00000  Uiso   1.00
C78    C     0.50067   0.40980   0.20450   0.00000  Uiso   1.00
C79    C     0.50147   0.11733   0.25232   0.00000  Uiso   1.00
C80    C     0.49952   0.38421   0.24794   0.00000  Uiso   1.00
C81    C     0.45980   0.09387   0.22807   0.00000  Uiso   1.00
C82    C     0.49850   0.40597   0.29180   0.00000  Uiso   1.00
C83    C     0.45956   0.04803   0.22908   0.00000  Uiso   1.00
C84    C     0.49893   0.45176   0.29309   0.00000  Uiso   1.00
C85    C     0.50163   0.02523   0.25324   0.00000  Uiso   1.00
C86    C     0.50136   0.47694   0.25078   0.00000  Uiso   1.00
Cu87   Cu    0.50000   0.25000   0.29822   0.00000  Uiso   1.00
Cu88   Cu    0.50000   0.25001   0.20178   0.00000  Uiso   1.00
H89    H     0.65995   0.24582   0.19432   0.00000  Uiso   1.00
H90    H     0.34022   0.25178   0.30598   0.00000  Uiso   1.00
H91    H     0.57243   0.28140   0.04186   0.00000  Uiso   1.00
H92    H     0.46302   0.18751   0.46295   0.00000  Uiso   1.00
N93    N     0.50000   0.25001   0.12934   0.00000  Uiso   1.00
N94    N     0.50000   0.24999   0.37066   0.00000  Uiso   1.00
O95    O     0.50000   0.18573   0.29072   0.00000  Uiso   1.00
O96    O     0.50000   0.31428   0.20928   0.00000  Uiso   1.00
O97    O     0.50000   0.18573   0.20928   0.00000  Uiso   1.00
O98    O     0.50000   0.31427   0.29072   0.00000  Uiso   1.00
O99    O     0.42495   0.25000   0.28132   0.00000  Uiso   1.00
O100   O     0.57505   0.25001   0.21868   0.00000  Uiso   1.00
O101   O     0.42495   0.25000   0.19989   0.00000  Uiso   1.00
O102   O     0.57505   0.25000   0.30011   0.00000  Uiso   1.00
Cl103  Cl    0.59801   0.02014   0.30690   0.00000  Uiso   1.00
Cl104  Cl    0.50801   0.48827   0.15317   0.00000  Uiso   1.00
Cl105  Cl    0.59667   0.12492   0.30763   0.00000  Uiso   1.00
Cl106  Cl    0.49897   0.38585   0.14694   0.00000  Uiso   1.00
H107   H     0.42729   0.11112   0.20868   0.00000  Uiso   1.00
H108   H     0.49717   0.38760   0.32552   0.00000  Uiso   1.00
H109   H     0.42691   0.03016   0.21027   0.00000  Uiso   1.00
H110   H     0.49758   0.46772   0.32730   0.00000  Uiso   1.00
Cl111  Cl    0.58780   0.30252   0.13897   0.00000  Uiso   1.00
Cl112  Cl    0.44006   0.17396   0.36419   0.00000  Uiso   1.00
H113   H     0.42670   0.21823   0.11769   0.00000  Uiso   1.00
H114   H     0.53700   0.31293   0.37747   0.00000  Uiso   1.00
Cl115  Cl    0.39483   0.21929   0.01716   0.00000  Uiso   1.00
Cl116  Cl    0.53510   0.34007   0.47305   0.00000  Uiso   1.00
C117   C     0.83375   0.16522   0.25063   0.00000  Uiso   1.00
C118   C     0.83306   0.33531   0.24926   0.00000  Uiso   1.00
C119   C     0.87233   0.26851   0.05709   0.00000  Uiso   1.00
C120   C     0.81140   0.21627   0.44519   0.00000  Uiso   1.00
C121   C     0.87226   0.26993   0.10735   0.00000  Uiso   1.00
C122   C     0.81019   0.21639   0.39469   0.00000  Uiso   1.00
C123   C     0.79170   0.23257   0.10088   0.00000  Uiso   1.00
C124   C     0.85348   0.28568   0.39621   0.00000  Uiso   1.00
C125   C     0.78777   0.23490   0.04979   0.00000  Uiso   1.00
C126   C     0.85048   0.28891   0.44628   0.00000  Uiso   1.00
C127   C     0.82952   0.25227   0.02674   0.00000  Uiso   1.00
C128   C     0.83019   0.25299   0.47225   0.00000  Uiso   1.00
C129   C     0.73468   0.24945   0.23773   0.00000  Uiso   1.00
C130   C     0.93201   0.24985   0.26233   0.00000  Uiso   1.00
C131   C     0.67952   0.24823   0.23101   0.00000  Uiso   1.00
C132   C     0.98722   0.24993   0.26920   0.00000  Uiso   1.00
C133   C     0.87717   0.04859   0.27794   0.00000  Uiso   1.00
C134   C     0.83587   0.45615   0.20639   0.00000  Uiso   1.00
C135   C     0.87683   0.09496   0.27786   0.00000  Uiso   1.00
C136   C     0.83401   0.40980   0.20450   0.00000  Uiso   1.00
C137   C     0.83480   0.11733   0.25232   0.00000  Uiso   1.00
C138   C     0.83285   0.38421   0.24794   0.00000  Uiso   1.00
C139   C     0.79313   0.09387   0.22807   0.00000  Uiso   1.00
C140   C     0.83183   0.40597   0.29180   0.00000  Uiso   1.00
C141   C     0.79289   0.04803   0.22908   0.00000  Uiso   1.00
C142   C     0.83226   0.45176   0.29309   0.00000  Uiso   1.00
C143   C     0.83497   0.02523   0.25324   0.00000  Uiso   1.00
C144   C     0.83470   0.47694   0.25078   0.00000  Uiso   1.00
Cu145  Cu    0.83333   0.25000   0.29822   0.00000  Uiso   1.00
Cu146  Cu    0.83333   0.25001   0.20178   0.00000  Uiso   1.00
H147   H     0.99329   0.24582   0.19432   0.00000  Uiso   1.00
H148   H     0.67356   0.25178   0.30598   0.00000  Uiso   1.00
H149   H     0.90576   0.28140   0.04186   0.00000  Uiso   1.00
H150   H     0.79635   0.18751   0.46295   0.00000  Uiso   1.00
N151   N     0.83333   0.25001   0.12934   0.00000  Uiso   1.00
N152   N     0.83333   0.24999   0.37066   0.00000  Uiso   1.00
O153   O     0.83334   0.18573   0.29072   0.00000  Uiso   1.00
O154   O     0.83333   0.31428   0.20928   0.00000  Uiso   1.00
O155   O     0.83334   0.18573   0.20928   0.00000  Uiso   1.00
O156   O     0.83333   0.31427   0.29072   0.00000  Uiso   1.00
O157   O     0.75828   0.25000   0.28132   0.00000  Uiso   1.00
O158   O     0.90839   0.25001   0.21868   0.00000  Uiso   1.00
O159   O     0.75828   0.25000   0.19989   0.00000  Uiso   1.00
O160   O     0.90839   0.25000   0.30011   0.00000  Uiso   1.00
Cl161  Cl    0.93134   0.02014   0.30690   0.00000  Uiso   1.00
Cl162  Cl    0.84135   0.48827   0.15317   0.00000  Uiso   1.00
Cl163  Cl    0.93000   0.12492   0.30763   0.00000  Uiso   1.00
Cl164  Cl    0.83231   0.38585   0.14694   0.00000  Uiso   1.00
H165   H     0.76063   0.11112   0.20868   0.00000  Uiso   1.00
H166   H     0.83051   0.38760   0.32552   0.00000  Uiso   1.00
H167   H     0.76024   0.03016   0.21027   0.00000  Uiso   1.00
H168   H     0.83092   0.46772   0.32730   0.00000  Uiso   1.00
Cl169  Cl    0.92114   0.30252   0.13897   0.00000  Uiso   1.00
Cl170  Cl    0.77339   0.17396   0.36419   0.00000  Uiso   1.00
H171   H     0.76003   0.21823   0.11769   0.00000  Uiso   1.00
H172   H     0.87033   0.31293   0.37747   0.00000  Uiso   1.00
Cl173  Cl    0.72817   0.21929   0.01716   0.00000  Uiso   1.00
Cl174  Cl    0.86843   0.34007   0.47305   0.00000  Uiso   1.00
C175   C     0.16709   0.66522   0.25063   0.00000  Uiso   1.00
C176   C     0.16639   0.83531   0.24926   0.00000  Uiso   1.00
C177   C     0.20566   0.76851   0.05709   0.00000  Uiso   1.00
C178   C     0.14474   0.71627   0.44519   0.00000  Uiso   1.00
C179   C     0.20560   0.76993   0.10735   0.00000  Uiso   1.00
C180   C     0.14352   0.71639   0.39469   0.00000  Uiso   1.00
C181   C     0.12503   0.73257   0.10088   0.00000  Uiso   1.00
C182   C     0.18682   0.78568   0.39621   0.00000  Uiso   1.00
C183   C     0.12110   0.73490   0.04979   0.00000  Uiso   1.00
C184   C     0.18382   0.78891   0.44628   0.00000  Uiso   1.00
C185   C     0.16285   0.75227   0.02674   0.00000  Uiso   1.00
C186   C     0.16353   0.75299   0.47225   0.00000  Uiso   1.00
C187   C     0.06801   0.74945   0.23773   0.00000  Uiso   1.00
C188   C     0.26534   0.74985   0.26233   0.00000  Uiso   1.00
C189   C     0.01285   0.74823   0.23101   0.00000  Uiso   1.00
C190   C     0.32055   0.74993   0.26920   0.00000  Uiso   1.00
C191   C     0.21050   0.54859   0.27794   0.00000  Uiso   1.00
C192   C     0.16920   0.95615   0.20639   0.00000  Uiso   1.00
C193   C     0.21016   0.59496   0.27786   0.00000  Uiso   1.00
C194   C     0.16734   0.90980   0.20450   0.00000  Uiso   1.00
C195   C     0.16813   0.61733   0.25232   0.00000  Uiso   1.00
C196   C     0.16618   0.88421   0.24794   0.00000  Uiso   1.00
C197   C     0.12646   0.59387   0.22807   0.00000  Uiso   1.00
C198   C     0.16516   0.90597   0.29180   0.00000  Uiso   1.00
C199   C     0.12622   0.54803   0.22908   0.00000  Uiso   1.00
C200   C     0.16559   0.95176   0.29309   0.00000  Uiso   1.00
C201   C     0.16830   0.52523   0.25324   0.00000  Uiso   1.00
C202   C     0.16803   0.97694   0.25078   0.00000  Uiso   1.00
Cu203  Cu    0.16667   0.75000   0.29822   0.00000  Uiso   1.00
Cu204  Cu    0.16667   0.75001   0.20178   0.00000  Uiso   1.00
H205   H     0.32662   0.74582   0.19432   0.00000  Uiso   1.00
H206   H     0.00689   0.75178   0.30598   0.00000  Uiso   1.00
H207   H     0.23910   0.78140   0.04186   0.00000  Uiso   1.00
H208   H     0.12969   0.68751   0.46295   0.00000  Uiso   1.00
N209   N     0.16667   0.75001   0.12934   0.00000  Uiso   1.00
N210   N     0.16667   0.74999   0.37066   0.00000  Uiso   1.00
O211   O     0.16667   0.68573   0.29072   0.00000  Uiso   1.00
O212   O     0.16666   0.81428   0.20928   0.00000  Uiso   1.00
O213   O     0.16667   0.68573   0.20928   0.00000  Uiso   1.00
O214   O     0.16666   0.81427   0.29072   0.00000  Uiso   1.00
O215   O     0.09161   0.75000   0.28132   0.00000  Uiso   1.00
O216   O     0.24172   0.75001   0.21868   0.00000  Uiso   1.00
O217   O     0.09161   0.75000   0.19989   0.00000  Uiso   1.00
O218   O     0.24172   0.75000   0.30011   0.00000  Uiso   1.00
Cl219  Cl    0.26467   0.52014   0.30690   0.00000  Uiso   1.00
Cl220  Cl    0.17468   0.98827   0.15317   0.00000  Uiso   1.00
Cl221  Cl    0.26333   0.62492   0.30763   0.00000  Uiso   1.00
Cl222  Cl    0.16564   0.88585   0.14694   0.00000  Uiso   1.00
H223   H     0.09396   0.61112   0.20868   0.00000  Uiso   1.00
H224   H     0.16384   0.88760   0.32552   0.00000  Uiso   1.00
H225   H     0.09357   0.53016   0.21027   0.00000  Uiso   1.00
H226   H     0.16425   0.96772   0.32730   0.00000  Uiso   1.00
Cl227  Cl    0.25447   0.80252   0.13897   0.00000  Uiso   1.00
Cl228  Cl    0.10673   0.67396   0.36419   0.00000  Uiso   1.00
H229   H     0.09337   0.71823   0.11769   0.00000  Uiso   1.00
H230   H     0.20367   0.81293   0.37747   0.00000  Uiso   1.00
Cl231  Cl    0.06150   0.71929   0.01716   0.00000  Uiso   1.00
Cl232  Cl    0.20177   0.84007   0.47305   0.00000  Uiso   1.00
C233   C     0.50042   0.66522   0.25063   0.00000  Uiso   1.00
C234   C     0.49973   0.83531   0.24926   0.00000  Uiso   1.00
C235   C     0.53899   0.76851   0.05709   0.00000  Uiso   1.00
C236   C     0.47807   0.71627   0.44519   0.00000  Uiso   1.00
C237   C     0.53893   0.76993   0.10735   0.00000  Uiso   1.00
C238   C     0.47685   0.71639   0.39469   0.00000  Uiso   1.00
C239   C     0.45837   0.73257   0.10088   0.00000  Uiso   1.00
C240   C     0.52015   0.78568   0.39621   0.00000  Uiso   1.00
C241   C     0.45444   0.73490   0.04979   0.00000  Uiso   1.00
C242   C     0.51715   0.78891   0.44628   0.00000  Uiso   1.00
C243   C     0.49618   0.75227   0.02674   0.00000  Uiso   1.00
C244   C     0.49686   0.75299   0.47225   0.00000  Uiso   1.00
C245   C     0.40135   0.74945   0.23773   0.00000  Uiso   1.00
C246   C     0.59867   0.74985   0.26233   0.00000  Uiso   1.00
C247   C     0.34618   0.74823   0.23101   0.00000  Uiso   1.00
C248   C     0.65389   0.74993   0.26920   0.00000  Uiso   1.00
C249   C     0.54384   0.54859   0.27794   0.00000  Uiso   1.00
C250   C     0.50254   0.95615   0.20639   0.00000  Uiso   1.00
C251   C     0.54350   0.59496   0.27786   0.00000  Uiso   1.00
C252   C     0.50067   0.90980   0.20450   0.00000  Uiso   1.00
C253   C     0.50147   0.61733   0.25232   0.00000  Uiso   1.00
C254   C     0.49952   0.88421   0.24794   0.00000  Uiso   1.00
C255   C     0.45980   0.59387   0.22807   0.00000  Uiso   1.00
C256   C     0.49850   0.90597   0.29180   0.00000  Uiso   1.00
C257   C     0.45956   0.54803   0.22908   0.00000  Uiso   1.00
C258   C     0.49893   0.95176   0.29309   0.00000  Uiso   1.00
C259   C     0.50163   0.52523   0.25324   0.00000  Uiso   1.00
C260   C     0.50136   0.97694   0.25078   0.00000  Uiso   1.00
Cu261  Cu    0.50000   0.75000   0.29822   0.00000  Uiso   1.00
Cu262  Cu    0.50000   0.75001   0.20178   0.00000  Uiso   1.00
H263   H     0.65995   0.74582   0.19432   0.00000  Uiso   1.00
H264   H     0.34022   0.75178   0.30598   0.00000  Uiso   1.00
H265   H     0.57243   0.78140   0.04186   0.00000  Uiso   1.00
H266   H     0.46302   0.68751   0.46295   0.00000  Uiso   1.00
N267   N     0.50000   0.75001   0.12934   0.00000  Uiso   1.00
N268   N     0.50000   0.74999   0.37066   0.00000  Uiso   1.00
O269   O     0.50000   0.68573   0.29072   0.00000  Uiso   1.00
O270   O     0.50000   0.81428   0.20928   0.00000  Uiso   1.00
O271   O     0.50000   0.68573   0.20928   0.00000  Uiso   1.00
O272   O     0.50000   0.81427   0.29072   0.00000  Uiso   1.00
O273   O     0.42495   0.75000   0.28132   0.00000  Uiso   1.00
O274   O     0.57505   0.75001   0.21868   0.00000  Uiso   1.00
O275   O     0.42495   0.75000   0.19989   0.00000  Uiso   1.00
O276   O     0.57505   0.75000   0.30011   0.00000  Uiso   1.00
Cl277  Cl    0.59801   0.52014   0.30690   0.00000  Uiso   1.00
Cl278  Cl    0.50801   0.98827   0.15317   0.00000  Uiso   1.00
Cl279  Cl    0.59667   0.62492   0.30763   0.00000  Uiso   1.00
Cl280  Cl    0.49897   0.88585   0.14694   0.00000  Uiso   1.00
H281   H     0.42729   0.61112   0.20868   0.00000  Uiso   1.00
H282   H     0.49717   0.88760   0.32552   0.00000  Uiso   1.00
H283   H     0.42691   0.53016   0.21027   0.00000  Uiso   1.00
H284   H     0.49758   0.96772   0.32730   0.00000  Uiso   1.00
Cl285  Cl    0.58780   0.80252   0.13897   0.00000  Uiso   1.00
Cl286  Cl    0.44006   0.67396   0.36419   0.00000  Uiso   1.00
H287   H     0.42670   0.71823   0.11769   0.00000  Uiso   1.00
H288   H     0.53700   0.81293   0.37747   0.00000  Uiso   1.00
Cl289  Cl    0.39483   0.71929   0.01716   0.00000  Uiso   1.00
Cl290  Cl    0.53510   0.84007   0.47305   0.00000  Uiso   1.00
C291   C     0.83375   0.66522   0.25063   0.00000  Uiso   1.00
C292   C     0.83306   0.83531   0.24926   0.00000  Uiso   1.00
C293   C     0.87233   0.76851   0.05709   0.00000  Uiso   1.00
C294   C     0.81140   0.71627   0.44519   0.00000  Uiso   1.00
C295   C     0.87226   0.76993   0.10735   0.00000  Uiso   1.00
C296   C     0.81019   0.71639   0.39469   0.00000  Uiso   1.00
C297   C     0.79170   0.73257   0.10088   0.00000  Uiso   1.00
C298   C     0.85348   0.78568   0.39621   0.00000  Uiso   1.00
C299   C     0.78777   0.73490   0.04979   0.00000  Uiso   1.00
C300   C     0.85048   0.78891   0.44628   0.00000  Uiso   1.00
C301   C     0.82952   0.75227   0.02674   0.00000  Uiso   1.00
C302   C     0.83019   0.75299   0.47225   0.00000  Uiso   1.00
C303   C     0.73468   0.74945   0.23773   0.00000  Uiso   1.00
C304   C     0.93201   0.74985   0.26233   0.00000  Uiso   1.00
C305   C     0.67952   0.74823   0.23101   0.00000  Uiso   1.00
C306   C     0.98722   0.74993   0.26920   0.00000  Uiso   1.00
C307   C     0.87717   0.54859   0.27794   0.00000  Uiso   1.00
C308   C     0.83587   0.95615   0.20639   0.00000  Uiso   1.00
C309   C     0.87683   0.59496   0.27786   0.00000  Uiso   1.00
C310   C     0.83401   0.90980   0.20450   0.00000  Uiso   1.00
C311   C     0.83480   0.61733   0.25232   0.00000  Uiso   1.00
C312   C     0.83285   0.88421   0.24794   0.00000  Uiso   1.00
C313   C     0.79313   0.59387   0.22807   0.00000  Uiso   1.00
C314   C     0.83183   0.90597   0.29180   0.00000  Uiso   1.00
C315   C     0.79289   0.54803   0.22908   0.00000  Uiso   1.00
C316   C     0.83226   0.95176   0.29309   0.00000  Uiso   1.00
C317   C     0.83497   0.52523   0.25324   0.00000  Uiso   1.00
C318   C     0.83470   0.97694   0.25078   0.00000  Uiso   1.00
Cu319  Cu    0.83333   0.75000   0.29822   0.00000  Uiso   1.00
Cu320  Cu    0.83333   0.75001   0.20178   0.00000  Uiso   1.00
H321   H     0.99329   0.74582   0.19432   0.00000  Uiso   1.00
H322   H     0.67356   0.75178   0.30598   0.00000  Uiso   1.00
H323   H     0.90576   0.78140   0.04186   0.00000  Uiso   1.00
H324   H     0.79635   0.68751   0.46295   0.00000  Uiso   1.00
N325   N     0.83333   0.75001   0.12934   0.00000  Uiso   1.00
N326   N     0.83333   0.74999   0.37066   0.00000  Uiso   1.00
O327   O     0.83334   0.68573   0.29072   0.00000  Uiso   1.00
O328   O     0.83333   0.81428   0.20928   0.00000  Uiso   1.00
O329   O     0.83334   0.68573   0.20928   0.00000  Uiso   1.00
O330   O     0.83333   0.81427   0.29072   0.00000  Uiso   1.00
O331   O     0.75828   0.75000   0.28132   0.00000  Uiso   1.00
O332   O     0.90839   0.75001   0.21868   0.00000  Uiso   1.00
O333   O     0.75828   0.75000   0.19989   0.00000  Uiso   1.00
O334   O     0.90839   0.75000   0.30011   0.00000  Uiso   1.00
Cl335  Cl    0.93134   0.52014   0.30690   0.00000  Uiso   1.00
Cl336  Cl    0.84135   0.98827   0.15317   0.00000  Uiso   1.00
Cl337  Cl    0.93000   0.62492   0.30763   0.00000  Uiso   1.00
Cl338  Cl    0.83231   0.88585   0.14694   0.00000  Uiso   1.00
H339   H     0.76063   0.61112   0.20868   0.00000  Uiso   1.00
H340   H     0.83051   0.88760   0.32552   0.00000  Uiso   1.00
H341   H     0.76024   0.53016   0.21027   0.00000  Uiso   1.00
H342   H     0.83092   0.96772   0.32730   0.00000  Uiso   1.00
Cl343  Cl    0.92114   0.80252   0.13897   0.00000  Uiso   1.00
Cl344  Cl    0.77339   0.67396   0.36419   0.00000  Uiso   1.00
H345   H     0.76003   0.71823   0.11769   0.00000  Uiso   1.00
H346   H     0.87033   0.81293   0.37747   0.00000  Uiso   1.00
Cl347  Cl    0.72817   0.71929   0.01716   0.00000  Uiso   1.00
Cl348  Cl    0.86843   0.84007   0.47305   0.00000  Uiso   1.00
C349   C     0.16709   0.16522   0.75063   0.00000  Uiso   1.00
C350   C     0.16639   0.33531   0.74926   0.00000  Uiso   1.00
C351   C     0.20566   0.26851   0.55709   0.00000  Uiso   1.00
C352   C     0.14474   0.21627   0.94519   0.00000  Uiso   1.00
C353   C     0.20560   0.26993   0.60735   0.00000  Uiso   1.00
C354   C     0.14352   0.21639   0.89469   0.00000  Uiso   1.00
C355   C     0.12503   0.23257   0.60088   0.00000  Uiso   1.00
C356   C     0.18682   0.28568   0.89621   0.00000  Uiso   1.00
C357   C     0.12110   0.23490   0.54979   0.00000  Uiso   1.00
C358   C     0.18382   0.28891   0.94628   0.00000  Uiso   1.00
C359   C     0.16285   0.25227   0.52674   0.00000  Uiso   1.00
C360   C     0.16353   0.25299   0.97225   0.00000  Uiso   1.00
C361   C     0.06801   0.24945   0.73773   0.00000  Uiso   1.00
C362   C     0.26534   0.24985   0.76233   0.00000  Uiso   1.00
C363   C     0.01285   0.24823   0.73101   0.00000  Uiso   1.00
C364   C     0.32055   0.24993   0.76920   0.00000  Uiso   1.00
C365   C     0.21050   0.04859   0.77794   0.00000  Uiso   1.00
C366   C     0.16920   0.45615   0.70639   0.00000  Uiso   1.00
C367   C     0.21016   0.09496   0.77786   0.00000  Uiso   1.00
C368   C     0.16734   0.40980   0.70450   0.00000  Uiso   1.00
C369   C     0.16813   0.11733   0.75232   0.00000  Uiso   1.00
C370   C     0.16618   0.38421   0.74794   0.00000  Uiso   1.00
C371   C     0.12646   0.09387   0.72807   0.00000  Uiso   1.00
C372   C     0.16516   0.40597   0.79180   0.00000  Uiso   1.00
C373   C     0.12622   0.04803   0.72908   0.00000  Uiso   1.00
C374   C     0.16559   0.45176   0.79309   0.00000  Uiso   1.00
C375   C     0.16830   0.02523   0.75324   0.00000  Uiso   1.00
C376   C     0.16803   0.47694   0.75078   0.00000  Uiso   1.00
Cu377  Cu    0.16667   0.25000   0.79822   0.00000  Uiso   1.00
Cu378  Cu    0.16667   0.25001   0.70178   0.00000  Uiso   1.00
H379   H     0.32662   0.24582   0.69432   0.00000  Uiso   1.00
H380   H     0.00689   0.25178   0.80598   0.00000  Uiso   1.00
H381   H     0.23910   0.28140   0.54186   0.00000  Uiso   1.00
H382   H     0.12969   0.18751   0.96295   0.00000  Uiso   1.00
N383   N     0.16667   0.25001   0.62934   0.00000  Uiso   1.00
N384   N     0.16667   0.24999   0.87066   0.00000  Uiso   1.00
O385   O     0.16667   0.18573   0.79072   0.00000  Uiso   1.00
O386   O     0.16666   0.31428   0.70928   0.00000  Uiso   1.00
O387   O     0.16667   0.18573   0.70928   0.00000  Uiso   1.00
O388   O     0.16666   0.31427   0.79072   0.00000  Uiso   1.00
O389   O     0.09161   0.25000   0.78132   0.00000  Uiso   1.00
O390   O     0.24172   0.25001   0.71868   0.00000  Uiso   1.00
O391   O     0.09161   0.25000   0.69989   0.00000  Uiso   1.00
O392   O     0.24172   0.25000   0.80011   0.00000  Uiso   1.00
Cl393  Cl    0.26467   0.02014   0.80690   0.00000  Uiso   1.00
Cl394  Cl    0.17468   0.48827   0.65317   0.00000  Uiso   1.00
Cl395  Cl    0.26333   0.12492   0.80763   0.00000  Uiso   1.00
Cl396  Cl    0.16564   0.38585   0.64694   0.00000  Uiso   1.00
H397   H     0.09396   0.11112   0.70868   0.00000  Uiso   1.00
H398   H     0.16384   0.38760   0.82552   0.00000  Uiso   1.00
H399   H     0.09357   0.03016   0.71027   0.00000  Uiso   1.00
H400   H     0.16425   0.46772   0.82730   0.00000  Uiso   1.00
Cl401  Cl    0.25447   0.30252   0.63897   0.00000  Uiso   1.00
Cl402  Cl    0.10673   0.17396   0.86419   0.00000  Uiso   1.00
H403   H     0.09337   0.21823   0.61769   0.00000  Uiso   1.00
H404   H     0.20367   0.31293   0.87747   0.00000  Uiso   1.00
Cl405  Cl    0.06150   0.21929   0.51716   0.00000  Uiso   1.00
Cl406  Cl    0.20177   0.34007   0.97305   0.00000  Uiso   1.00
C407   C     0.50042   0.16522   0.75063   0.00000  Uiso   1.00
C408   C     0.49973   0.33531   0.74926   0.00000  Uiso   1.00
C409   C     0.53899   0.26851   0.55709   0.00000  Uiso   1.00
C410   C     0.47807   0.21627   0.94519   0.00000  Uiso   1.00
C411   C     0.53893   0.26993   0.60735   0.00000  Uiso   1.00
C412   C     0.47685   0.21639   0.89469   0.00000  Uiso   1.00
C413   C     0.45837   0.23257   0.60088   0.00000  Uiso   1.00
C414   C     0.52015   0.28568   0.89621   0.00000  Uiso   1.00
C415   C     0.45444   0.23490   0.54979   0.00000  Uiso   1.00
C416   C     0.51715   0.28891   0.94628   0.00000  Uiso   1.00
C417   C     0.49618   0.25227   0.52674   0.00000  Uiso   1.00
C418   C     0.49686   0.25299   0.97225   0.00000  Uiso   1.00
C419   C     0.40135   0.24945   0.73773   0.00000  Uiso   1.00
C420   C     0.59867   0.24985   0.76233   0.00000  Uiso   1.00
C421   C     0.34618   0.24823   0.73101   0.00000  Uiso   1.00
C422   C     0.65389   0.24993   0.76920   0.00000  Uiso   1.00
C423   C     0.54384   0.04859   0.77794   0.00000  Uiso   1.00
C424   C     0.50254   0.45615   0.70639   0.00000  Uiso   1.00
C425   C     0.54350   0.09496   0.77786   0.00000  Uiso   1.00
C426   C     0.50067   0.40980   0.70450   0.00000  Uiso   1.00
C427   C     0.50147   0.11733   0.75232   0.00000  Uiso   1.00
C428   C     0.49952   0.38421   0.74794   0.00000  Uiso   1.00
C429   C     0.45980   0.09387   0.72807   0.00000  Uiso   1.00
C430   C     0.49850   0.40597   0.79180   0.00000  Uiso   1.00
C431   C     0.45956   0.04803   0.72908   0.00000  Uiso   1.00
C432   C     0.49893   0.45176   0.79309   0.00000  Uiso   1.00
C433   C     0.50163   0.02523   0.75324   0.00000  Uiso   1.00
C434   C     0.50136   0.47694   0.75078   0.00000  Uiso   1.00
Cu435  Cu    0.50000   0.25000   0.79822   0.00000  Uiso   1.00
Cu436  Cu    0.50000   0.25001   0.70178   0.00000  Uiso   1.00
H437   H     0.65995   0.24582   0.69432   0.00000  Uiso   1.00
H438   H     0.34022   0.25178   0.80598   0.00000  Uiso   1.00
H439   H     0.57243   0.28140   0.54186   0.00000  Uiso   1.00
H440   H     0.46302   0.18751   0.96295   0.00000  Uiso   1.00
N441   N     0.50000   0.25001   0.62934   0.00000  Uiso   1.00
N442   N     0.50000   0.24999   0.87066   0.00000  Uiso   1.00
O443   O     0.50000   0.18573   0.79072   0.00000  Uiso   1.00
O444   O     0.50000   0.31428   0.70928   0.00000  Uiso   1.00
O445   O     0.50000   0.18573   0.70928   0.00000  Uiso   1.00
O446   O     0.50000   0.31427   0.79072   0.00000  Uiso   1.00
O447   O     0.42495   0.25000   0.78132   0.00000  Uiso   1.00
O448   O     0.57505   0.25001   0.71868   0.00000  Uiso   1.00
O449   O     0.42495   0.25000   0.69989   0.00000  Uiso   1.00
O450   O     0.57505   0.25000   0.80011   0.00000  Uiso   1.00
Cl451  Cl    0.59801   0.02014   0.80690   0.00000  Uiso   1.00
Cl452  Cl    0.50801   0.48827   0.65317   0.00000  Uiso   1.00
Cl453  Cl    0.59667   0.12492   0.80763   0.00000  Uiso   1.00
Cl454  Cl    0.49897   0.38585   0.64694   0.00000  Uiso   1.00
H455   H     0.42729   0.11112   0.70868   0.00000  Uiso   1.00
H456   H     0.49717   0.38760   0.82552   0.00000  Uiso   1.00
H457   H     0.42691   0.03016   0.71027   0.00000  Uiso   1.00
H458   H     0.49758   0.46772   0.82730   0.00000  Uiso   1.00
Cl459  Cl    0.58780   0.30252   0.63897   0.00000  Uiso   1.00
Cl460  Cl    0.44006   0.17396   0.86419   0.00000  Uiso   1.00
H461   H     0.42670   0.21823   0.61769   0.00000  Uiso   1.00
H462   H     0.53700   0.31293   0.87747   0.00000  Uiso   1.00
Cl463  Cl    0.39483   0.21929   0.51716   0.00000  Uiso   1.00
Cl464  Cl    0.53510   0.34007   0.97305   0.00000  Uiso   1.00
C465   C     0.83375   0.16522   0.75063   0.00000  Uiso   1.00
C466   C     0.83306   0.33531   0.74926   0.00000  Uiso   1.00
C467   C     0.87233   0.26851   0.55709   0.00000  Uiso   1.00
C468   C     0.81140   0.21627   0.94519   0.00000  Uiso   1.00
C469   C     0.87226   0.26993   0.60735   0.00000  Uiso   1.00
C470   C     0.81019   0.21639   0.89469   0.00000  Uiso   1.00
C471   C     0.79170   0.23257   0.60088   0.00000  Uiso   1.00
C472   C     0.85348   0.28568   0.89621   0.00000  Uiso   1.00
C473   C     0.78777   0.23490   0.54979   0.00000  Uiso   1.00
C474   C     0.85048   0.28891   0.94628   0.00000  Uiso   1.00
C475   C     0.82952   0.25227   0.52674   0.00000  Uiso   1.00
C476   C     0.83019   0.25299   0.97225   0.00000  Uiso   1.00
C477   C     0.73468   0.24945   0.73773   0.00000  Uiso   1.00
C478   C     0.93201   0.24985   0.76233   0.00000  Uiso   1.00
C479   C     0.67952   0.24823   0.73101   0.00000  Uiso   1.00
C480   C     0.98722   0.24993   0.76920   0.00000  Uiso   1.00
C481   C     0.87717   0.04859   0.77794   0.00000  Uiso   1.00
C482   C     0.83587   0.45615   0.70639   0.00000  Uiso   1.00
C483   C     0.87683   0.09496   0.77786   0.00000  Uiso   1.00
C484   C     0.83401   0.40980   0.70450   0.00000  Uiso   1.00
C485   C     0.83480   0.11733   0.75232   0.00000  Uiso   1.00
C486   C     0.83285   0.38421   0.74794   0.00000  Uiso   1.00
C487   C     0.79313   0.09387   0.72807   0.00000  Uiso   1.00
C488   C     0.83183   0.40597   0.79180   0.00000  Uiso   1.00
C489   C     0.79289   0.04803   0.72908   0.00000  Uiso   1.00
C490   C     0.83226   0.45176   0.79309   0.00000  Uiso   1.00
C491   C     0.83497   0.02523   0.75324   0.00000  Uiso   1.00
C492   C     0.83470   0.47694   0.75078   0.00000  Uiso   1.00
Cu493  Cu    0.83333   0.25000   0.79822   0.00000  Uiso   1.00
Cu494  Cu    0.83333   0.25001   0.70178   0.00000  Uiso   1.00
H495   H     0.99329   0.24582   0.69432   0.00000  Uiso   1.00
H496   H     0.67356   0.25178   0.80598   0.00000  Uiso   1.00
H497   H     0.90576   0.28140   0.54186   0.00000  Uiso   1.00
H498   H     0.79635   0.18751   0.96295   0.00000  Uiso   1.00
N499   N     0.83333   0.25001   0.62934   0.00000  Uiso   1.00
N500   N     0.83333   0.24999   0.87066   0.00000  Uiso   1.00
O501   O     0.83334   0.18573   0.79072   0.00000  Uiso   1.00
O502   O     0.83333   0.31428   0.70928   0.00000  Uiso   1.00
O503   O     0.83334   0.18573   0.70928   0.00000  Uiso   1.00
O504   O     0.83333   0.31427   0.79072   0.00000  Uiso   1.00
O505   O     0.75828   0.25000   0.78132   0.00000  Uiso   1.00
O506   O     0.90839   0.25001   0.71868   0.00000  Uiso   1.00
O507   O     0.75828   0.25000   0.69989   0.00000  Uiso   1.00
O508   O     0.90839   0.25000   0.80011   0.00000  Uiso   1.00
Cl509  Cl    0.93134   0.02014   0.80690   0.00000  Uiso   1.00
Cl510  Cl    0.84135   0.48827   0.65317   0.00000  Uiso   1.00
Cl511  Cl    0.93000   0.12492   0.80763   0.00000  Uiso   1.00
Cl512  Cl    0.83231   0.38585   0.64694   0.00000  Uiso   1.00
H513   H     0.76063   0.11112   0.70868   0.00000  Uiso   1.00
H514   H     0.83051   0.38760   0.82552   0.00000  Uiso   1.00
H515   H     0.76024   0.03016   0.71027   0.00000  Uiso   1.00
H516   H     0.83092   0.46772   0.82730   0.00000  Uiso   1.00
Cl517  Cl    0.92114   0.30252   0.63897   0.00000  Uiso   1.00
Cl518  Cl    0.77339   0.17396   0.86419   0.00000  Uiso   1.00
H519   H     0.76003   0.21823   0.61769   0.00000  Uiso   1.00
H520   H     0.87033   0.31293   0.87747   0.00000  Uiso   1.00
Cl521  Cl    0.72817   0.21929   0.51716   0.00000  Uiso   1.00
Cl522  Cl    0.86843   0.34007   0.97305   0.00000  Uiso   1.00
C523   C     0.16709   0.66522   0.75063   0.00000  Uiso   1.00
C524   C     0.16639   0.83531   0.74926   0.00000  Uiso   1.00
C525   C     0.20566   0.76851   0.55709   0.00000  Uiso   1.00
C526   C     0.14474   0.71627   0.94519   0.00000  Uiso   1.00
C527   C     0.20560   0.76993   0.60735   0.00000  Uiso   1.00
C528   C     0.14352   0.71639   0.89469   0.00000  Uiso   1.00
C529   C     0.12503   0.73257   0.60088   0.00000  Uiso   1.00
C530   C     0.18682   0.78568   0.89621   0.00000  Uiso   1.00
C531   C     0.12110   0.73490   0.54979   0.00000  Uiso   1.00
C532   C     0.18382   0.78891   0.94628   0.00000  Uiso   1.00
C533   C     0.16285   0.75227   0.52674   0.00000  Uiso   1.00
C534   C     0.16353   0.75299   0.97225   0.00000  Uiso   1.00
C535   C     0.06801   0.74945   0.73773   0.00000  Uiso   1.00
C536   C     0.26534   0.74985   0.76233   0.00000  Uiso   1.00
C537   C     0.01285   0.74823   0.73101   0.00000  Uiso   1.00
C538   C     0.32055   0.74993   0.76920   0.00000  Uiso   1.00
C539   C     0.21050   0.54859   0.77794   0.00000  Uiso   1.00
C540   C     0.16920   0.95615   0.70639   0.00000  Uiso   1.00
C541   C     0.21016   0.59496   0.77786   0.00000  Uiso   1.00
C542   C     0.16734   0.90980   0.70450   0.00000  Uiso   1.00
C543   C     0.16813   0.61733   0.75232   0.00000  Uiso   1.00
C544   C     0.16618   0.88421   0.74794   0.00000  Uiso   1.00
C545   C     0.12646   0.59387   0.72807   0.00000  Uiso   1.00
C546   C     0.16516   0.90597   0.79180   0.00000  Uiso   1.00
C547   C     0.12622   0.54803   0.72908   0.00000  Uiso   1.00
C548   C     0.16559   0.95176   0.79309   0.00000  Uiso   1.00
C549   C     0.16830   0.52523   0.75324   0.00000  Uiso   1.00
C550   C     0.16803   0.97694   0.75078   0.00000  Uiso   1.00
Cu551  Cu    0.16667   0.75000   0.79822   0.00000  Uiso   1.00
Cu552  Cu    0.16667   0.75001   0.70178   0.00000  Uiso   1.00
H553   H     0.32662   0.74582   0.69432   0.00000  Uiso   1.00
H554   H     0.00689   0.75178   0.80598   0.00000  Uiso   1.00
H555   H     0.23910   0.78140   0.54186   0.00000  Uiso   1.00
H556   H     0.12969   0.68751   0.96295   0.00000  Uiso   1.00
N557   N     0.16667   0.75001   0.62934   0.00000  Uiso   1.00
N558   N     0.16667   0.74999   0.87066   0.00000  Uiso   1.00
O559   O     0.16667   0.68573   0.79072   0.00000  Uiso   1.00
O560   O     0.16666   0.81428   0.70928   0.00000  Uiso   1.00
O561   O     0.16667   0.68573   0.70928   0.00000  Uiso   1.00
O562   O     0.16666   0.81427   0.79072   0.00000  Uiso   1.00
O563   O     0.09161   0.75000   0.78132   0.00000  Uiso   1.00
O564   O     0.24172   0.75001   0.71868   0.00000  Uiso   1.00
O565   O     0.09161   0.75000   0.69989   0.00000  Uiso   1.00
O566   O     0.24172   0.75000   0.80011   0.00000  Uiso   1.00
Cl567  Cl    0.26467   0.52014   0.80690   0.00000  Uiso   1.00
Cl568  Cl    0.17468   0.98827   0.65317   0.00000  Uiso   1.00
Cl569  Cl    0.26333   0.62492   0.80763   0.00000  Uiso   1.00
Cl570  Cl    0.16564   0.88585   0.64694   0.00000  Uiso   1.00
H571   H     0.09396   0.61112   0.70868   0.00000  Uiso   1.00
H572   H     0.16384   0.88760   0.82552   0.00000  Uiso   1.00
H573   H     0.09357   0.53016   0.71027   0.00000  Uiso   1.00
H574   H     0.16425   0.96772   0.82730   0.00000  Uiso   1.00
Cl575  Cl    0.25447   0.80252   0.63897   0.00000  Uiso   1.00
Cl576  Cl    0.10673   0.67396   0.86419   0.00000  Uiso   1.00
H577   H     0.09337   0.71823   0.61769   0.00000  Uiso   1.00
H578   H     0.20367   0.81293   0.87747   0.00000  Uiso   1.00
Cl579  Cl    0.06150   0.71929   0.51716   0.00000  Uiso   1.00
Cl580  Cl    0.20177   0.84007   0.97305   0.00000  Uiso   1.00
C581   C     0.50042   0.66522   0.75063   0.00000  Uiso   1.00
C582   C     0.49973   0.83531   0.74926   0.00000  Uiso   1.00
C583   C     0.53899   0.76851   0.55709   0.00000  Uiso   1.00
C584   C     0.47807   0.71627   0.94519   0.00000  Uiso   1.00
C585   C     0.53893   0.76993   0.60735   0.00000  Uiso   1.00
C586   C     0.47685   0.71639   0.89469   0.00000  Uiso   1.00
C587   C     0.45837   0.73257   0.60088   0.00000  Uiso   1.00
C588   C     0.52015   0.78568   0.89621   0.00000  Uiso   1.00
C589   C     0.45444   0.73490   0.54979   0.00000  Uiso   1.00
C590   C     0.51715   0.78891   0.94628   0.00000  Uiso   1.00
C591   C     0.49618   0.75227   0.52674   0.00000  Uiso   1.00
C592   C     0.49686   0.75299   0.97225   0.00000  Uiso   1.00
C593   C     0.40135   0.74945   0.73773   0.00000  Uiso   1.00
C594   C     0.59867   0.74985   0.76233   0.00000  Uiso   1.00
C595   C     0.34618   0.74823   0.73101   0.00000  Uiso   1.00
C596   C     0.65389   0.74993   0.76920   0.00000  Uiso   1.00
C597   C     0.54384   0.54859   0.77794   0.00000  Uiso   1.00
C598   C     0.50254   0.95615   0.70639   0.00000  Uiso   1.00
C599   C     0.54350   0.59496   0.77786   0.00000  Uiso   1.00
C600   C     0.50067   0.90980   0.70450   0.00000  Uiso   1.00
C601   C     0.50147   0.61733   0.75232   0.00000  Uiso   1.00
C602   C     0.49952   0.88421   0.74794   0.00000  Uiso   1.00
C603   C     0.45980   0.59387   0.72807   0.00000  Uiso   1.00
C604   C     0.49850   0.90597   0.79180   0.00000  Uiso   1.00
C605   C     0.45956   0.54803   0.72908   0.00000  Uiso   1.00
C606   C     0.49893   0.95176   0.79309   0.00000  Uiso   1.00
C607   C     0.50163   0.52523   0.75324   0.00000  Uiso   1.00
C608   C     0.50136   0.97694   0.75078   0.00000  Uiso   1.00
Cu609  Cu    0.50000   0.75000   0.79822   0.00000  Uiso   1.00
Cu610  Cu    0.50000   0.75001   0.70178   0.00000  Uiso   1.00
H611   H     0.65995   0.74582   0.69432   0.00000  Uiso   1.00
H612   H     0.34022   0.75178   0.80598   0.00000  Uiso   1.00
H613   H     0.57243   0.78140   0.54186   0.00000  Uiso   1.00
H614   H     0.46302   0.68751   0.96295   0.00000  Uiso   1.00
N615   N     0.50000   0.75001   0.62934   0.00000  Uiso   1.00
N616   N     0.50000   0.74999   0.87066   0.00000  Uiso   1.00
O617   O     0.50000   0.68573   0.79072   0.00000  Uiso   1.00
O618   O     0.50000   0.81428   0.70928   0.00000  Uiso   1.00
O619   O     0.50000   0.68573   0.70928   0.00000  Uiso   1.00
O620   O     0.50000   0.81427   0.79072   0.00000  Uiso   1.00
O621   O     0.42495   0.75000   0.78132   0.00000  Uiso   1.00
O622   O     0.57505   0.75001   0.71868   0.00000  Uiso   1.00
O623   O     0.42495   0.75000   0.69989   0.00000  Uiso   1.00
O624   O     0.57505   0.75000   0.80011   0.00000  Uiso   1.00
Cl625  Cl    0.59801   0.52014   0.80690   0.00000  Uiso   1.00
Cl626  Cl    0.50801   0.98827   0.65317   0.00000  Uiso   1.00
Cl627  Cl    0.59667   0.62492   0.80763   0.00000  Uiso   1.00
Cl628  Cl    0.49897   0.88585   0.64694   0.00000  Uiso   1.00
H629   H     0.42729   0.61112   0.70868   0.00000  Uiso   1.00
H630   H     0.49717   0.88760   0.82552   0.00000  Uiso   1.00
H631   H     0.42691   0.53016   0.71027   0.00000  Uiso   1.00
H632   H     0.49758   0.96772   0.82730   0.00000  Uiso   1.00
Cl633  Cl    0.58780   0.80252   0.63897   0.00000  Uiso   1.00
Cl634  Cl    0.44006   0.67396   0.86419   0.00000  Uiso   1.00
H635   H     0.42670   0.71823   0.61769   0.00000  Uiso   1.00
H636   H     0.53700   0.81293   0.87747   0.00000  Uiso   1.00
Cl637  Cl    0.39483   0.71929   0.51716   0.00000  Uiso   1.00
Cl638  Cl    0.53510   0.84007   0.97305   0.00000  Uiso   1.00
C639   C     0.83375   0.66522   0.75063   0.00000  Uiso   1.00
C640   C     0.83306   0.83531   0.74926   0.00000  Uiso   1.00
C641   C     0.87233   0.76851   0.55709   0.00000  Uiso   1.00
C642   C     0.81140   0.71627   0.94519   0.00000  Uiso   1.00
C643   C     0.87226   0.76993   0.60735   0.00000  Uiso   1.00
C644   C     0.81019   0.71639   0.89469   0.00000  Uiso   1.00
C645   C     0.79170   0.73257   0.60088   0.00000  Uiso   1.00
C646   C     0.85348   0.78568   0.89621   0.00000  Uiso   1.00
C647   C     0.78777   0.73490   0.54979   0.00000  Uiso   1.00
C648   C     0.85048   0.78891   0.94628   0.00000  Uiso   1.00
C649   C     0.82952   0.75227   0.52674   0.00000  Uiso   1.00
C650   C     0.83019   0.75299   0.97225   0.00000  Uiso   1.00
C651   C     0.73468   0.74945   0.73773   0.00000  Uiso   1.00
C652   C     0.93201   0.74985   0.76233   0.00000  Uiso   1.00
C653   C     0.67952   0.74823   0.73101   0.00000  Uiso   1.00
C654   C     0.98722   0.74993   0.76920   0.00000  Uiso   1.00
C655   C     0.87717   0.54859   0.77794   0.00000  Uiso   1.00
C656   C     0.83587   0.95615   0.70639   0.00000  Uiso   1.00
C657   C     0.87683   0.59496   0.77786   0.00000  Uiso   1.00
C658   C     0.83401   0.90980   0.70450   0.00000  Uiso   1.00
C659   C     0.83480   0.61733   0.75232   0.00000  Uiso   1.00
C660   C     0.83285   0.88421   0.74794   0.00000  Uiso   1.00
C661   C     0.79313   0.59387   0.72807   0.00000  Uiso   1.00
C662   C     0.83183   0.90597   0.79180   0.00000  Uiso   1.00
C663   C     0.79289   0.54803   0.72908   0.00000  Uiso   1.00
C664   C     0.83226   0.95176   0.79309   0.00000  Uiso   1.00
C665   C     0.83497   0.52523   0.75324   0.00000  Uiso   1.00
C666   C     0.83470   0.97694   0.75078   0.00000  Uiso   1.00
Cu667  Cu    0.83333   0.75000   0.79822   0.00000  Uiso   1.00
Cu668  Cu    0.83333   0.75001   0.70178   0.00000  Uiso   1.00
H669   H     0.99329   0.74582   0.69432   0.00000  Uiso   1.00
H670   H     0.67356   0.75178   0.80598   0.00000  Uiso   1.00
H671   H     0.90576   0.78140   0.54186   0.00000  Uiso   1.00
H672   H     0.79635   0.68751   0.96295   0.00000  Uiso   1.00
N673   N     0.83333   0.75001   0.62934   0.00000  Uiso   1.00
N674   N     0.83333   0.74999   0.87066   0.00000  Uiso   1.00
O675   O     0.83334   0.68573   0.79072   0.00000  Uiso   1.00
O676   O     0.83333   0.81428   0.70928   0.00000  Uiso   1.00
O677   O     0.83334   0.68573   0.70928   0.00000  Uiso   1.00
O678   O     0.83333   0.81427   0.79072   0.00000  Uiso   1.00
O679   O     0.75828   0.75000   0.78132   0.00000  Uiso   1.00
O680   O     0.90839   0.75001   0.71868   0.00000  Uiso   1.00
O681   O     0.75828   0.75000   0.69989   0.00000  Uiso   1.00
O682   O     0.90839   0.75000   0.80011   0.00000  Uiso   1.00
Cl683  Cl    0.93134   0.52014   0.80690   0.00000  Uiso   1.00
Cl684  Cl    0.84135   0.98827   0.65317   0.00000  Uiso   1.00
Cl685  Cl    0.93000   0.62492   0.80763   0.00000  Uiso   1.00
Cl686  Cl    0.83231   0.88585   0.64694   0.00000  Uiso   1.00
H687   H     0.76063   0.61112   0.70868   0.00000  Uiso   1.00
H688   H     0.83051   0.88760   0.82552   0.00000  Uiso   1.00
H689   H     0.76024   0.53016   0.71027   0.00000  Uiso   1.00
H690   H     0.83092   0.96772   0.82730   0.00000  Uiso   1.00
Cl691  Cl    0.92114   0.80252   0.63897   0.00000  Uiso   1.00
Cl692  Cl    0.77339   0.67396   0.86419   0.00000  Uiso   1.00
H693   H     0.76003   0.71823   0.61769   0.00000  Uiso   1.00
H694   H     0.87033   0.81293   0.87747   0.00000  Uiso   1.00
Cl695  Cl    0.72817   0.71929   0.51716   0.00000  Uiso   1.00
Cl696  Cl    0.86843   0.84007   0.97305   0.00000  Uiso   1.00
loop_
_geom_bond_atom_site_label_1
_geom_bond_atom_site_label_2
_geom_bond_distance
_geom_bond_site_symmetry_2
_ccdc_geom_bond_type
C1     C21     1.449   .     S
C1     O39     1.293   .     A
C1     O37     1.292   .     A
C2     C22     1.478   .     S
C2     O40     1.304   .     A
C2     O38     1.297   .     A
C3     C5      1.402   .     A
C3     C11     1.401   .     A
C3     H33     1.082   .     S
C4     H34     1.082   .     S
C4     C12     1.401   .     A
C4     C6      1.403   .     A
C5     N35     1.376   .     A
C5     Cl53    1.755   .     S
C6     Cl54    1.756   .     S
C6     N36     1.375   .     A
C7     H55     1.081   .     S
C7     C9      1.414   .     A
C7     N35     1.366   .     A
C8     H56     1.081   .     S
C8     N36     1.366   .     A
C8     C10     1.413   .     A
C9     C11     1.421   .     A
C9     Cl57    1.762   .     S
C10    C12     1.421   .     A
C10    Cl58    1.762   .     S
C11    C360    1.520   1_554 S
C12    C359    1.520   .     S
C13    O41     1.290   .     A
C13    C15     1.431   .     S
C13    O43     1.288   .     A
C14    O44     1.288   .     A
C14    O42     1.291   .     A
C14    C16     1.433   .     S
C15    C132    1.332   1_455 S
C15    H147    1.086   1_455 S
C16    C73     1.332   .     S
C16    H90     1.087   .     S
C17    C27     1.409   .     A
C17    C19     1.402   .     A
C17    Cl45    1.768   .     S
C18    C20     1.403   .     A
C18    C28     1.405   .     A
C18    Cl46    1.772   .     S
C19    C21     1.407   .     A
C19    Cl47    1.769   .     S
C20    Cl48    1.771   .     S
C20    C22     1.423   .     A
C21    C23     1.396   .     A
C22    C24     1.406   .     A
C23    H49     1.084   .     S
C23    C25     1.386   .     A
C24    H50     1.083   .     S
C24    C26     1.386   .     A
C25    H51     1.084   .     S
C25    C27     1.400   .     A
C26    H52     1.084   .     S
C26    C28     1.395   .     A
C27    C202    1.463   1_545 S
C28    C201    1.463   .     S
Cu29   Cu30    2.686   .     S
Cu29   O41     1.960   .     S
Cu29   N36     2.018   .     S
Cu29   O44     1.958   .     S
Cu29   O37     1.960   .     S
Cu29   O40     1.950   .     S
Cu30   N35     2.018   .     S
Cu30   O39     1.950   .     S
Cu30   O43     1.958   .     S
Cu30   O38     1.960   .     S
Cu30   O42     1.960   .     S
H31    C73     1.086   .     S
H32    C132    1.087   1_455 S
C59    C79     1.449   .     S
C59    O97     1.293   .     A
C59    O95     1.292   .     A
C60    C80     1.478   .     S
C60    O98     1.304   .     A
C60    O96     1.297   .     A
C61    C63     1.402   .     A
C61    C69     1.401   .     A
C61    H91     1.082   .     S
C62    H92     1.082   .     S
C62    C70     1.401   .     A
C62    C64     1.403   .     A
C63    N93     1.376   .     A
C63    Cl111   1.755   .     S
C64    Cl112   1.756   .     S
C64    N94     1.375   .     A
C65    H113    1.081   .     S
C65    C67     1.414   .     A
C65    N93     1.366   .     A
C66    H114    1.081   .     S
C66    N94     1.366   .     A
C66    C68     1.413   .     A
C67    C69     1.421   .     A
C67    Cl115   1.762   .     S
C68    C70     1.421   .     A
C68    Cl116   1.762   .     S
C69    C418    1.520   1_554 S
C70    C417    1.520   .     S
C71    O99     1.290   .     A
C71    C73     1.431   .     S
C71    O101    1.288   .     A
C72    O102    1.288   .     A
C72    O100    1.291   .     A
C72    C74     1.433   .     S
C74    C131    1.332   .     S
C74    H148    1.087   .     S
C75    C85     1.409   .     A
C75    C77     1.402   .     A
C75    Cl103   1.768   .     S
C76    C78     1.403   .     A
C76    C86     1.405   .     A
C76    Cl104   1.772   .     S
C77    C79     1.407   .     A
C77    Cl105   1.769   .     S
C78    Cl106   1.771   .     S
C78    C80     1.423   .     A
C79    C81     1.396   .     A
C80    C82     1.406   .     A
C81    H107    1.084   .     S
C81    C83     1.386   .     A
C82    H108    1.083   .     S
C82    C84     1.386   .     A
C83    H109    1.084   .     S
C83    C85     1.400   .     A
C84    H110    1.084   .     S
C84    C86     1.395   .     A
C85    C260    1.463   1_545 S
C86    C259    1.463   .     S
Cu87   Cu88    2.686   .     S
Cu87   O99     1.960   .     S
Cu87   N94     2.018   .     S
Cu87   O102    1.958   .     S
Cu87   O95     1.960   .     S
Cu87   O98     1.950   .     S
Cu88   N93     2.018   .     S
Cu88   O97     1.950   .     S
Cu88   O101    1.958   .     S
Cu88   O96     1.960   .     S
Cu88   O100    1.960   .     S
H89    C131    1.086   .     S
C117   C137    1.449   .     S
C117   O155    1.293   .     A
C117   O153    1.292   .     A
C118   C138    1.478   .     S
C118   O156    1.304   .     A
C118   O154    1.297   .     A
C119   C121    1.402   .     A
C119   C127    1.401   .     A
C119   H149    1.082   .     S
C120   H150    1.082   .     S
C120   C128    1.401   .     A
C120   C122    1.403   .     A
C121   N151    1.376   .     A
C121   Cl169   1.755   .     S
C122   Cl170   1.756   .     S
C122   N152    1.375   .     A
C123   H171    1.081   .     S
C123   C125    1.414   .     A
C123   N151    1.366   .     A
C124   H172    1.081   .     S
C124   N152    1.366   .     A
C124   C126    1.413   .     A
C125   C127    1.421   .     A
C125   Cl173   1.762   .     S
C126   C128    1.421   .     A
C126   Cl174   1.762   .     S
C127   C476    1.520   1_554 S
C128   C475    1.520   .     S
C129   O157    1.290   .     A
C129   C131    1.431   .     S
C129   O159    1.288   .     A
C130   O160    1.288   .     A
C130   O158    1.291   .     A
C130   C132    1.433   .     S
C132   C15     1.332   1_655 S
C132   H32     1.087   1_655 S
C133   C143    1.409   .     A
C133   C135    1.402   .     A
C133   Cl161   1.768   .     S
C134   C136    1.403   .     A
C134   C144    1.405   .     A
C134   Cl162   1.772   .     S
C135   C137    1.407   .     A
C135   Cl163   1.769   .     S
C136   Cl164   1.771   .     S
C136   C138    1.423   .     A
C137   C139    1.396   .     A
C138   C140    1.406   .     A
C139   H165    1.084   .     S
C139   C141    1.386   .     A
C140   H166    1.083   .     S
C140   C142    1.386   .     A
C141   H167    1.084   .     S
C141   C143    1.400   .     A
C142   H168    1.084   .     S
C142   C144    1.395   .     A
C143   C318    1.463   1_545 S
C144   C317    1.463   .     S
Cu145  Cu146   2.686   .     S
Cu145  O157    1.960   .     S
Cu145  N152    2.018   .     S
Cu145  O160    1.958   .     S
Cu145  O153    1.960   .     S
Cu145  O156    1.950   .     S
Cu146  N151    2.018   .     S
Cu146  O155    1.950   .     S
Cu146  O159    1.958   .     S
Cu146  O154    1.960   .     S
Cu146  O158    1.960   .     S
H147   C15     1.086   1_655 S
C175   C195    1.449   .     S
C175   O213    1.293   .     A
C175   O211    1.292   .     A
C176   C196    1.478   .     S
C176   O214    1.304   .     A
C176   O212    1.297   .     A
C177   C179    1.402   .     A
C177   C185    1.401   .     A
C177   H207    1.082   .     S
C178   H208    1.082   .     S
C178   C186    1.401   .     A
C178   C180    1.403   .     A
C179   N209    1.376   .     A
C179   Cl227   1.755   .     S
C180   Cl228   1.756   .     S
C180   N210    1.375   .     A
C181   H229    1.081   .     S
C181   C183    1.414   .     A
C181   N209    1.366   .     A
C182   H230    1.081   .     S
C182   N210    1.366   .     A
C182   C184    1.413   .     A
C183   C185    1.421   .     A
C183   Cl231   1.762   .     S
C184   C186    1.421   .     A
C184   Cl232   1.762   .     S
C185   C534    1.520   1_554 S
C186   C533    1.520   .     S
C187   O215    1.290   .     A
C187   C189    1.431   .     S
C187   O217    1.288   .     A
C188   O218    1.288   .     A
C188   O216    1.291   .     A
C188   C190    1.433   .     S
C189   C306    1.332   1_455 S
C189   H321    1.086   1_455 S
C190   C247    1.332   .     S
C190   H264    1.087   .     S
C191   C201    1.409   .     A
C191   C193    1.402   .     A
C191   Cl219   1.768   .     S
C192   C194    1.403   .     A
C192   C202    1.405   .     A
C192   Cl220   1.772   .     S
C193   C195    1.407   .     A
C193   Cl221   1.769   .     S
C194   Cl222   1.771   .     S
C194   C196    1.423   .     A
C195   C197    1.396   .     A
C196   C198    1.406   .     A
C197   H223    1.084   .     S
C197   C199    1.386   .     A
C198   H224    1.083   .     S
C198   C200    1.386   .     A
C199   H225    1.084   .     S
C199   C201    1.400   .     A
C200   H226    1.084   .     S
C200   C202    1.395   .     A
C202   C27     1.463   1_565 S
Cu203  Cu204   2.686   .     S
Cu203  O215    1.960   .     S
Cu203  N210    2.018   .     S
Cu203  O218    1.958   .     S
Cu203  O211    1.960   .     S
Cu203  O214    1.950   .     S
Cu204  N209    2.018   .     S
Cu204  O213    1.950   .     S
Cu204  O217    1.958   .     S
Cu204  O212    1.960   .     S
Cu204  O216    1.960   .     S
H205   C247    1.086   .     S
H206   C306    1.087   1_455 S
C233   C253    1.449   .     S
C233   O271    1.293   .     A
C233   O269    1.292   .     A
C234   C254    1.478   .     S
C234   O272    1.304   .     A
C234   O270    1.297   .     A
C235   C237    1.402   .     A
C235   C243    1.401   .     A
C235   H265    1.082   .     S
C236   H266    1.082   .     S
C236   C244    1.401   .     A
C236   C238    1.403   .     A
C237   N267    1.376   .     A
C237   Cl285   1.755   .     S
C238   Cl286   1.756   .     S
C238   N268    1.375   .     A
C239   H287    1.081   .     S
C239   C241    1.414   .     A
C239   N267    1.366   .     A
C240   H288    1.081   .     S
C240   N268    1.366   .     A
C240   C242    1.413   .     A
C241   C243    1.421   .     A
C241   Cl289   1.762   .     S
C242   C244    1.421   .     A
C242   Cl290   1.762   .     S
C243   C592    1.520   1_554 S
C244   C591    1.520   .     S
C245   O273    1.290   .     A
C245   C247    1.431   .     S
C245   O275    1.288   .     A
C246   O276    1.288   .     A
C246   O274    1.291   .     A
C246   C248    1.433   .     S
C248   C305    1.332   .     S
C248   H322    1.087   .     S
C249   C259    1.409   .     A
C249   C251    1.402   .     A
C249   Cl277   1.768   .     S
C250   C252    1.403   .     A
C250   C260    1.405   .     A
C250   Cl278   1.772   .     S
C251   C253    1.407   .     A
C251   Cl279   1.769   .     S
C252   Cl280   1.771   .     S
C252   C254    1.423   .     A
C253   C255    1.396   .     A
C254   C256    1.406   .     A
C255   H281    1.084   .     S
C255   C257    1.386   .     A
C256   H282    1.083   .     S
C256   C258    1.386   .     A
C257   H283    1.084   .     S
C257   C259    1.400   .     A
C258   H284    1.084   .     S
C258   C260    1.395   .     A
C260   C85     1.463   1_565 S
Cu261  Cu262   2.686   .     S
Cu261  O273    1.960   .     S
Cu261  N268    2.018   .     S
Cu261  O276    1.958   .     S
Cu261  O269    1.960   .     S
Cu261  O272    1.950   .     S
Cu262  N267    2.018   .     S
Cu262  O271    1.950   .     S
Cu262  O275    1.958   .     S
Cu262  O270    1.960   .     S
Cu262  O274    1.960   .     S
H263   C305    1.086   .     S
C291   C311    1.449   .     S
C291   O329    1.293   .     A
C291   O327    1.292   .     A
C292   C312    1.478   .     S
C292   O330    1.304   .     A
C292   O328    1.297   .     A
C293   C295    1.402   .     A
C293   C301    1.401   .     A
C293   H323    1.082   .     S
C294   H324    1.082   .     S
C294   C302    1.401   .     A
C294   C296    1.403   .     A
C295   N325    1.376   .     A
C295   Cl343   1.755   .     S
C296   Cl344   1.756   .     S
C296   N326    1.375   .     A
C297   H345    1.081   .     S
C297   C299    1.414   .     A
C297   N325    1.366   .     A
C298   H346    1.081   .     S
C298   N326    1.366   .     A
C298   C300    1.413   .     A
C299   C301    1.421   .     A
C299   Cl347   1.762   .     S
C300   C302    1.421   .     A
C300   Cl348   1.762   .     S
C301   C650    1.520   1_554 S
C302   C649    1.520   .     S
C303   O331    1.290   .     A
C303   C305    1.431   .     S
C303   O333    1.288   .     A
C304   O334    1.288   .     A
C304   O332    1.291   .     A
C304   C306    1.433   .     S
C306   C189    1.332   1_655 S
C306   H206    1.087   1_655 S
C307   C317    1.409   .     A
C307   C309    1.402   .     A
C307   Cl335   1.768   .     S
C308   C310    1.403   .     A
C308   C318    1.405   .     A
C308   Cl336   1.772   .     S
C309   C311    1.407   .     A
C309   Cl337   1.769   .     S
C310   Cl338   1.771   .     S
C310   C312    1.423   .     A
C311   C313    1.396   .     A
C312   C314    1.406   .     A
C313   H339    1.084   .     S
C313   C315    1.386   .     A
C314   H340    1.083   .     S
C314   C316    1.386   .     A
C315   H341    1.084   .     S
C315   C317    1.400   .     A
C316   H342    1.084   .     S
C316   C318    1.395   .     A
C318   C143    1.463   1_565 S
Cu319  Cu320   2.686   .     S
Cu319  O331    1.960   .     S
Cu319  N326    2.018   .     S
Cu319  O334    1.958   .     S
Cu319  O327    1.960   .     S
Cu319  O330    1.950   .     S
Cu320  N325    2.018   .     S
Cu320  O329    1.950   .     S
Cu320  O333    1.958   .     S
Cu320  O328    1.960   .     S
Cu320  O332    1.960   .     S
H321   C189    1.086   1_655 S
C349   C369    1.449   .     S
C349   O387    1.293   .     A
C349   O385    1.292   .     A
C350   C370    1.478   .     S
C350   O388    1.304   .     A
C350   O386    1.297   .     A
C351   C353    1.402   .     A
C351   C359    1.401   .     A
C351   H381    1.082   .     S
C352   H382    1.082   .     S
C352   C360    1.401   .     A
C352   C354    1.403   .     A
C353   N383    1.376   .     A
C353   Cl401   1.755   .     S
C354   Cl402   1.756   .     S
C354   N384    1.375   .     A
C355   H403    1.081   .     S
C355   C357    1.414   .     A
C355   N383    1.366   .     A
C356   H404    1.081   .     S
C356   N384    1.366   .     A
C356   C358    1.413   .     A
C357   C359    1.421   .     A
C357   Cl405   1.762   .     S
C358   C360    1.421   .     A
C358   Cl406   1.762   .     S
C360   C11     1.520   1_556 S
C361   O389    1.290   .     A
C361   C363    1.431   .     S
C361   O391    1.288   .     A
C362   O392    1.288   .     A
C362   O390    1.291   .     A
C362   C364    1.433   .     S
C363   C480    1.332   1_455 S
C363   H495    1.086   1_455 S
C364   C421    1.332   .     S
C364   H438    1.087   .     S
C365   C375    1.409   .     A
C365   C367    1.402   .     A
C365   Cl393   1.768   .     S
C366   C368    1.403   .     A
C366   C376    1.405   .     A
C366   Cl394   1.772   .     S
C367   C369    1.407   .     A
C367   Cl395   1.769   .     S
C368   Cl396   1.771   .     S
C368   C370    1.423   .     A
C369   C371    1.396   .     A
C370   C372    1.406   .     A
C371   H397    1.084   .     S
C371   C373    1.386   .     A
C372   H398    1.083   .     S
C372   C374    1.386   .     A
C373   H399    1.084   .     S
C373   C375    1.400   .     A
C374   H400    1.084   .     S
C374   C376    1.395   .     A
C375   C550    1.463   1_545 S
C376   C549    1.463   .     S
Cu377  Cu378   2.686   .     S
Cu377  O389    1.960   .     S
Cu377  N384    2.018   .     S
Cu377  O392    1.958   .     S
Cu377  O385    1.960   .     S
Cu377  O388    1.950   .     S
Cu378  N383    2.018   .     S
Cu378  O387    1.950   .     S
Cu378  O391    1.958   .     S
Cu378  O386    1.960   .     S
Cu378  O390    1.960   .     S
H379   C421    1.086   .     S
H380   C480    1.087   1_455 S
C407   C427    1.449   .     S
C407   O445    1.293   .     A
C407   O443    1.292   .     A
C408   C428    1.478   .     S
C408   O446    1.304   .     A
C408   O444    1.297   .     A
C409   C411    1.402   .     A
C409   C417    1.401   .     A
C409   H439    1.082   .     S
C410   H440    1.082   .     S
C410   C418    1.401   .     A
C410   C412    1.403   .     A
C411   N441    1.376   .     A
C411   Cl459   1.755   .     S
C412   Cl460   1.756   .     S
C412   N442    1.375   .     A
C413   H461    1.081   .     S
C413   C415    1.414   .     A
C413   N441    1.366   .     A
C414   H462    1.081   .     S
C414   N442    1.366   .     A
C414   C416    1.413   .     A
C415   C417    1.421   .     A
C415   Cl463   1.762   .     S
C416   C418    1.421   .     A
C416   Cl464   1.762   .     S
C418   C69     1.520   1_556 S
C419   O447    1.290   .     A
C419   C421    1.431   .     S
C419   O449    1.288   .     A
C420   O450    1.288   .     A
C420   O448    1.291   .     A
C420   C422    1.433   .     S
C422   C479    1.332   .     S
C422   H496    1.087   .     S
C423   C433    1.409   .     A
C423   C425    1.402   .     A
C423   Cl451   1.768   .     S
C424   C426    1.403   .     A
C424   C434    1.405   .     A
C424   Cl452   1.772   .     S
C425   C427    1.407   .     A
C425   Cl453   1.769   .     S
C426   Cl454   1.771   .     S
C426   C428    1.423   .     A
C427   C429    1.396   .     A
C428   C430    1.406   .     A
C429   H455    1.084   .     S
C429   C431    1.386   .     A
C430   H456    1.083   .     S
C430   C432    1.386   .     A
C431   H457    1.084   .     S
C431   C433    1.400   .     A
C432   H458    1.084   .     S
C432   C434    1.395   .     A
C433   C608    1.463   1_545 S
C434   C607    1.463   .     S
Cu435  Cu436   2.686   .     S
Cu435  O447    1.960   .     S
Cu435  N442    2.018   .     S
Cu435  O450    1.958   .     S
Cu435  O443    1.960   .     S
Cu435  O446    1.950   .     S
Cu436  N441    2.018   .     S
Cu436  O445    1.950   .     S
Cu436  O449    1.958   .     S
Cu436  O444    1.960   .     S
Cu436  O448    1.960   .     S
H437   C479    1.086   .     S
C465   C485    1.449   .     S
C465   O503    1.293   .     A
C465   O501    1.292   .     A
C466   C486    1.478   .     S
C466   O504    1.304   .     A
C466   O502    1.297   .     A
C467   C469    1.402   .     A
C467   C475    1.401   .     A
C467   H497    1.082   .     S
C468   H498    1.082   .     S
C468   C476    1.401   .     A
C468   C470    1.403   .     A
C469   N499    1.376   .     A
C469   Cl517   1.755   .     S
C470   Cl518   1.756   .     S
C470   N500    1.375   .     A
C471   H519    1.081   .     S
C471   C473    1.414   .     A
C471   N499    1.366   .     A
C472   H520    1.081   .     S
C472   N500    1.366   .     A
C472   C474    1.413   .     A
C473   C475    1.421   .     A
C473   Cl521   1.762   .     S
C474   C476    1.421   .     A
C474   Cl522   1.762   .     S
C476   C127    1.520   1_556 S
C477   O505    1.290   .     A
C477   C479    1.431   .     S
C477   O507    1.288   .     A
C478   O508    1.288   .     A
C478   O506    1.291   .     A
C478   C480    1.433   .     S
C480   C363    1.332   1_655 S
C480   H380    1.087   1_655 S
C481   C491    1.409   .     A
C481   C483    1.402   .     A
C481   Cl509   1.768   .     S
C482   C484    1.403   .     A
C482   C492    1.405   .     A
C482   Cl510   1.772   .     S
C483   C485    1.407   .     A
C483   Cl511   1.769   .     S
C484   Cl512   1.771   .     S
C484   C486    1.423   .     A
C485   C487    1.396   .     A
C486   C488    1.406   .     A
C487   H513    1.084   .     S
C487   C489    1.386   .     A
C488   H514    1.083   .     S
C488   C490    1.386   .     A
C489   H515    1.084   .     S
C489   C491    1.400   .     A
C490   H516    1.084   .     S
C490   C492    1.395   .     A
C491   C666    1.463   1_545 S
C492   C665    1.463   .     S
Cu493  Cu494   2.686   .     S
Cu493  O505    1.960   .     S
Cu493  N500    2.018   .     S
Cu493  O508    1.958   .     S
Cu493  O501    1.960   .     S
Cu493  O504    1.950   .     S
Cu494  N499    2.018   .     S
Cu494  O503    1.950   .     S
Cu494  O507    1.958   .     S
Cu494  O502    1.960   .     S
Cu494  O506    1.960   .     S
H495   C363    1.086   1_655 S
C523   C543    1.449   .     S
C523   O561    1.293   .     A
C523   O559    1.292   .     A
C524   C544    1.478   .     S
C524   O562    1.304   .     A
C524   O560    1.297   .     A
C525   C527    1.402   .     A
C525   C533    1.401   .     A
C525   H555    1.082   .     S
C526   H556    1.082   .     S
C526   C534    1.401   .     A
C526   C528    1.403   .     A
C527   N557    1.376   .     A
C527   Cl575   1.755   .     S
C528   Cl576   1.756   .     S
C528   N558    1.375   .     A
C529   H577    1.081   .     S
C529   C531    1.414   .     A
C529   N557    1.366   .     A
C530   H578    1.081   .     S
C530   N558    1.366   .     A
C530   C532    1.413   .     A
C531   C533    1.421   .     A
C531   Cl579   1.762   .     S
C532   C534    1.421   .     A
C532   Cl580   1.762   .     S
C534   C185    1.520   1_556 S
C535   O563    1.290   .     A
C535   C537    1.431   .     S
C535   O565    1.288   .     A
C536   O566    1.288   .     A
C536   O564    1.291   .     A
C536   C538    1.433   .     S
C537   C654    1.332   1_455 S
C537   H669    1.086   1_455 S
C538   C595    1.332   .     S
C538   H612    1.087   .     S
C539   C549    1.409   .     A
C539   C541    1.402   .     A
C539   Cl567   1.768   .     S
C540   C542    1.403   .     A
C540   C550    1.405   .     A
C540   Cl568   1.772   .     S
C541   C543    1.407   .     A
C541   Cl569   1.769   .     S
C542   Cl570   1.771   .     S
C542   C544    1.423   .     A
C543   C545    1.396   .     A
C544   C546    1.406   .     A
C545   H571    1.084   .     S
C545   C547    1.386   .     A
C546   H572    1.083   .     S
C546   C548    1.386   .     A
C547   H573    1.084   .     S
C547   C549    1.400   .     A
C548   H574    1.084   .     S
C548   C550    1.395   .     A
C550   C375    1.463   1_565 S
Cu551  Cu552   2.686   .     S
Cu551  O563    1.960   .     S
Cu551  N558    2.018   .     S
Cu551  O566    1.958   .     S
Cu551  O559    1.960   .     S
Cu551  O562    1.950   .     S
Cu552  N557    2.018   .     S
Cu552  O561    1.950   .     S
Cu552  O565    1.958   .     S
Cu552  O560    1.960   .     S
Cu552  O564    1.960   .     S
H553   C595    1.086   .     S
H554   C654    1.087   1_455 S
C581   C601    1.449   .     S
C581   O619    1.293   .     A
C581   O617    1.292   .     A
C582   C602    1.478   .     S
C582   O620    1.304   .     A
C582   O618    1.297   .     A
C583   C585    1.402   .     A
C583   C591    1.401   .     A
C583   H613    1.082   .     S
C584   H614    1.082   .     S
C584   C592    1.401   .     A
C584   C586    1.403   .     A
C585   N615    1.376   .     A
C585   Cl633   1.755   .     S
C586   Cl634   1.756   .     S
C586   N616    1.375   .     A
C587   H635    1.081   .     S
C587   C589    1.414   .     A
C587   N615    1.366   .     A
C588   H636    1.081   .     S
C588   N616    1.366   .     A
C588   C590    1.413   .     A
C589   C591    1.421   .     A
C589   Cl637   1.762   .     S
C590   C592    1.421   .     A
C590   Cl638   1.762   .     S
C592   C243    1.520   1_556 S
C593   O621    1.290   .     A
C593   C595    1.431   .     S
C593   O623    1.288   .     A
C594   O624    1.288   .     A
C594   O622    1.291   .     A
C594   C596    1.433   .     S
C596   C653    1.332   .     S
C596   H670    1.087   .     S
C597   C607    1.409   .     A
C597   C599    1.402   .     A
C597   Cl625   1.768   .     S
C598   C600    1.403   .     A
C598   C608    1.405   .     A
C598   Cl626   1.772   .     S
C599   C601    1.407   .     A
C599   Cl627   1.769   .     S
C600   Cl628   1.771   .     S
C600   C602    1.423   .     A
C601   C603    1.396   .     A
C602   C604    1.406   .     A
C603   H629    1.084   .     S
C603   C605    1.386   .     A
C604   H630    1.083   .     S
C604   C606    1.386   .     A
C605   H631    1.084   .     S
C605   C607    1.400   .     A
C606   H632    1.084   .     S
C606   C608    1.395   .     A
C608   C433    1.463   1_565 S
Cu609  Cu610   2.686   .     S
Cu609  O621    1.960   .     S
Cu609  N616    2.018   .     S
Cu609  O624    1.958   .     S
Cu609  O617    1.960   .     S
Cu609  O620    1.950   .     S
Cu610  N615    2.018   .     S
Cu610  O619    1.950   .     S
Cu610  O623    1.958   .     S
Cu610  O618    1.960   .     S
Cu610  O622    1.960   .     S
H611   C653    1.086   .     S
C639   C659    1.449   .     S
C639   O677    1.293   .     A
C639   O675    1.292   .     A
C640   C660    1.478   .     S
C640   O678    1.304   .     A
C640   O676    1.297   .     A
C641   C643    1.402   .     A
C641   C649    1.401   .     A
C641   H671    1.082   .     S
C642   H672    1.082   .     S
C642   C650    1.401   .     A
C642   C644    1.403   .     A
C643   N673    1.376   .     A
C643   Cl691   1.755   .     S
C644   Cl692   1.756   .     S
C644   N674    1.375   .     A
C645   H693    1.081   .     S
C645   C647    1.414   .     A
C645   N673    1.366   .     A
C646   H694    1.081   .     S
C646   N674    1.366   .     A
C646   C648    1.413   .     A
C647   C649    1.421   .     A
C647   Cl695   1.762   .     S
C648   C650    1.421   .     A
C648   Cl696   1.762   .     S
C650   C301    1.520   1_556 S
C651   O679    1.290   .     A
C651   C653    1.431   .     S
C651   O681    1.288   .     A
C652   O682    1.288   .     A
C652   O680    1.291   .     A
C652   C654    1.433   .     S
C654   C537    1.332   1_655 S
C654   H554    1.087   1_655 S
C655   C665    1.409   .     A
C655   C657    1.402   .     A
C655   Cl683   1.768   .     S
C656   C658    1.403   .     A
C656   C666    1.405   .     A
C656   Cl684   1.772   .     S
C657   C659    1.407   .     A
C657   Cl685   1.769   .     S
C658   Cl686   1.771   .     S
C658   C660    1.423   .     A
C659   C661    1.396   .     A
C660   C662    1.406   .     A
C661   H687    1.084   .     S
C661   C663    1.386   .     A
C662   H688    1.083   .     S
C662   C664    1.386   .     A
C663   H689    1.084   .     S
C663   C665    1.400   .     A
C664   H690    1.084   .     S
C664   C666    1.395   .     A
C666   C491    1.463   1_565 S
Cu667  Cu668   2.686   .     S
Cu667  O679    1.960   .     S
Cu667  N674    2.018   .     S
Cu667  O682    1.958   .     S
Cu667  O675    1.960   .     S
Cu667  O678    1.950   .     S
Cu668  N673    2.018   .     S
Cu668  O677    1.950   .     S
Cu668  O681    1.958   .     S
Cu668  O676    1.960   .     S
Cu668  O680    1.960   .     S
H669   C537    1.086   1_655 S
