data_str_m3_o10_o17_pcu_sym.145
_audit_creation_date              2020-01-03
_audit_creation_method            'Materials Studio'
_symmetry_space_group_name_H-M    'P1'
_symmetry_Int_Tables_number       1
_symmetry_cell_setting            triclinic
loop_
_symmetry_equiv_pos_as_xyz
  x,y,z
_cell_length_a                    23.5070
_cell_length_b                    25.6946
_cell_length_c                    29.6869
_cell_angle_alpha                 91.9008
_cell_angle_beta                  85.7761
_cell_angle_gamma                 93.2915
loop_
_atom_site_label
_atom_site_type_symbol
_atom_site_fract_x
_atom_site_fract_y
_atom_site_fract_z
_atom_site_U_iso_or_equiv
_atom_site_adp_type
_atom_site_occupancy
C1     C     0.18176   0.26478   0.24873   0.00000  Uiso   1.00
C2     C     0.18164   0.21342   0.40695   0.00000  Uiso   1.00
C3     C     0.16540   0.16699   0.11611   0.00000  Uiso   1.00
C4     C     0.16887   0.16676   0.38379   0.00000  Uiso   1.00
C5     C     0.17720   0.21387   0.09428   0.00000  Uiso   1.00
C6     C     0.15669   0.11999   0.40568   0.00000  Uiso   1.00
C7     C     0.17915   0.21410   0.04754   0.00000  Uiso   1.00
C8     C     0.15680   0.11950   0.45227   0.00000  Uiso   1.00
C9     C     0.16806   0.16678   0.02331   0.00000  Uiso   1.00
C10    C     0.16889   0.16670   0.47641   0.00000  Uiso   1.00
C11    C     0.15624   0.11950   0.04604   0.00000  Uiso   1.00
C12    C     0.15164   0.06858   0.25074   0.00000  Uiso   1.00
C13    C     0.18153   0.21385   0.45361   0.00000  Uiso   1.00
C14    C     0.19208   0.26058   0.02470   0.00000  Uiso   1.00
C15    C     0.14472   0.07289   0.47507   0.00000  Uiso   1.00
C16    C     0.31412   0.10192   0.17494   0.00000  Uiso   1.00
C17    C     0.01127   0.05939   0.14769   0.00000  Uiso   1.00
C18    C     0.01814   0.25389   0.30453   0.00000  Uiso   1.00
C19    C     0.31594   0.28661   0.33837   0.00000  Uiso   1.00
C20    C     0.19343   0.26042   0.47779   0.00000  Uiso   1.00
C21    C     0.14472   0.07285   0.02188   0.00000  Uiso   1.00
C22    C     0.18986   0.31927   0.24815   0.00000  Uiso   1.00
C23    C     0.14387   0.01414   0.25019   0.00000  Uiso   1.00
C24    C     0.16736   0.16696   0.33628   0.00000  Uiso   1.00
C25    C     0.16614   0.16670   0.16370   0.00000  Uiso   1.00
C26    C     0.15621   0.11989   0.09265   0.00000  Uiso   1.00
H27    H     0.14954   0.08381   0.11075   0.00000  Uiso   1.00
H28    H     0.10040   0.33085   0.25128   0.00000  Uiso   1.00
H29    H     0.31119   0.13545   0.15263   0.00000  Uiso   1.00
H30    H     0.27144   0.08494   0.18590   0.00000  Uiso   1.00
H31    H     0.01555   0.02541   0.16914   0.00000  Uiso   1.00
H32    H     0.31991   0.04655   0.11843   0.00000  Uiso   1.00
H33    H     0.05426   0.07451   0.13501   0.00000  Uiso   1.00
H34    H     0.02611   0.27618   0.27305   0.00000  Uiso   1.00
H35    H     0.05862   0.24683   0.31962   0.00000  Uiso   1.00
H36    H     0.30715   0.26565   0.37048   0.00000  Uiso   1.00
H37    H     0.00623   0.32435   0.34539   0.00000  Uiso   1.00
H38    H     0.19086   0.24914   0.38861   0.00000  Uiso   1.00
H39    H     0.27474   0.29448   0.32454   0.00000  Uiso   1.00
H40    H     0.18538   0.24971   0.11372   0.00000  Uiso   1.00
H41    H     0.14706   0.08436   0.38637   0.00000  Uiso   1.00
H42    H     0.20125   0.29684   0.04311   0.00000  Uiso   1.00
H43    H     0.13519   0.03666   0.45670   0.00000  Uiso   1.00
H44    H     0.20358   0.29659   0.46044   0.00000  Uiso   1.00
H45    H     0.13514   0.03660   0.03923   0.00000  Uiso   1.00
H46    H     0.23351   0.00269   0.24656   0.00000  Uiso   1.00
N47    N     0.31678   0.15265   0.23783   0.00000  Uiso   1.00
N48    N     0.01656   0.18068   0.26217   0.00000  Uiso   1.00
O49    O     0.12975   0.24619   0.25299   0.00000  Uiso   1.00
O50    O     0.32075   0.20685   0.29560   0.00000  Uiso   1.00
O51    O     0.20358   0.08714   0.24702   0.00000  Uiso   1.00
O52    O     0.22613   0.23721   0.24519   0.00000  Uiso   1.00
O53    O     0.10720   0.09613   0.25482   0.00000  Uiso   1.00
O54    O     0.11847   0.17117   0.31998   0.00000  Uiso   1.00
O55    O     0.21486   0.16216   0.18003   0.00000  Uiso   1.00
O56    O     0.21485   0.16219   0.31218   0.00000  Uiso   1.00
O57    O     0.11848   0.17115   0.18783   0.00000  Uiso   1.00
O58    O     0.01230   0.11742   0.21185   0.00000  Uiso   1.00
Zn59   Zn    0.10231   0.17266   0.25521   0.00000  Uiso   1.00
Zn60   Zn    0.23102   0.16067   0.24479   0.00000  Uiso   1.00
C61    C     0.51510   0.26478   0.24873   0.00000  Uiso   1.00
C62    C     0.51498   0.21342   0.40695   0.00000  Uiso   1.00
C63    C     0.49873   0.16699   0.11611   0.00000  Uiso   1.00
C64    C     0.50220   0.16676   0.38379   0.00000  Uiso   1.00
C65    C     0.51054   0.21387   0.09428   0.00000  Uiso   1.00
C66    C     0.49002   0.11999   0.40568   0.00000  Uiso   1.00
C67    C     0.51249   0.21410   0.04754   0.00000  Uiso   1.00
C68    C     0.49014   0.11950   0.45227   0.00000  Uiso   1.00
C69    C     0.50139   0.16678   0.02331   0.00000  Uiso   1.00
C70    C     0.50222   0.16670   0.47641   0.00000  Uiso   1.00
C71    C     0.48958   0.11950   0.04604   0.00000  Uiso   1.00
C72    C     0.48497   0.06858   0.25074   0.00000  Uiso   1.00
C73    C     0.51487   0.21385   0.45361   0.00000  Uiso   1.00
C74    C     0.52541   0.26058   0.02470   0.00000  Uiso   1.00
C75    C     0.47805   0.07289   0.47507   0.00000  Uiso   1.00
C76    C     0.64745   0.10192   0.17494   0.00000  Uiso   1.00
C77    C     0.34460   0.05939   0.14769   0.00000  Uiso   1.00
C78    C     0.35147   0.25389   0.30453   0.00000  Uiso   1.00
C79    C     0.64928   0.28661   0.33837   0.00000  Uiso   1.00
C80    C     0.52677   0.26042   0.47779   0.00000  Uiso   1.00
C81    C     0.47805   0.07285   0.02188   0.00000  Uiso   1.00
C82    C     0.52319   0.31927   0.24815   0.00000  Uiso   1.00
C83    C     0.47720   0.01414   0.25019   0.00000  Uiso   1.00
C84    C     0.50069   0.16696   0.33628   0.00000  Uiso   1.00
C85    C     0.49948   0.16670   0.16370   0.00000  Uiso   1.00
C86    C     0.48955   0.11989   0.09265   0.00000  Uiso   1.00
H87    H     0.48287   0.08381   0.11075   0.00000  Uiso   1.00
H88    H     0.43374   0.33085   0.25128   0.00000  Uiso   1.00
H89    H     0.64452   0.13545   0.15263   0.00000  Uiso   1.00
H90    H     0.60477   0.08494   0.18590   0.00000  Uiso   1.00
H91    H     0.34888   0.02541   0.16914   0.00000  Uiso   1.00
H92    H     0.65325   0.04655   0.11843   0.00000  Uiso   1.00
H93    H     0.38759   0.07451   0.13501   0.00000  Uiso   1.00
H94    H     0.35944   0.27618   0.27305   0.00000  Uiso   1.00
H95    H     0.39195   0.24683   0.31962   0.00000  Uiso   1.00
H96    H     0.64049   0.26565   0.37048   0.00000  Uiso   1.00
H97    H     0.33956   0.32435   0.34539   0.00000  Uiso   1.00
H98    H     0.52419   0.24914   0.38861   0.00000  Uiso   1.00
H99    H     0.60808   0.29448   0.32454   0.00000  Uiso   1.00
H100   H     0.51871   0.24971   0.11372   0.00000  Uiso   1.00
H101   H     0.48039   0.08436   0.38637   0.00000  Uiso   1.00
H102   H     0.53458   0.29684   0.04311   0.00000  Uiso   1.00
H103   H     0.46852   0.03666   0.45670   0.00000  Uiso   1.00
H104   H     0.53691   0.29659   0.46044   0.00000  Uiso   1.00
H105   H     0.46848   0.03660   0.03923   0.00000  Uiso   1.00
H106   H     0.56684   0.00269   0.24656   0.00000  Uiso   1.00
N107   N     0.65011   0.15265   0.23783   0.00000  Uiso   1.00
N108   N     0.34989   0.18068   0.26217   0.00000  Uiso   1.00
O109   O     0.46308   0.24619   0.25299   0.00000  Uiso   1.00
O110   O     0.65409   0.20685   0.29560   0.00000  Uiso   1.00
O111   O     0.53692   0.08714   0.24702   0.00000  Uiso   1.00
O112   O     0.55946   0.23721   0.24519   0.00000  Uiso   1.00
O113   O     0.44054   0.09613   0.25482   0.00000  Uiso   1.00
O114   O     0.45181   0.17117   0.31998   0.00000  Uiso   1.00
O115   O     0.54819   0.16216   0.18003   0.00000  Uiso   1.00
O116   O     0.54819   0.16219   0.31218   0.00000  Uiso   1.00
O117   O     0.45181   0.17115   0.18783   0.00000  Uiso   1.00
O118   O     0.34564   0.11742   0.21185   0.00000  Uiso   1.00
Zn119  Zn    0.43565   0.17266   0.25521   0.00000  Uiso   1.00
Zn120  Zn    0.56435   0.16067   0.24479   0.00000  Uiso   1.00
C121   C     0.84843   0.26478   0.24873   0.00000  Uiso   1.00
C122   C     0.84831   0.21342   0.40695   0.00000  Uiso   1.00
C123   C     0.83207   0.16699   0.11611   0.00000  Uiso   1.00
C124   C     0.83554   0.16676   0.38379   0.00000  Uiso   1.00
C125   C     0.84387   0.21387   0.09428   0.00000  Uiso   1.00
C126   C     0.82336   0.11999   0.40568   0.00000  Uiso   1.00
C127   C     0.84582   0.21410   0.04754   0.00000  Uiso   1.00
C128   C     0.82347   0.11950   0.45227   0.00000  Uiso   1.00
C129   C     0.83472   0.16678   0.02331   0.00000  Uiso   1.00
C130   C     0.83556   0.16670   0.47641   0.00000  Uiso   1.00
C131   C     0.82291   0.11950   0.04604   0.00000  Uiso   1.00
C132   C     0.81831   0.06858   0.25074   0.00000  Uiso   1.00
C133   C     0.84820   0.21385   0.45361   0.00000  Uiso   1.00
C134   C     0.85874   0.26058   0.02470   0.00000  Uiso   1.00
C135   C     0.81139   0.07289   0.47507   0.00000  Uiso   1.00
C136   C     0.98078   0.10192   0.17494   0.00000  Uiso   1.00
C137   C     0.67794   0.05939   0.14769   0.00000  Uiso   1.00
C138   C     0.68481   0.25389   0.30453   0.00000  Uiso   1.00
C139   C     0.98261   0.28661   0.33837   0.00000  Uiso   1.00
C140   C     0.86010   0.26042   0.47779   0.00000  Uiso   1.00
C141   C     0.81138   0.07285   0.02188   0.00000  Uiso   1.00
C142   C     0.85653   0.31927   0.24815   0.00000  Uiso   1.00
C143   C     0.81053   0.01414   0.25019   0.00000  Uiso   1.00
C144   C     0.83403   0.16696   0.33628   0.00000  Uiso   1.00
C145   C     0.83281   0.16670   0.16370   0.00000  Uiso   1.00
C146   C     0.82288   0.11989   0.09265   0.00000  Uiso   1.00
H147   H     0.81620   0.08381   0.11075   0.00000  Uiso   1.00
H148   H     0.76707   0.33085   0.25128   0.00000  Uiso   1.00
H149   H     0.97785   0.13545   0.15263   0.00000  Uiso   1.00
H150   H     0.93810   0.08494   0.18590   0.00000  Uiso   1.00
H151   H     0.68222   0.02541   0.16914   0.00000  Uiso   1.00
H152   H     0.98658   0.04655   0.11843   0.00000  Uiso   1.00
H153   H     0.72093   0.07451   0.13501   0.00000  Uiso   1.00
H154   H     0.69277   0.27618   0.27305   0.00000  Uiso   1.00
H155   H     0.72528   0.24683   0.31962   0.00000  Uiso   1.00
H156   H     0.97382   0.26565   0.37048   0.00000  Uiso   1.00
H157   H     0.67289   0.32435   0.34539   0.00000  Uiso   1.00
H158   H     0.85753   0.24914   0.38861   0.00000  Uiso   1.00
H159   H     0.94141   0.29448   0.32454   0.00000  Uiso   1.00
H160   H     0.85205   0.24971   0.11372   0.00000  Uiso   1.00
H161   H     0.81373   0.08436   0.38637   0.00000  Uiso   1.00
H162   H     0.86792   0.29684   0.04311   0.00000  Uiso   1.00
H163   H     0.80185   0.03666   0.45670   0.00000  Uiso   1.00
H164   H     0.87024   0.29659   0.46044   0.00000  Uiso   1.00
H165   H     0.80181   0.03660   0.03923   0.00000  Uiso   1.00
H166   H     0.90018   0.00269   0.24656   0.00000  Uiso   1.00
N167   N     0.98344   0.15265   0.23783   0.00000  Uiso   1.00
N168   N     0.68322   0.18068   0.26217   0.00000  Uiso   1.00
O169   O     0.79642   0.24619   0.25299   0.00000  Uiso   1.00
O170   O     0.98742   0.20685   0.29560   0.00000  Uiso   1.00
O171   O     0.87025   0.08714   0.24702   0.00000  Uiso   1.00
O172   O     0.89280   0.23721   0.24519   0.00000  Uiso   1.00
O173   O     0.77387   0.09613   0.25482   0.00000  Uiso   1.00
O174   O     0.78514   0.17117   0.31998   0.00000  Uiso   1.00
O175   O     0.88153   0.16216   0.18003   0.00000  Uiso   1.00
O176   O     0.88152   0.16219   0.31218   0.00000  Uiso   1.00
O177   O     0.78515   0.17115   0.18783   0.00000  Uiso   1.00
O178   O     0.67897   0.11742   0.21185   0.00000  Uiso   1.00
Zn179  Zn    0.76898   0.17266   0.25521   0.00000  Uiso   1.00
Zn180  Zn    0.89769   0.16067   0.24479   0.00000  Uiso   1.00
C181   C     0.18176   0.59812   0.24873   0.00000  Uiso   1.00
C182   C     0.18164   0.54676   0.40695   0.00000  Uiso   1.00
C183   C     0.16540   0.50032   0.11611   0.00000  Uiso   1.00
C184   C     0.16887   0.50010   0.38379   0.00000  Uiso   1.00
C185   C     0.17720   0.54721   0.09428   0.00000  Uiso   1.00
C186   C     0.15669   0.45333   0.40568   0.00000  Uiso   1.00
C187   C     0.17915   0.54744   0.04754   0.00000  Uiso   1.00
C188   C     0.15680   0.45283   0.45227   0.00000  Uiso   1.00
C189   C     0.16806   0.50011   0.02331   0.00000  Uiso   1.00
C190   C     0.16889   0.50003   0.47641   0.00000  Uiso   1.00
C191   C     0.15624   0.45283   0.04604   0.00000  Uiso   1.00
C192   C     0.15164   0.40191   0.25074   0.00000  Uiso   1.00
C193   C     0.18153   0.54718   0.45361   0.00000  Uiso   1.00
C194   C     0.19208   0.59391   0.02470   0.00000  Uiso   1.00
C195   C     0.14472   0.40622   0.47507   0.00000  Uiso   1.00
C196   C     0.31412   0.43525   0.17494   0.00000  Uiso   1.00
C197   C     0.01127   0.39273   0.14769   0.00000  Uiso   1.00
C198   C     0.01814   0.58722   0.30453   0.00000  Uiso   1.00
C199   C     0.31594   0.61994   0.33837   0.00000  Uiso   1.00
C200   C     0.19343   0.59376   0.47779   0.00000  Uiso   1.00
C201   C     0.14472   0.40618   0.02188   0.00000  Uiso   1.00
C202   C     0.18986   0.65260   0.24815   0.00000  Uiso   1.00
C203   C     0.14387   0.34747   0.25019   0.00000  Uiso   1.00
C204   C     0.16736   0.50029   0.33628   0.00000  Uiso   1.00
C205   C     0.16614   0.50003   0.16370   0.00000  Uiso   1.00
C206   C     0.15621   0.45322   0.09265   0.00000  Uiso   1.00
H207   H     0.14954   0.41714   0.11075   0.00000  Uiso   1.00
H208   H     0.10040   0.66419   0.25128   0.00000  Uiso   1.00
H209   H     0.31119   0.46878   0.15263   0.00000  Uiso   1.00
H210   H     0.27144   0.41827   0.18590   0.00000  Uiso   1.00
H211   H     0.01555   0.35874   0.16914   0.00000  Uiso   1.00
H212   H     0.31991   0.37988   0.11843   0.00000  Uiso   1.00
H213   H     0.05426   0.40784   0.13501   0.00000  Uiso   1.00
H214   H     0.02611   0.60951   0.27305   0.00000  Uiso   1.00
H215   H     0.05862   0.58016   0.31962   0.00000  Uiso   1.00
H216   H     0.30715   0.59898   0.37048   0.00000  Uiso   1.00
H217   H     0.00623   0.65768   0.34539   0.00000  Uiso   1.00
H218   H     0.19086   0.58248   0.38861   0.00000  Uiso   1.00
H219   H     0.27474   0.62781   0.32454   0.00000  Uiso   1.00
H220   H     0.18538   0.58304   0.11372   0.00000  Uiso   1.00
H221   H     0.14706   0.41769   0.38637   0.00000  Uiso   1.00
H222   H     0.20125   0.63018   0.04311   0.00000  Uiso   1.00
H223   H     0.13519   0.37000   0.45670   0.00000  Uiso   1.00
H224   H     0.20358   0.62992   0.46044   0.00000  Uiso   1.00
H225   H     0.13514   0.36994   0.03923   0.00000  Uiso   1.00
H226   H     0.23351   0.33603   0.24656   0.00000  Uiso   1.00
N227   N     0.31678   0.48598   0.23783   0.00000  Uiso   1.00
N228   N     0.01656   0.51402   0.26217   0.00000  Uiso   1.00
O229   O     0.12975   0.57952   0.25299   0.00000  Uiso   1.00
O230   O     0.32075   0.54018   0.29560   0.00000  Uiso   1.00
O231   O     0.20358   0.42048   0.24702   0.00000  Uiso   1.00
O232   O     0.22613   0.57054   0.24519   0.00000  Uiso   1.00
O233   O     0.10720   0.42946   0.25482   0.00000  Uiso   1.00
O234   O     0.11847   0.50450   0.31998   0.00000  Uiso   1.00
O235   O     0.21486   0.49550   0.18003   0.00000  Uiso   1.00
O236   O     0.21485   0.49552   0.31218   0.00000  Uiso   1.00
O237   O     0.11848   0.50448   0.18783   0.00000  Uiso   1.00
O238   O     0.01230   0.45075   0.21185   0.00000  Uiso   1.00
Zn239  Zn    0.10231   0.50600   0.25521   0.00000  Uiso   1.00
Zn240  Zn    0.23102   0.49400   0.24479   0.00000  Uiso   1.00
C241   C     0.51510   0.59812   0.24873   0.00000  Uiso   1.00
C242   C     0.51498   0.54676   0.40695   0.00000  Uiso   1.00
C243   C     0.49873   0.50032   0.11611   0.00000  Uiso   1.00
C244   C     0.50220   0.50010   0.38379   0.00000  Uiso   1.00
C245   C     0.51054   0.54721   0.09428   0.00000  Uiso   1.00
C246   C     0.49002   0.45333   0.40568   0.00000  Uiso   1.00
C247   C     0.51249   0.54744   0.04754   0.00000  Uiso   1.00
C248   C     0.49014   0.45283   0.45227   0.00000  Uiso   1.00
C249   C     0.50139   0.50011   0.02331   0.00000  Uiso   1.00
C250   C     0.50222   0.50003   0.47641   0.00000  Uiso   1.00
C251   C     0.48958   0.45283   0.04604   0.00000  Uiso   1.00
C252   C     0.48497   0.40191   0.25074   0.00000  Uiso   1.00
C253   C     0.51487   0.54718   0.45361   0.00000  Uiso   1.00
C254   C     0.52541   0.59391   0.02470   0.00000  Uiso   1.00
C255   C     0.47805   0.40622   0.47507   0.00000  Uiso   1.00
C256   C     0.64745   0.43525   0.17494   0.00000  Uiso   1.00
C257   C     0.34460   0.39273   0.14769   0.00000  Uiso   1.00
C258   C     0.35147   0.58722   0.30453   0.00000  Uiso   1.00
C259   C     0.64928   0.61994   0.33837   0.00000  Uiso   1.00
C260   C     0.52677   0.59376   0.47779   0.00000  Uiso   1.00
C261   C     0.47805   0.40618   0.02188   0.00000  Uiso   1.00
C262   C     0.52319   0.65260   0.24815   0.00000  Uiso   1.00
C263   C     0.47720   0.34747   0.25019   0.00000  Uiso   1.00
C264   C     0.50069   0.50029   0.33628   0.00000  Uiso   1.00
C265   C     0.49948   0.50003   0.16370   0.00000  Uiso   1.00
C266   C     0.48955   0.45322   0.09265   0.00000  Uiso   1.00
H267   H     0.48287   0.41714   0.11075   0.00000  Uiso   1.00
H268   H     0.43374   0.66419   0.25128   0.00000  Uiso   1.00
H269   H     0.64452   0.46878   0.15263   0.00000  Uiso   1.00
H270   H     0.60477   0.41827   0.18590   0.00000  Uiso   1.00
H271   H     0.34888   0.35874   0.16914   0.00000  Uiso   1.00
H272   H     0.65325   0.37988   0.11843   0.00000  Uiso   1.00
H273   H     0.38759   0.40784   0.13501   0.00000  Uiso   1.00
H274   H     0.35944   0.60951   0.27305   0.00000  Uiso   1.00
H275   H     0.39195   0.58016   0.31962   0.00000  Uiso   1.00
H276   H     0.64049   0.59898   0.37048   0.00000  Uiso   1.00
H277   H     0.33956   0.65768   0.34539   0.00000  Uiso   1.00
H278   H     0.52419   0.58248   0.38861   0.00000  Uiso   1.00
H279   H     0.60808   0.62781   0.32454   0.00000  Uiso   1.00
H280   H     0.51871   0.58304   0.11372   0.00000  Uiso   1.00
H281   H     0.48039   0.41769   0.38637   0.00000  Uiso   1.00
H282   H     0.53458   0.63018   0.04311   0.00000  Uiso   1.00
H283   H     0.46852   0.37000   0.45670   0.00000  Uiso   1.00
H284   H     0.53691   0.62992   0.46044   0.00000  Uiso   1.00
H285   H     0.46848   0.36994   0.03923   0.00000  Uiso   1.00
H286   H     0.56684   0.33603   0.24656   0.00000  Uiso   1.00
N287   N     0.65011   0.48598   0.23783   0.00000  Uiso   1.00
N288   N     0.34989   0.51402   0.26217   0.00000  Uiso   1.00
O289   O     0.46308   0.57952   0.25299   0.00000  Uiso   1.00
O290   O     0.65409   0.54018   0.29560   0.00000  Uiso   1.00
O291   O     0.53692   0.42048   0.24702   0.00000  Uiso   1.00
O292   O     0.55946   0.57054   0.24519   0.00000  Uiso   1.00
O293   O     0.44054   0.42946   0.25482   0.00000  Uiso   1.00
O294   O     0.45181   0.50450   0.31998   0.00000  Uiso   1.00
O295   O     0.54819   0.49550   0.18003   0.00000  Uiso   1.00
O296   O     0.54819   0.49552   0.31218   0.00000  Uiso   1.00
O297   O     0.45181   0.50448   0.18783   0.00000  Uiso   1.00
O298   O     0.34564   0.45075   0.21185   0.00000  Uiso   1.00
Zn299  Zn    0.43565   0.50600   0.25521   0.00000  Uiso   1.00
Zn300  Zn    0.56435   0.49400   0.24479   0.00000  Uiso   1.00
C301   C     0.84843   0.59812   0.24873   0.00000  Uiso   1.00
C302   C     0.84831   0.54676   0.40695   0.00000  Uiso   1.00
C303   C     0.83207   0.50032   0.11611   0.00000  Uiso   1.00
C304   C     0.83554   0.50010   0.38379   0.00000  Uiso   1.00
C305   C     0.84387   0.54721   0.09428   0.00000  Uiso   1.00
C306   C     0.82336   0.45333   0.40568   0.00000  Uiso   1.00
C307   C     0.84582   0.54744   0.04754   0.00000  Uiso   1.00
C308   C     0.82347   0.45283   0.45227   0.00000  Uiso   1.00
C309   C     0.83472   0.50011   0.02331   0.00000  Uiso   1.00
C310   C     0.83556   0.50003   0.47641   0.00000  Uiso   1.00
C311   C     0.82291   0.45283   0.04604   0.00000  Uiso   1.00
C312   C     0.81831   0.40191   0.25074   0.00000  Uiso   1.00
C313   C     0.84820   0.54718   0.45361   0.00000  Uiso   1.00
C314   C     0.85874   0.59391   0.02470   0.00000  Uiso   1.00
C315   C     0.81139   0.40622   0.47507   0.00000  Uiso   1.00
C316   C     0.98078   0.43525   0.17494   0.00000  Uiso   1.00
C317   C     0.67794   0.39273   0.14769   0.00000  Uiso   1.00
C318   C     0.68481   0.58722   0.30453   0.00000  Uiso   1.00
C319   C     0.98261   0.61994   0.33837   0.00000  Uiso   1.00
C320   C     0.86010   0.59376   0.47779   0.00000  Uiso   1.00
C321   C     0.81138   0.40618   0.02188   0.00000  Uiso   1.00
C322   C     0.85653   0.65260   0.24815   0.00000  Uiso   1.00
C323   C     0.81053   0.34747   0.25019   0.00000  Uiso   1.00
C324   C     0.83403   0.50029   0.33628   0.00000  Uiso   1.00
C325   C     0.83281   0.50003   0.16370   0.00000  Uiso   1.00
C326   C     0.82288   0.45322   0.09265   0.00000  Uiso   1.00
H327   H     0.81620   0.41714   0.11075   0.00000  Uiso   1.00
H328   H     0.76707   0.66419   0.25128   0.00000  Uiso   1.00
H329   H     0.97785   0.46878   0.15263   0.00000  Uiso   1.00
H330   H     0.93810   0.41827   0.18590   0.00000  Uiso   1.00
H331   H     0.68222   0.35874   0.16914   0.00000  Uiso   1.00
H332   H     0.98658   0.37988   0.11843   0.00000  Uiso   1.00
H333   H     0.72093   0.40784   0.13501   0.00000  Uiso   1.00
H334   H     0.69277   0.60951   0.27305   0.00000  Uiso   1.00
H335   H     0.72528   0.58016   0.31962   0.00000  Uiso   1.00
H336   H     0.97382   0.59898   0.37048   0.00000  Uiso   1.00
H337   H     0.67289   0.65768   0.34539   0.00000  Uiso   1.00
H338   H     0.85753   0.58248   0.38861   0.00000  Uiso   1.00
H339   H     0.94141   0.62781   0.32454   0.00000  Uiso   1.00
H340   H     0.85205   0.58304   0.11372   0.00000  Uiso   1.00
H341   H     0.81373   0.41769   0.38637   0.00000  Uiso   1.00
H342   H     0.86792   0.63018   0.04311   0.00000  Uiso   1.00
H343   H     0.80185   0.37000   0.45670   0.00000  Uiso   1.00
H344   H     0.87024   0.62992   0.46044   0.00000  Uiso   1.00
H345   H     0.80181   0.36994   0.03923   0.00000  Uiso   1.00
H346   H     0.90018   0.33603   0.24656   0.00000  Uiso   1.00
N347   N     0.98344   0.48598   0.23783   0.00000  Uiso   1.00
N348   N     0.68322   0.51402   0.26217   0.00000  Uiso   1.00
O349   O     0.79642   0.57952   0.25299   0.00000  Uiso   1.00
O350   O     0.98742   0.54018   0.29560   0.00000  Uiso   1.00
O351   O     0.87025   0.42048   0.24702   0.00000  Uiso   1.00
O352   O     0.89280   0.57054   0.24519   0.00000  Uiso   1.00
O353   O     0.77387   0.42946   0.25482   0.00000  Uiso   1.00
O354   O     0.78514   0.50450   0.31998   0.00000  Uiso   1.00
O355   O     0.88153   0.49550   0.18003   0.00000  Uiso   1.00
O356   O     0.88152   0.49552   0.31218   0.00000  Uiso   1.00
O357   O     0.78515   0.50448   0.18783   0.00000  Uiso   1.00
O358   O     0.67897   0.45075   0.21185   0.00000  Uiso   1.00
Zn359  Zn    0.76898   0.50600   0.25521   0.00000  Uiso   1.00
Zn360  Zn    0.89769   0.49400   0.24479   0.00000  Uiso   1.00
C361   C     0.18176   0.93145   0.24873   0.00000  Uiso   1.00
C362   C     0.18164   0.88009   0.40695   0.00000  Uiso   1.00
C363   C     0.16540   0.83365   0.11611   0.00000  Uiso   1.00
C364   C     0.16887   0.83343   0.38379   0.00000  Uiso   1.00
C365   C     0.17720   0.88054   0.09428   0.00000  Uiso   1.00
C366   C     0.15669   0.78666   0.40568   0.00000  Uiso   1.00
C367   C     0.17915   0.88077   0.04754   0.00000  Uiso   1.00
C368   C     0.15680   0.78617   0.45227   0.00000  Uiso   1.00
C369   C     0.16806   0.83344   0.02331   0.00000  Uiso   1.00
C370   C     0.16889   0.83336   0.47641   0.00000  Uiso   1.00
C371   C     0.15624   0.78616   0.04604   0.00000  Uiso   1.00
C372   C     0.15164   0.73524   0.25074   0.00000  Uiso   1.00
C373   C     0.18153   0.88051   0.45361   0.00000  Uiso   1.00
C374   C     0.19208   0.92724   0.02470   0.00000  Uiso   1.00
C375   C     0.14472   0.73956   0.47507   0.00000  Uiso   1.00
C376   C     0.31412   0.76859   0.17494   0.00000  Uiso   1.00
C377   C     0.01127   0.72606   0.14769   0.00000  Uiso   1.00
C378   C     0.01814   0.92056   0.30453   0.00000  Uiso   1.00
C379   C     0.31594   0.95328   0.33837   0.00000  Uiso   1.00
C380   C     0.19343   0.92709   0.47779   0.00000  Uiso   1.00
C381   C     0.14472   0.73952   0.02188   0.00000  Uiso   1.00
C382   C     0.18986   0.98594   0.24815   0.00000  Uiso   1.00
C383   C     0.14387   0.68080   0.25019   0.00000  Uiso   1.00
C384   C     0.16736   0.83362   0.33628   0.00000  Uiso   1.00
C385   C     0.16614   0.83337   0.16370   0.00000  Uiso   1.00
C386   C     0.15621   0.78656   0.09265   0.00000  Uiso   1.00
H387   H     0.14954   0.75048   0.11075   0.00000  Uiso   1.00
H388   H     0.10040   0.99752   0.25128   0.00000  Uiso   1.00
H389   H     0.31119   0.80211   0.15263   0.00000  Uiso   1.00
H390   H     0.27144   0.75161   0.18590   0.00000  Uiso   1.00
H391   H     0.01555   0.69207   0.16914   0.00000  Uiso   1.00
H392   H     0.31991   0.71321   0.11843   0.00000  Uiso   1.00
H393   H     0.05426   0.74118   0.13501   0.00000  Uiso   1.00
H394   H     0.02611   0.94284   0.27305   0.00000  Uiso   1.00
H395   H     0.05862   0.91349   0.31962   0.00000  Uiso   1.00
H396   H     0.30715   0.93231   0.37048   0.00000  Uiso   1.00
H397   H     0.00623   0.99101   0.34539   0.00000  Uiso   1.00
H398   H     0.19086   0.91581   0.38861   0.00000  Uiso   1.00
H399   H     0.27474   0.96115   0.32454   0.00000  Uiso   1.00
H400   H     0.18538   0.91638   0.11372   0.00000  Uiso   1.00
H401   H     0.14706   0.75103   0.38637   0.00000  Uiso   1.00
H402   H     0.20125   0.96351   0.04311   0.00000  Uiso   1.00
H403   H     0.13519   0.70333   0.45670   0.00000  Uiso   1.00
H404   H     0.20358   0.96326   0.46044   0.00000  Uiso   1.00
H405   H     0.13514   0.70327   0.03923   0.00000  Uiso   1.00
H406   H     0.23351   0.66936   0.24656   0.00000  Uiso   1.00
N407   N     0.31678   0.81932   0.23783   0.00000  Uiso   1.00
N408   N     0.01656   0.84735   0.26217   0.00000  Uiso   1.00
O409   O     0.12975   0.91286   0.25299   0.00000  Uiso   1.00
O410   O     0.32075   0.87351   0.29560   0.00000  Uiso   1.00
O411   O     0.20358   0.75381   0.24702   0.00000  Uiso   1.00
O412   O     0.22613   0.90387   0.24519   0.00000  Uiso   1.00
O413   O     0.10720   0.76279   0.25482   0.00000  Uiso   1.00
O414   O     0.11847   0.83784   0.31998   0.00000  Uiso   1.00
O415   O     0.21486   0.82883   0.18003   0.00000  Uiso   1.00
O416   O     0.21485   0.82885   0.31218   0.00000  Uiso   1.00
O417   O     0.11848   0.83781   0.18783   0.00000  Uiso   1.00
O418   O     0.01230   0.78408   0.21185   0.00000  Uiso   1.00
Zn419  Zn    0.10231   0.83933   0.25521   0.00000  Uiso   1.00
Zn420  Zn    0.23102   0.82734   0.24479   0.00000  Uiso   1.00
C421   C     0.51510   0.93145   0.24873   0.00000  Uiso   1.00
C422   C     0.51498   0.88009   0.40695   0.00000  Uiso   1.00
C423   C     0.49873   0.83365   0.11611   0.00000  Uiso   1.00
C424   C     0.50220   0.83343   0.38379   0.00000  Uiso   1.00
C425   C     0.51054   0.88054   0.09428   0.00000  Uiso   1.00
C426   C     0.49002   0.78666   0.40568   0.00000  Uiso   1.00
C427   C     0.51249   0.88077   0.04754   0.00000  Uiso   1.00
C428   C     0.49014   0.78617   0.45227   0.00000  Uiso   1.00
C429   C     0.50139   0.83344   0.02331   0.00000  Uiso   1.00
C430   C     0.50222   0.83336   0.47641   0.00000  Uiso   1.00
C431   C     0.48958   0.78616   0.04604   0.00000  Uiso   1.00
C432   C     0.48497   0.73524   0.25074   0.00000  Uiso   1.00
C433   C     0.51487   0.88051   0.45361   0.00000  Uiso   1.00
C434   C     0.52541   0.92724   0.02470   0.00000  Uiso   1.00
C435   C     0.47805   0.73956   0.47507   0.00000  Uiso   1.00
C436   C     0.64745   0.76859   0.17494   0.00000  Uiso   1.00
C437   C     0.34460   0.72606   0.14769   0.00000  Uiso   1.00
C438   C     0.35147   0.92056   0.30453   0.00000  Uiso   1.00
C439   C     0.64928   0.95328   0.33837   0.00000  Uiso   1.00
C440   C     0.52677   0.92709   0.47779   0.00000  Uiso   1.00
C441   C     0.47805   0.73952   0.02188   0.00000  Uiso   1.00
C442   C     0.52319   0.98594   0.24815   0.00000  Uiso   1.00
C443   C     0.47720   0.68080   0.25019   0.00000  Uiso   1.00
C444   C     0.50069   0.83362   0.33628   0.00000  Uiso   1.00
C445   C     0.49948   0.83337   0.16370   0.00000  Uiso   1.00
C446   C     0.48955   0.78656   0.09265   0.00000  Uiso   1.00
H447   H     0.48287   0.75048   0.11075   0.00000  Uiso   1.00
H448   H     0.43374   0.99752   0.25128   0.00000  Uiso   1.00
H449   H     0.64452   0.80211   0.15263   0.00000  Uiso   1.00
H450   H     0.60477   0.75161   0.18590   0.00000  Uiso   1.00
H451   H     0.34888   0.69207   0.16914   0.00000  Uiso   1.00
H452   H     0.65325   0.71321   0.11843   0.00000  Uiso   1.00
H453   H     0.38759   0.74118   0.13501   0.00000  Uiso   1.00
H454   H     0.35944   0.94284   0.27305   0.00000  Uiso   1.00
H455   H     0.39195   0.91349   0.31962   0.00000  Uiso   1.00
H456   H     0.64049   0.93231   0.37048   0.00000  Uiso   1.00
H457   H     0.33956   0.99101   0.34539   0.00000  Uiso   1.00
H458   H     0.52419   0.91581   0.38861   0.00000  Uiso   1.00
H459   H     0.60808   0.96115   0.32454   0.00000  Uiso   1.00
H460   H     0.51871   0.91638   0.11372   0.00000  Uiso   1.00
H461   H     0.48039   0.75103   0.38637   0.00000  Uiso   1.00
H462   H     0.53458   0.96351   0.04311   0.00000  Uiso   1.00
H463   H     0.46852   0.70333   0.45670   0.00000  Uiso   1.00
H464   H     0.53691   0.96326   0.46044   0.00000  Uiso   1.00
H465   H     0.46848   0.70327   0.03923   0.00000  Uiso   1.00
H466   H     0.56684   0.66936   0.24656   0.00000  Uiso   1.00
N467   N     0.65011   0.81932   0.23783   0.00000  Uiso   1.00
N468   N     0.34989   0.84735   0.26217   0.00000  Uiso   1.00
O469   O     0.46308   0.91286   0.25299   0.00000  Uiso   1.00
O470   O     0.65409   0.87351   0.29560   0.00000  Uiso   1.00
O471   O     0.53692   0.75381   0.24702   0.00000  Uiso   1.00
O472   O     0.55946   0.90387   0.24519   0.00000  Uiso   1.00
O473   O     0.44054   0.76279   0.25482   0.00000  Uiso   1.00
O474   O     0.45181   0.83784   0.31998   0.00000  Uiso   1.00
O475   O     0.54819   0.82883   0.18003   0.00000  Uiso   1.00
O476   O     0.54819   0.82885   0.31218   0.00000  Uiso   1.00
O477   O     0.45181   0.83781   0.18783   0.00000  Uiso   1.00
O478   O     0.34564   0.78408   0.21185   0.00000  Uiso   1.00
Zn479  Zn    0.43565   0.83933   0.25521   0.00000  Uiso   1.00
Zn480  Zn    0.56435   0.82734   0.24479   0.00000  Uiso   1.00
C481   C     0.84843   0.93145   0.24873   0.00000  Uiso   1.00
C482   C     0.84831   0.88009   0.40695   0.00000  Uiso   1.00
C483   C     0.83207   0.83365   0.11611   0.00000  Uiso   1.00
C484   C     0.83554   0.83343   0.38379   0.00000  Uiso   1.00
C485   C     0.84387   0.88054   0.09428   0.00000  Uiso   1.00
C486   C     0.82336   0.78666   0.40568   0.00000  Uiso   1.00
C487   C     0.84582   0.88077   0.04754   0.00000  Uiso   1.00
C488   C     0.82347   0.78617   0.45227   0.00000  Uiso   1.00
C489   C     0.83472   0.83344   0.02331   0.00000  Uiso   1.00
C490   C     0.83556   0.83336   0.47641   0.00000  Uiso   1.00
C491   C     0.82291   0.78616   0.04604   0.00000  Uiso   1.00
C492   C     0.81831   0.73524   0.25074   0.00000  Uiso   1.00
C493   C     0.84820   0.88051   0.45361   0.00000  Uiso   1.00
C494   C     0.85874   0.92724   0.02470   0.00000  Uiso   1.00
C495   C     0.81139   0.73956   0.47507   0.00000  Uiso   1.00
C496   C     0.98078   0.76859   0.17494   0.00000  Uiso   1.00
C497   C     0.67794   0.72606   0.14769   0.00000  Uiso   1.00
C498   C     0.68481   0.92056   0.30453   0.00000  Uiso   1.00
C499   C     0.98261   0.95328   0.33837   0.00000  Uiso   1.00
C500   C     0.86010   0.92709   0.47779   0.00000  Uiso   1.00
C501   C     0.81138   0.73952   0.02188   0.00000  Uiso   1.00
C502   C     0.85653   0.98594   0.24815   0.00000  Uiso   1.00
C503   C     0.81053   0.68080   0.25019   0.00000  Uiso   1.00
C504   C     0.83403   0.83362   0.33628   0.00000  Uiso   1.00
C505   C     0.83281   0.83337   0.16370   0.00000  Uiso   1.00
C506   C     0.82288   0.78656   0.09265   0.00000  Uiso   1.00
H507   H     0.81620   0.75048   0.11075   0.00000  Uiso   1.00
H508   H     0.76707   0.99752   0.25128   0.00000  Uiso   1.00
H509   H     0.97785   0.80211   0.15263   0.00000  Uiso   1.00
H510   H     0.93810   0.75161   0.18590   0.00000  Uiso   1.00
H511   H     0.68222   0.69207   0.16914   0.00000  Uiso   1.00
H512   H     0.98658   0.71321   0.11843   0.00000  Uiso   1.00
H513   H     0.72093   0.74118   0.13501   0.00000  Uiso   1.00
H514   H     0.69277   0.94284   0.27305   0.00000  Uiso   1.00
H515   H     0.72528   0.91349   0.31962   0.00000  Uiso   1.00
H516   H     0.97382   0.93231   0.37048   0.00000  Uiso   1.00
H517   H     0.67289   0.99101   0.34539   0.00000  Uiso   1.00
H518   H     0.85753   0.91581   0.38861   0.00000  Uiso   1.00
H519   H     0.94141   0.96115   0.32454   0.00000  Uiso   1.00
H520   H     0.85205   0.91638   0.11372   0.00000  Uiso   1.00
H521   H     0.81373   0.75103   0.38637   0.00000  Uiso   1.00
H522   H     0.86792   0.96351   0.04311   0.00000  Uiso   1.00
H523   H     0.80185   0.70333   0.45670   0.00000  Uiso   1.00
H524   H     0.87024   0.96326   0.46044   0.00000  Uiso   1.00
H525   H     0.80181   0.70327   0.03923   0.00000  Uiso   1.00
H526   H     0.90018   0.66936   0.24656   0.00000  Uiso   1.00
N527   N     0.98344   0.81932   0.23783   0.00000  Uiso   1.00
N528   N     0.68322   0.84735   0.26217   0.00000  Uiso   1.00
O529   O     0.79642   0.91286   0.25299   0.00000  Uiso   1.00
O530   O     0.98742   0.87351   0.29560   0.00000  Uiso   1.00
O531   O     0.87025   0.75381   0.24702   0.00000  Uiso   1.00
O532   O     0.89280   0.90387   0.24519   0.00000  Uiso   1.00
O533   O     0.77387   0.76279   0.25482   0.00000  Uiso   1.00
O534   O     0.78514   0.83784   0.31998   0.00000  Uiso   1.00
O535   O     0.88153   0.82883   0.18003   0.00000  Uiso   1.00
O536   O     0.88152   0.82885   0.31218   0.00000  Uiso   1.00
O537   O     0.78515   0.83781   0.18783   0.00000  Uiso   1.00
O538   O     0.67897   0.78408   0.21185   0.00000  Uiso   1.00
Zn539  Zn    0.76898   0.83933   0.25521   0.00000  Uiso   1.00
Zn540  Zn    0.89769   0.82734   0.24479   0.00000  Uiso   1.00
C541   C     0.18176   0.26478   0.74873   0.00000  Uiso   1.00
C542   C     0.18164   0.21342   0.90695   0.00000  Uiso   1.00
C543   C     0.16540   0.16699   0.61611   0.00000  Uiso   1.00
C544   C     0.16887   0.16676   0.88379   0.00000  Uiso   1.00
C545   C     0.17720   0.21387   0.59428   0.00000  Uiso   1.00
C546   C     0.15669   0.11999   0.90568   0.00000  Uiso   1.00
C547   C     0.17915   0.21410   0.54754   0.00000  Uiso   1.00
C548   C     0.15680   0.11950   0.95227   0.00000  Uiso   1.00
C549   C     0.16806   0.16678   0.52331   0.00000  Uiso   1.00
C550   C     0.16889   0.16670   0.97641   0.00000  Uiso   1.00
C551   C     0.15624   0.11950   0.54604   0.00000  Uiso   1.00
C552   C     0.15164   0.06858   0.75074   0.00000  Uiso   1.00
C553   C     0.18153   0.21385   0.95361   0.00000  Uiso   1.00
C554   C     0.19208   0.26058   0.52470   0.00000  Uiso   1.00
C555   C     0.14472   0.07289   0.97507   0.00000  Uiso   1.00
C556   C     0.31412   0.10192   0.67494   0.00000  Uiso   1.00
C557   C     0.01127   0.05939   0.64769   0.00000  Uiso   1.00
C558   C     0.01814   0.25389   0.80453   0.00000  Uiso   1.00
C559   C     0.31594   0.28661   0.83837   0.00000  Uiso   1.00
C560   C     0.19343   0.26042   0.97779   0.00000  Uiso   1.00
C561   C     0.14472   0.07285   0.52188   0.00000  Uiso   1.00
C562   C     0.18986   0.31927   0.74815   0.00000  Uiso   1.00
C563   C     0.14387   0.01414   0.75019   0.00000  Uiso   1.00
C564   C     0.16736   0.16696   0.83628   0.00000  Uiso   1.00
C565   C     0.16614   0.16670   0.66370   0.00000  Uiso   1.00
C566   C     0.15621   0.11989   0.59265   0.00000  Uiso   1.00
H567   H     0.14954   0.08381   0.61075   0.00000  Uiso   1.00
H568   H     0.10040   0.33085   0.75128   0.00000  Uiso   1.00
H569   H     0.31119   0.13545   0.65263   0.00000  Uiso   1.00
H570   H     0.27144   0.08494   0.68590   0.00000  Uiso   1.00
H571   H     0.01555   0.02541   0.66914   0.00000  Uiso   1.00
H572   H     0.31991   0.04655   0.61843   0.00000  Uiso   1.00
H573   H     0.05426   0.07451   0.63501   0.00000  Uiso   1.00
H574   H     0.02611   0.27618   0.77305   0.00000  Uiso   1.00
H575   H     0.05862   0.24683   0.81962   0.00000  Uiso   1.00
H576   H     0.30715   0.26565   0.87048   0.00000  Uiso   1.00
H577   H     0.00623   0.32435   0.84539   0.00000  Uiso   1.00
H578   H     0.19086   0.24914   0.88861   0.00000  Uiso   1.00
H579   H     0.27474   0.29448   0.82454   0.00000  Uiso   1.00
H580   H     0.18538   0.24971   0.61372   0.00000  Uiso   1.00
H581   H     0.14706   0.08436   0.88637   0.00000  Uiso   1.00
H582   H     0.20125   0.29684   0.54311   0.00000  Uiso   1.00
H583   H     0.13519   0.03666   0.95670   0.00000  Uiso   1.00
H584   H     0.20358   0.29659   0.96044   0.00000  Uiso   1.00
H585   H     0.13514   0.03660   0.53923   0.00000  Uiso   1.00
H586   H     0.23351   0.00269   0.74656   0.00000  Uiso   1.00
N587   N     0.31678   0.15265   0.73783   0.00000  Uiso   1.00
N588   N     0.01656   0.18068   0.76217   0.00000  Uiso   1.00
O589   O     0.12975   0.24619   0.75299   0.00000  Uiso   1.00
O590   O     0.32075   0.20685   0.79560   0.00000  Uiso   1.00
O591   O     0.20358   0.08714   0.74702   0.00000  Uiso   1.00
O592   O     0.22613   0.23721   0.74519   0.00000  Uiso   1.00
O593   O     0.10720   0.09613   0.75482   0.00000  Uiso   1.00
O594   O     0.11847   0.17117   0.81998   0.00000  Uiso   1.00
O595   O     0.21486   0.16216   0.68003   0.00000  Uiso   1.00
O596   O     0.21485   0.16219   0.81218   0.00000  Uiso   1.00
O597   O     0.11848   0.17115   0.68783   0.00000  Uiso   1.00
O598   O     0.01230   0.11742   0.71185   0.00000  Uiso   1.00
Zn599  Zn    0.10231   0.17266   0.75521   0.00000  Uiso   1.00
Zn600  Zn    0.23102   0.16067   0.74479   0.00000  Uiso   1.00
C601   C     0.51510   0.26478   0.74873   0.00000  Uiso   1.00
C602   C     0.51498   0.21342   0.90695   0.00000  Uiso   1.00
C603   C     0.49873   0.16699   0.61611   0.00000  Uiso   1.00
C604   C     0.50220   0.16676   0.88379   0.00000  Uiso   1.00
C605   C     0.51054   0.21387   0.59428   0.00000  Uiso   1.00
C606   C     0.49002   0.11999   0.90568   0.00000  Uiso   1.00
C607   C     0.51249   0.21410   0.54754   0.00000  Uiso   1.00
C608   C     0.49014   0.11950   0.95227   0.00000  Uiso   1.00
C609   C     0.50139   0.16678   0.52331   0.00000  Uiso   1.00
C610   C     0.50222   0.16670   0.97641   0.00000  Uiso   1.00
C611   C     0.48958   0.11950   0.54604   0.00000  Uiso   1.00
C612   C     0.48497   0.06858   0.75074   0.00000  Uiso   1.00
C613   C     0.51487   0.21385   0.95361   0.00000  Uiso   1.00
C614   C     0.52541   0.26058   0.52470   0.00000  Uiso   1.00
C615   C     0.47805   0.07289   0.97507   0.00000  Uiso   1.00
C616   C     0.64745   0.10192   0.67494   0.00000  Uiso   1.00
C617   C     0.34460   0.05939   0.64769   0.00000  Uiso   1.00
C618   C     0.35147   0.25389   0.80453   0.00000  Uiso   1.00
C619   C     0.64928   0.28661   0.83837   0.00000  Uiso   1.00
C620   C     0.52677   0.26042   0.97779   0.00000  Uiso   1.00
C621   C     0.47805   0.07285   0.52188   0.00000  Uiso   1.00
C622   C     0.52319   0.31927   0.74815   0.00000  Uiso   1.00
C623   C     0.47720   0.01414   0.75019   0.00000  Uiso   1.00
C624   C     0.50069   0.16696   0.83628   0.00000  Uiso   1.00
C625   C     0.49948   0.16670   0.66370   0.00000  Uiso   1.00
C626   C     0.48955   0.11989   0.59265   0.00000  Uiso   1.00
H627   H     0.48287   0.08381   0.61075   0.00000  Uiso   1.00
H628   H     0.43374   0.33085   0.75128   0.00000  Uiso   1.00
H629   H     0.64452   0.13545   0.65263   0.00000  Uiso   1.00
H630   H     0.60477   0.08494   0.68590   0.00000  Uiso   1.00
H631   H     0.34888   0.02541   0.66914   0.00000  Uiso   1.00
H632   H     0.65325   0.04655   0.61843   0.00000  Uiso   1.00
H633   H     0.38759   0.07451   0.63501   0.00000  Uiso   1.00
H634   H     0.35944   0.27618   0.77305   0.00000  Uiso   1.00
H635   H     0.39195   0.24683   0.81962   0.00000  Uiso   1.00
H636   H     0.64049   0.26565   0.87048   0.00000  Uiso   1.00
H637   H     0.33956   0.32435   0.84539   0.00000  Uiso   1.00
H638   H     0.52419   0.24914   0.88861   0.00000  Uiso   1.00
H639   H     0.60808   0.29448   0.82454   0.00000  Uiso   1.00
H640   H     0.51871   0.24971   0.61372   0.00000  Uiso   1.00
H641   H     0.48039   0.08436   0.88637   0.00000  Uiso   1.00
H642   H     0.53458   0.29684   0.54311   0.00000  Uiso   1.00
H643   H     0.46852   0.03666   0.95670   0.00000  Uiso   1.00
H644   H     0.53691   0.29659   0.96044   0.00000  Uiso   1.00
H645   H     0.46848   0.03660   0.53923   0.00000  Uiso   1.00
H646   H     0.56684   0.00269   0.74656   0.00000  Uiso   1.00
N647   N     0.65011   0.15265   0.73783   0.00000  Uiso   1.00
N648   N     0.34989   0.18068   0.76217   0.00000  Uiso   1.00
O649   O     0.46308   0.24619   0.75299   0.00000  Uiso   1.00
O650   O     0.65409   0.20685   0.79560   0.00000  Uiso   1.00
O651   O     0.53692   0.08714   0.74702   0.00000  Uiso   1.00
O652   O     0.55946   0.23721   0.74519   0.00000  Uiso   1.00
O653   O     0.44054   0.09613   0.75482   0.00000  Uiso   1.00
O654   O     0.45181   0.17117   0.81998   0.00000  Uiso   1.00
O655   O     0.54819   0.16216   0.68003   0.00000  Uiso   1.00
O656   O     0.54819   0.16219   0.81218   0.00000  Uiso   1.00
O657   O     0.45181   0.17115   0.68783   0.00000  Uiso   1.00
O658   O     0.34564   0.11742   0.71185   0.00000  Uiso   1.00
Zn659  Zn    0.43565   0.17266   0.75521   0.00000  Uiso   1.00
Zn660  Zn    0.56435   0.16067   0.74479   0.00000  Uiso   1.00
C661   C     0.84843   0.26478   0.74873   0.00000  Uiso   1.00
C662   C     0.84831   0.21342   0.90695   0.00000  Uiso   1.00
C663   C     0.83207   0.16699   0.61611   0.00000  Uiso   1.00
C664   C     0.83554   0.16676   0.88379   0.00000  Uiso   1.00
C665   C     0.84387   0.21387   0.59428   0.00000  Uiso   1.00
C666   C     0.82336   0.11999   0.90568   0.00000  Uiso   1.00
C667   C     0.84582   0.21410   0.54754   0.00000  Uiso   1.00
C668   C     0.82347   0.11950   0.95227   0.00000  Uiso   1.00
C669   C     0.83472   0.16678   0.52331   0.00000  Uiso   1.00
C670   C     0.83556   0.16670   0.97641   0.00000  Uiso   1.00
C671   C     0.82291   0.11950   0.54604   0.00000  Uiso   1.00
C672   C     0.81831   0.06858   0.75074   0.00000  Uiso   1.00
C673   C     0.84820   0.21385   0.95361   0.00000  Uiso   1.00
C674   C     0.85874   0.26058   0.52470   0.00000  Uiso   1.00
C675   C     0.81139   0.07289   0.97507   0.00000  Uiso   1.00
C676   C     0.98078   0.10192   0.67494   0.00000  Uiso   1.00
C677   C     0.67794   0.05939   0.64769   0.00000  Uiso   1.00
C678   C     0.68481   0.25389   0.80453   0.00000  Uiso   1.00
C679   C     0.98261   0.28661   0.83837   0.00000  Uiso   1.00
C680   C     0.86010   0.26042   0.97779   0.00000  Uiso   1.00
C681   C     0.81138   0.07285   0.52188   0.00000  Uiso   1.00
C682   C     0.85653   0.31927   0.74815   0.00000  Uiso   1.00
C683   C     0.81053   0.01414   0.75019   0.00000  Uiso   1.00
C684   C     0.83403   0.16696   0.83628   0.00000  Uiso   1.00
C685   C     0.83281   0.16670   0.66370   0.00000  Uiso   1.00
C686   C     0.82288   0.11989   0.59265   0.00000  Uiso   1.00
H687   H     0.81620   0.08381   0.61075   0.00000  Uiso   1.00
H688   H     0.76707   0.33085   0.75128   0.00000  Uiso   1.00
H689   H     0.97785   0.13545   0.65263   0.00000  Uiso   1.00
H690   H     0.93810   0.08494   0.68590   0.00000  Uiso   1.00
H691   H     0.68222   0.02541   0.66914   0.00000  Uiso   1.00
H692   H     0.98658   0.04655   0.61843   0.00000  Uiso   1.00
H693   H     0.72093   0.07451   0.63501   0.00000  Uiso   1.00
H694   H     0.69277   0.27618   0.77305   0.00000  Uiso   1.00
H695   H     0.72528   0.24683   0.81962   0.00000  Uiso   1.00
H696   H     0.97382   0.26565   0.87048   0.00000  Uiso   1.00
H697   H     0.67289   0.32435   0.84539   0.00000  Uiso   1.00
H698   H     0.85753   0.24914   0.88861   0.00000  Uiso   1.00
H699   H     0.94141   0.29448   0.82454   0.00000  Uiso   1.00
H700   H     0.85205   0.24971   0.61372   0.00000  Uiso   1.00
H701   H     0.81373   0.08436   0.88637   0.00000  Uiso   1.00
H702   H     0.86792   0.29684   0.54311   0.00000  Uiso   1.00
H703   H     0.80185   0.03666   0.95670   0.00000  Uiso   1.00
H704   H     0.87024   0.29659   0.96044   0.00000  Uiso   1.00
H705   H     0.80181   0.03660   0.53923   0.00000  Uiso   1.00
H706   H     0.90018   0.00269   0.74656   0.00000  Uiso   1.00
N707   N     0.98344   0.15265   0.73783   0.00000  Uiso   1.00
N708   N     0.68322   0.18068   0.76217   0.00000  Uiso   1.00
O709   O     0.79642   0.24619   0.75299   0.00000  Uiso   1.00
O710   O     0.98742   0.20685   0.79560   0.00000  Uiso   1.00
O711   O     0.87025   0.08714   0.74702   0.00000  Uiso   1.00
O712   O     0.89280   0.23721   0.74519   0.00000  Uiso   1.00
O713   O     0.77387   0.09613   0.75482   0.00000  Uiso   1.00
O714   O     0.78514   0.17117   0.81998   0.00000  Uiso   1.00
O715   O     0.88153   0.16216   0.68003   0.00000  Uiso   1.00
O716   O     0.88152   0.16219   0.81218   0.00000  Uiso   1.00
O717   O     0.78515   0.17115   0.68783   0.00000  Uiso   1.00
O718   O     0.67897   0.11742   0.71185   0.00000  Uiso   1.00
Zn719  Zn    0.76898   0.17266   0.75521   0.00000  Uiso   1.00
Zn720  Zn    0.89769   0.16067   0.74479   0.00000  Uiso   1.00
C721   C     0.18176   0.59812   0.74873   0.00000  Uiso   1.00
C722   C     0.18164   0.54676   0.90695   0.00000  Uiso   1.00
C723   C     0.16540   0.50032   0.61611   0.00000  Uiso   1.00
C724   C     0.16887   0.50010   0.88379   0.00000  Uiso   1.00
C725   C     0.17720   0.54721   0.59428   0.00000  Uiso   1.00
C726   C     0.15669   0.45333   0.90568   0.00000  Uiso   1.00
C727   C     0.17915   0.54744   0.54754   0.00000  Uiso   1.00
C728   C     0.15680   0.45283   0.95227   0.00000  Uiso   1.00
C729   C     0.16806   0.50011   0.52331   0.00000  Uiso   1.00
C730   C     0.16889   0.50003   0.97641   0.00000  Uiso   1.00
C731   C     0.15624   0.45283   0.54604   0.00000  Uiso   1.00
C732   C     0.15164   0.40191   0.75074   0.00000  Uiso   1.00
C733   C     0.18153   0.54718   0.95361   0.00000  Uiso   1.00
C734   C     0.19208   0.59391   0.52470   0.00000  Uiso   1.00
C735   C     0.14472   0.40622   0.97507   0.00000  Uiso   1.00
C736   C     0.31412   0.43525   0.67494   0.00000  Uiso   1.00
C737   C     0.01127   0.39273   0.64769   0.00000  Uiso   1.00
C738   C     0.01814   0.58722   0.80453   0.00000  Uiso   1.00
C739   C     0.31594   0.61994   0.83837   0.00000  Uiso   1.00
C740   C     0.19343   0.59376   0.97779   0.00000  Uiso   1.00
C741   C     0.14472   0.40618   0.52188   0.00000  Uiso   1.00
C742   C     0.18986   0.65260   0.74815   0.00000  Uiso   1.00
C743   C     0.14387   0.34747   0.75019   0.00000  Uiso   1.00
C744   C     0.16736   0.50029   0.83628   0.00000  Uiso   1.00
C745   C     0.16614   0.50003   0.66370   0.00000  Uiso   1.00
C746   C     0.15621   0.45322   0.59265   0.00000  Uiso   1.00
H747   H     0.14954   0.41714   0.61075   0.00000  Uiso   1.00
H748   H     0.10040   0.66419   0.75128   0.00000  Uiso   1.00
H749   H     0.31119   0.46878   0.65263   0.00000  Uiso   1.00
H750   H     0.27144   0.41827   0.68590   0.00000  Uiso   1.00
H751   H     0.01555   0.35874   0.66914   0.00000  Uiso   1.00
H752   H     0.31991   0.37988   0.61843   0.00000  Uiso   1.00
H753   H     0.05426   0.40784   0.63501   0.00000  Uiso   1.00
H754   H     0.02611   0.60951   0.77305   0.00000  Uiso   1.00
H755   H     0.05862   0.58016   0.81962   0.00000  Uiso   1.00
H756   H     0.30715   0.59898   0.87048   0.00000  Uiso   1.00
H757   H     0.00623   0.65768   0.84539   0.00000  Uiso   1.00
H758   H     0.19086   0.58248   0.88861   0.00000  Uiso   1.00
H759   H     0.27474   0.62781   0.82454   0.00000  Uiso   1.00
H760   H     0.18538   0.58304   0.61372   0.00000  Uiso   1.00
H761   H     0.14706   0.41769   0.88637   0.00000  Uiso   1.00
H762   H     0.20125   0.63018   0.54311   0.00000  Uiso   1.00
H763   H     0.13519   0.37000   0.95670   0.00000  Uiso   1.00
H764   H     0.20358   0.62992   0.96044   0.00000  Uiso   1.00
H765   H     0.13514   0.36994   0.53923   0.00000  Uiso   1.00
H766   H     0.23351   0.33603   0.74656   0.00000  Uiso   1.00
N767   N     0.31678   0.48598   0.73783   0.00000  Uiso   1.00
N768   N     0.01656   0.51402   0.76217   0.00000  Uiso   1.00
O769   O     0.12975   0.57952   0.75299   0.00000  Uiso   1.00
O770   O     0.32075   0.54018   0.79560   0.00000  Uiso   1.00
O771   O     0.20358   0.42048   0.74702   0.00000  Uiso   1.00
O772   O     0.22613   0.57054   0.74519   0.00000  Uiso   1.00
O773   O     0.10720   0.42946   0.75482   0.00000  Uiso   1.00
O774   O     0.11847   0.50450   0.81998   0.00000  Uiso   1.00
O775   O     0.21486   0.49550   0.68003   0.00000  Uiso   1.00
O776   O     0.21485   0.49552   0.81218   0.00000  Uiso   1.00
O777   O     0.11848   0.50448   0.68783   0.00000  Uiso   1.00
O778   O     0.01230   0.45075   0.71185   0.00000  Uiso   1.00
Zn779  Zn    0.10231   0.50600   0.75521   0.00000  Uiso   1.00
Zn780  Zn    0.23102   0.49400   0.74479   0.00000  Uiso   1.00
C781   C     0.51510   0.59812   0.74873   0.00000  Uiso   1.00
C782   C     0.51498   0.54676   0.90695   0.00000  Uiso   1.00
C783   C     0.49873   0.50032   0.61611   0.00000  Uiso   1.00
C784   C     0.50220   0.50010   0.88379   0.00000  Uiso   1.00
C785   C     0.51054   0.54721   0.59428   0.00000  Uiso   1.00
C786   C     0.49002   0.45333   0.90568   0.00000  Uiso   1.00
C787   C     0.51249   0.54744   0.54754   0.00000  Uiso   1.00
C788   C     0.49014   0.45283   0.95227   0.00000  Uiso   1.00
C789   C     0.50139   0.50011   0.52331   0.00000  Uiso   1.00
C790   C     0.50222   0.50003   0.97641   0.00000  Uiso   1.00
C791   C     0.48958   0.45283   0.54604   0.00000  Uiso   1.00
C792   C     0.48497   0.40191   0.75074   0.00000  Uiso   1.00
C793   C     0.51487   0.54718   0.95361   0.00000  Uiso   1.00
C794   C     0.52541   0.59391   0.52470   0.00000  Uiso   1.00
C795   C     0.47805   0.40622   0.97507   0.00000  Uiso   1.00
C796   C     0.64745   0.43525   0.67494   0.00000  Uiso   1.00
C797   C     0.34460   0.39273   0.64769   0.00000  Uiso   1.00
C798   C     0.35147   0.58722   0.80453   0.00000  Uiso   1.00
C799   C     0.64928   0.61994   0.83837   0.00000  Uiso   1.00
C800   C     0.52677   0.59376   0.97779   0.00000  Uiso   1.00
C801   C     0.47805   0.40618   0.52188   0.00000  Uiso   1.00
C802   C     0.52319   0.65260   0.74815   0.00000  Uiso   1.00
C803   C     0.47720   0.34747   0.75019   0.00000  Uiso   1.00
C804   C     0.50069   0.50029   0.83628   0.00000  Uiso   1.00
C805   C     0.49948   0.50003   0.66370   0.00000  Uiso   1.00
C806   C     0.48955   0.45322   0.59265   0.00000  Uiso   1.00
H807   H     0.48287   0.41714   0.61075   0.00000  Uiso   1.00
H808   H     0.43374   0.66419   0.75128   0.00000  Uiso   1.00
H809   H     0.64452   0.46878   0.65263   0.00000  Uiso   1.00
H810   H     0.60477   0.41827   0.68590   0.00000  Uiso   1.00
H811   H     0.34888   0.35874   0.66914   0.00000  Uiso   1.00
H812   H     0.65325   0.37988   0.61843   0.00000  Uiso   1.00
H813   H     0.38759   0.40784   0.63501   0.00000  Uiso   1.00
H814   H     0.35944   0.60951   0.77305   0.00000  Uiso   1.00
H815   H     0.39195   0.58016   0.81962   0.00000  Uiso   1.00
H816   H     0.64049   0.59898   0.87048   0.00000  Uiso   1.00
H817   H     0.33956   0.65768   0.84539   0.00000  Uiso   1.00
H818   H     0.52419   0.58248   0.88861   0.00000  Uiso   1.00
H819   H     0.60808   0.62781   0.82454   0.00000  Uiso   1.00
H820   H     0.51871   0.58304   0.61372   0.00000  Uiso   1.00
H821   H     0.48039   0.41769   0.88637   0.00000  Uiso   1.00
H822   H     0.53458   0.63018   0.54311   0.00000  Uiso   1.00
H823   H     0.46852   0.37000   0.95670   0.00000  Uiso   1.00
H824   H     0.53691   0.62992   0.96044   0.00000  Uiso   1.00
H825   H     0.46848   0.36994   0.53923   0.00000  Uiso   1.00
H826   H     0.56684   0.33603   0.74656   0.00000  Uiso   1.00
N827   N     0.65011   0.48598   0.73783   0.00000  Uiso   1.00
N828   N     0.34989   0.51402   0.76217   0.00000  Uiso   1.00
O829   O     0.46308   0.57952   0.75299   0.00000  Uiso   1.00
O830   O     0.65409   0.54018   0.79560   0.00000  Uiso   1.00
O831   O     0.53692   0.42048   0.74702   0.00000  Uiso   1.00
O832   O     0.55946   0.57054   0.74519   0.00000  Uiso   1.00
O833   O     0.44054   0.42946   0.75482   0.00000  Uiso   1.00
O834   O     0.45181   0.50450   0.81998   0.00000  Uiso   1.00
O835   O     0.54819   0.49550   0.68003   0.00000  Uiso   1.00
O836   O     0.54819   0.49552   0.81218   0.00000  Uiso   1.00
O837   O     0.45181   0.50448   0.68783   0.00000  Uiso   1.00
O838   O     0.34564   0.45075   0.71185   0.00000  Uiso   1.00
Zn839  Zn    0.43565   0.50600   0.75521   0.00000  Uiso   1.00
Zn840  Zn    0.56435   0.49400   0.74479   0.00000  Uiso   1.00
C841   C     0.84843   0.59812   0.74873   0.00000  Uiso   1.00
C842   C     0.84831   0.54676   0.90695   0.00000  Uiso   1.00
C843   C     0.83207   0.50032   0.61611   0.00000  Uiso   1.00
C844   C     0.83554   0.50010   0.88379   0.00000  Uiso   1.00
C845   C     0.84387   0.54721   0.59428   0.00000  Uiso   1.00
C846   C     0.82336   0.45333   0.90568   0.00000  Uiso   1.00
C847   C     0.84582   0.54744   0.54754   0.00000  Uiso   1.00
C848   C     0.82347   0.45283   0.95227   0.00000  Uiso   1.00
C849   C     0.83472   0.50011   0.52331   0.00000  Uiso   1.00
C850   C     0.83556   0.50003   0.97641   0.00000  Uiso   1.00
C851   C     0.82291   0.45283   0.54604   0.00000  Uiso   1.00
C852   C     0.81831   0.40191   0.75074   0.00000  Uiso   1.00
C853   C     0.84820   0.54718   0.95361   0.00000  Uiso   1.00
C854   C     0.85874   0.59391   0.52470   0.00000  Uiso   1.00
C855   C     0.81139   0.40622   0.97507   0.00000  Uiso   1.00
C856   C     0.98078   0.43525   0.67494   0.00000  Uiso   1.00
C857   C     0.67794   0.39273   0.64769   0.00000  Uiso   1.00
C858   C     0.68481   0.58722   0.80453   0.00000  Uiso   1.00
C859   C     0.98261   0.61994   0.83837   0.00000  Uiso   1.00
C860   C     0.86010   0.59376   0.97779   0.00000  Uiso   1.00
C861   C     0.81138   0.40618   0.52188   0.00000  Uiso   1.00
C862   C     0.85653   0.65260   0.74815   0.00000  Uiso   1.00
C863   C     0.81053   0.34747   0.75019   0.00000  Uiso   1.00
C864   C     0.83403   0.50029   0.83628   0.00000  Uiso   1.00
C865   C     0.83281   0.50003   0.66370   0.00000  Uiso   1.00
C866   C     0.82288   0.45322   0.59265   0.00000  Uiso   1.00
H867   H     0.81620   0.41714   0.61075   0.00000  Uiso   1.00
H868   H     0.76707   0.66419   0.75128   0.00000  Uiso   1.00
H869   H     0.97785   0.46878   0.65263   0.00000  Uiso   1.00
H870   H     0.93810   0.41827   0.68590   0.00000  Uiso   1.00
H871   H     0.68222   0.35874   0.66914   0.00000  Uiso   1.00
H872   H     0.98658   0.37988   0.61843   0.00000  Uiso   1.00
H873   H     0.72093   0.40784   0.63501   0.00000  Uiso   1.00
H874   H     0.69277   0.60951   0.77305   0.00000  Uiso   1.00
H875   H     0.72528   0.58016   0.81962   0.00000  Uiso   1.00
H876   H     0.97382   0.59898   0.87048   0.00000  Uiso   1.00
H877   H     0.67289   0.65768   0.84539   0.00000  Uiso   1.00
H878   H     0.85753   0.58248   0.88861   0.00000  Uiso   1.00
H879   H     0.94141   0.62781   0.82454   0.00000  Uiso   1.00
H880   H     0.85205   0.58304   0.61372   0.00000  Uiso   1.00
H881   H     0.81373   0.41769   0.88637   0.00000  Uiso   1.00
H882   H     0.86792   0.63018   0.54311   0.00000  Uiso   1.00
H883   H     0.80185   0.37000   0.95670   0.00000  Uiso   1.00
H884   H     0.87024   0.62992   0.96044   0.00000  Uiso   1.00
H885   H     0.80181   0.36994   0.53923   0.00000  Uiso   1.00
H886   H     0.90018   0.33603   0.74656   0.00000  Uiso   1.00
N887   N     0.98344   0.48598   0.73783   0.00000  Uiso   1.00
N888   N     0.68322   0.51402   0.76217   0.00000  Uiso   1.00
O889   O     0.79642   0.57952   0.75299   0.00000  Uiso   1.00
O890   O     0.98742   0.54018   0.79560   0.00000  Uiso   1.00
O891   O     0.87025   0.42048   0.74702   0.00000  Uiso   1.00
O892   O     0.89280   0.57054   0.74519   0.00000  Uiso   1.00
O893   O     0.77387   0.42946   0.75482   0.00000  Uiso   1.00
O894   O     0.78514   0.50450   0.81998   0.00000  Uiso   1.00
O895   O     0.88153   0.49550   0.68003   0.00000  Uiso   1.00
O896   O     0.88152   0.49552   0.81218   0.00000  Uiso   1.00
O897   O     0.78515   0.50448   0.68783   0.00000  Uiso   1.00
O898   O     0.67897   0.45075   0.71185   0.00000  Uiso   1.00
Zn899  Zn    0.76898   0.50600   0.75521   0.00000  Uiso   1.00
Zn900  Zn    0.89769   0.49400   0.74479   0.00000  Uiso   1.00
C901   C     0.18176   0.93145   0.74873   0.00000  Uiso   1.00
C902   C     0.18164   0.88009   0.90695   0.00000  Uiso   1.00
C903   C     0.16540   0.83365   0.61611   0.00000  Uiso   1.00
C904   C     0.16887   0.83343   0.88379   0.00000  Uiso   1.00
C905   C     0.17720   0.88054   0.59428   0.00000  Uiso   1.00
C906   C     0.15669   0.78666   0.90568   0.00000  Uiso   1.00
C907   C     0.17915   0.88077   0.54754   0.00000  Uiso   1.00
C908   C     0.15680   0.78617   0.95227   0.00000  Uiso   1.00
C909   C     0.16806   0.83344   0.52331   0.00000  Uiso   1.00
C910   C     0.16889   0.83336   0.97641   0.00000  Uiso   1.00
C911   C     0.15624   0.78616   0.54604   0.00000  Uiso   1.00
C912   C     0.15164   0.73524   0.75074   0.00000  Uiso   1.00
C913   C     0.18153   0.88051   0.95361   0.00000  Uiso   1.00
C914   C     0.19208   0.92724   0.52470   0.00000  Uiso   1.00
C915   C     0.14472   0.73956   0.97507   0.00000  Uiso   1.00
C916   C     0.31412   0.76859   0.67494   0.00000  Uiso   1.00
C917   C     0.01127   0.72606   0.64769   0.00000  Uiso   1.00
C918   C     0.01814   0.92056   0.80453   0.00000  Uiso   1.00
C919   C     0.31594   0.95328   0.83837   0.00000  Uiso   1.00
C920   C     0.19343   0.92709   0.97779   0.00000  Uiso   1.00
C921   C     0.14472   0.73952   0.52188   0.00000  Uiso   1.00
C922   C     0.18986   0.98594   0.74815   0.00000  Uiso   1.00
C923   C     0.14387   0.68080   0.75019   0.00000  Uiso   1.00
C924   C     0.16736   0.83362   0.83628   0.00000  Uiso   1.00
C925   C     0.16614   0.83337   0.66370   0.00000  Uiso   1.00
C926   C     0.15621   0.78656   0.59265   0.00000  Uiso   1.00
H927   H     0.14954   0.75048   0.61075   0.00000  Uiso   1.00
H928   H     0.10040   0.99752   0.75128   0.00000  Uiso   1.00
H929   H     0.31119   0.80211   0.65263   0.00000  Uiso   1.00
H930   H     0.27144   0.75161   0.68590   0.00000  Uiso   1.00
H931   H     0.01555   0.69207   0.66914   0.00000  Uiso   1.00
H932   H     0.31991   0.71321   0.61843   0.00000  Uiso   1.00
H933   H     0.05426   0.74118   0.63501   0.00000  Uiso   1.00
H934   H     0.02611   0.94284   0.77305   0.00000  Uiso   1.00
H935   H     0.05862   0.91349   0.81962   0.00000  Uiso   1.00
H936   H     0.30715   0.93231   0.87048   0.00000  Uiso   1.00
H937   H     0.00623   0.99101   0.84539   0.00000  Uiso   1.00
H938   H     0.19086   0.91581   0.88861   0.00000  Uiso   1.00
H939   H     0.27474   0.96115   0.82454   0.00000  Uiso   1.00
H940   H     0.18538   0.91638   0.61372   0.00000  Uiso   1.00
H941   H     0.14706   0.75103   0.88637   0.00000  Uiso   1.00
H942   H     0.20125   0.96351   0.54311   0.00000  Uiso   1.00
H943   H     0.13519   0.70333   0.95670   0.00000  Uiso   1.00
H944   H     0.20358   0.96326   0.96044   0.00000  Uiso   1.00
H945   H     0.13514   0.70327   0.53923   0.00000  Uiso   1.00
H946   H     0.23351   0.66936   0.74656   0.00000  Uiso   1.00
N947   N     0.31678   0.81932   0.73783   0.00000  Uiso   1.00
N948   N     0.01656   0.84735   0.76217   0.00000  Uiso   1.00
O949   O     0.12975   0.91286   0.75299   0.00000  Uiso   1.00
O950   O     0.32075   0.87351   0.79560   0.00000  Uiso   1.00
O951   O     0.20358   0.75381   0.74702   0.00000  Uiso   1.00
O952   O     0.22613   0.90387   0.74519   0.00000  Uiso   1.00
O953   O     0.10720   0.76279   0.75482   0.00000  Uiso   1.00
O954   O     0.11847   0.83784   0.81998   0.00000  Uiso   1.00
O955   O     0.21486   0.82883   0.68003   0.00000  Uiso   1.00
O956   O     0.21485   0.82885   0.81218   0.00000  Uiso   1.00
O957   O     0.11848   0.83781   0.68783   0.00000  Uiso   1.00
O958   O     0.01230   0.78408   0.71185   0.00000  Uiso   1.00
Zn959  Zn    0.10231   0.83933   0.75521   0.00000  Uiso   1.00
Zn960  Zn    0.23102   0.82734   0.74479   0.00000  Uiso   1.00
C961   C     0.51510   0.93145   0.74873   0.00000  Uiso   1.00
C962   C     0.51498   0.88009   0.90695   0.00000  Uiso   1.00
C963   C     0.49873   0.83365   0.61611   0.00000  Uiso   1.00
C964   C     0.50220   0.83343   0.88379   0.00000  Uiso   1.00
C965   C     0.51054   0.88054   0.59428   0.00000  Uiso   1.00
C966   C     0.49002   0.78666   0.90568   0.00000  Uiso   1.00
C967   C     0.51249   0.88077   0.54754   0.00000  Uiso   1.00
C968   C     0.49014   0.78617   0.95227   0.00000  Uiso   1.00
C969   C     0.50139   0.83344   0.52331   0.00000  Uiso   1.00
C970   C     0.50222   0.83336   0.97641   0.00000  Uiso   1.00
C971   C     0.48958   0.78616   0.54604   0.00000  Uiso   1.00
C972   C     0.48497   0.73524   0.75074   0.00000  Uiso   1.00
C973   C     0.51487   0.88051   0.95361   0.00000  Uiso   1.00
C974   C     0.52541   0.92724   0.52470   0.00000  Uiso   1.00
C975   C     0.47805   0.73956   0.97507   0.00000  Uiso   1.00
C976   C     0.64745   0.76859   0.67494   0.00000  Uiso   1.00
C977   C     0.34460   0.72606   0.64769   0.00000  Uiso   1.00
C978   C     0.35147   0.92056   0.80453   0.00000  Uiso   1.00
C979   C     0.64928   0.95328   0.83837   0.00000  Uiso   1.00
C980   C     0.52677   0.92709   0.97779   0.00000  Uiso   1.00
C981   C     0.47805   0.73952   0.52188   0.00000  Uiso   1.00
C982   C     0.52319   0.98594   0.74815   0.00000  Uiso   1.00
C983   C     0.47720   0.68080   0.75019   0.00000  Uiso   1.00
C984   C     0.50069   0.83362   0.83628   0.00000  Uiso   1.00
C985   C     0.49948   0.83337   0.66370   0.00000  Uiso   1.00
C986   C     0.48955   0.78656   0.59265   0.00000  Uiso   1.00
H987   H     0.48287   0.75048   0.61075   0.00000  Uiso   1.00
H988   H     0.43374   0.99752   0.75128   0.00000  Uiso   1.00
H989   H     0.64452   0.80211   0.65263   0.00000  Uiso   1.00
H990   H     0.60477   0.75161   0.68590   0.00000  Uiso   1.00
H991   H     0.34888   0.69207   0.66914   0.00000  Uiso   1.00
H992   H     0.65325   0.71321   0.61843   0.00000  Uiso   1.00
H993   H     0.38759   0.74118   0.63501   0.00000  Uiso   1.00
H994   H     0.35944   0.94284   0.77305   0.00000  Uiso   1.00
H995   H     0.39195   0.91349   0.81962   0.00000  Uiso   1.00
H996   H     0.64049   0.93231   0.87048   0.00000  Uiso   1.00
H997   H     0.33956   0.99101   0.84539   0.00000  Uiso   1.00
H998   H     0.52419   0.91581   0.88861   0.00000  Uiso   1.00
H999   H     0.60808   0.96115   0.82454   0.00000  Uiso   1.00
H1000  H     0.51871   0.91638   0.61372   0.00000  Uiso   1.00
H1001  H     0.48039   0.75103   0.88637   0.00000  Uiso   1.00
H1002  H     0.53458   0.96351   0.54311   0.00000  Uiso   1.00
H1003  H     0.46852   0.70333   0.95670   0.00000  Uiso   1.00
H1004  H     0.53691   0.96326   0.96044   0.00000  Uiso   1.00
H1005  H     0.46848   0.70327   0.53923   0.00000  Uiso   1.00
H1006  H     0.56684   0.66936   0.74656   0.00000  Uiso   1.00
N1007  N     0.65011   0.81932   0.73783   0.00000  Uiso   1.00
N1008  N     0.34989   0.84735   0.76217   0.00000  Uiso   1.00
O1009  O     0.46308   0.91286   0.75299   0.00000  Uiso   1.00
O1010  O     0.65409   0.87351   0.79560   0.00000  Uiso   1.00
O1011  O     0.53692   0.75381   0.74702   0.00000  Uiso   1.00
O1012  O     0.55946   0.90387   0.74519   0.00000  Uiso   1.00
O1013  O     0.44054   0.76279   0.75482   0.00000  Uiso   1.00
O1014  O     0.45181   0.83784   0.81998   0.00000  Uiso   1.00
O1015  O     0.54819   0.82883   0.68003   0.00000  Uiso   1.00
O1016  O     0.54819   0.82885   0.81218   0.00000  Uiso   1.00
O1017  O     0.45181   0.83781   0.68783   0.00000  Uiso   1.00
O1018  O     0.34564   0.78408   0.71185   0.00000  Uiso   1.00
Zn1019 Zn    0.43565   0.83933   0.75521   0.00000  Uiso   1.00
Zn1020 Zn    0.56435   0.82734   0.74479   0.00000  Uiso   1.00
C1021  C     0.84843   0.93145   0.74873   0.00000  Uiso   1.00
C1022  C     0.84831   0.88009   0.90695   0.00000  Uiso   1.00
C1023  C     0.83207   0.83365   0.61611   0.00000  Uiso   1.00
C1024  C     0.83554   0.83343   0.88379   0.00000  Uiso   1.00
C1025  C     0.84387   0.88054   0.59428   0.00000  Uiso   1.00
C1026  C     0.82336   0.78666   0.90568   0.00000  Uiso   1.00
C1027  C     0.84582   0.88077   0.54754   0.00000  Uiso   1.00
C1028  C     0.82347   0.78617   0.95227   0.00000  Uiso   1.00
C1029  C     0.83472   0.83344   0.52331   0.00000  Uiso   1.00
C1030  C     0.83556   0.83336   0.97641   0.00000  Uiso   1.00
C1031  C     0.82291   0.78616   0.54604   0.00000  Uiso   1.00
C1032  C     0.81831   0.73524   0.75074   0.00000  Uiso   1.00
C1033  C     0.84820   0.88051   0.95361   0.00000  Uiso   1.00
C1034  C     0.85874   0.92724   0.52470   0.00000  Uiso   1.00
C1035  C     0.81139   0.73956   0.97507   0.00000  Uiso   1.00
C1036  C     0.98078   0.76859   0.67494   0.00000  Uiso   1.00
C1037  C     0.67794   0.72606   0.64769   0.00000  Uiso   1.00
C1038  C     0.68481   0.92056   0.80453   0.00000  Uiso   1.00
C1039  C     0.98261   0.95328   0.83837   0.00000  Uiso   1.00
C1040  C     0.86010   0.92709   0.97779   0.00000  Uiso   1.00
C1041  C     0.81138   0.73952   0.52188   0.00000  Uiso   1.00
C1042  C     0.85653   0.98594   0.74815   0.00000  Uiso   1.00
C1043  C     0.81053   0.68080   0.75019   0.00000  Uiso   1.00
C1044  C     0.83403   0.83362   0.83628   0.00000  Uiso   1.00
C1045  C     0.83281   0.83337   0.66370   0.00000  Uiso   1.00
C1046  C     0.82288   0.78656   0.59265   0.00000  Uiso   1.00
H1047  H     0.81620   0.75048   0.61075   0.00000  Uiso   1.00
H1048  H     0.76707   0.99752   0.75128   0.00000  Uiso   1.00
H1049  H     0.97785   0.80211   0.65263   0.00000  Uiso   1.00
H1050  H     0.93810   0.75161   0.68590   0.00000  Uiso   1.00
H1051  H     0.68222   0.69207   0.66914   0.00000  Uiso   1.00
H1052  H     0.98658   0.71321   0.61843   0.00000  Uiso   1.00
H1053  H     0.72093   0.74118   0.63501   0.00000  Uiso   1.00
H1054  H     0.69277   0.94284   0.77305   0.00000  Uiso   1.00
H1055  H     0.72528   0.91349   0.81962   0.00000  Uiso   1.00
H1056  H     0.97382   0.93231   0.87048   0.00000  Uiso   1.00
H1057  H     0.67289   0.99101   0.84539   0.00000  Uiso   1.00
H1058  H     0.85753   0.91581   0.88861   0.00000  Uiso   1.00
H1059  H     0.94141   0.96115   0.82454   0.00000  Uiso   1.00
H1060  H     0.85205   0.91638   0.61372   0.00000  Uiso   1.00
H1061  H     0.81373   0.75103   0.88637   0.00000  Uiso   1.00
H1062  H     0.86792   0.96351   0.54311   0.00000  Uiso   1.00
H1063  H     0.80185   0.70333   0.95670   0.00000  Uiso   1.00
H1064  H     0.87024   0.96326   0.96044   0.00000  Uiso   1.00
H1065  H     0.80181   0.70327   0.53923   0.00000  Uiso   1.00
H1066  H     0.90018   0.66936   0.74656   0.00000  Uiso   1.00
N1067  N     0.98344   0.81932   0.73783   0.00000  Uiso   1.00
N1068  N     0.68322   0.84735   0.76217   0.00000  Uiso   1.00
O1069  O     0.79642   0.91286   0.75299   0.00000  Uiso   1.00
O1070  O     0.98742   0.87351   0.79560   0.00000  Uiso   1.00
O1071  O     0.87025   0.75381   0.74702   0.00000  Uiso   1.00
O1072  O     0.89280   0.90387   0.74519   0.00000  Uiso   1.00
O1073  O     0.77387   0.76279   0.75482   0.00000  Uiso   1.00
O1074  O     0.78514   0.83784   0.81998   0.00000  Uiso   1.00
O1075  O     0.88153   0.82883   0.68003   0.00000  Uiso   1.00
O1076  O     0.88152   0.82885   0.81218   0.00000  Uiso   1.00
O1077  O     0.78515   0.83781   0.68783   0.00000  Uiso   1.00
O1078  O     0.67897   0.78408   0.71185   0.00000  Uiso   1.00
Zn1079 Zn    0.76898   0.83933   0.75521   0.00000  Uiso   1.00
Zn1080 Zn    0.89769   0.82734   0.74479   0.00000  Uiso   1.00
loop_
_geom_bond_atom_site_label_1
_geom_bond_atom_site_label_2
_geom_bond_distance
_geom_bond_site_symmetry_2
_ccdc_geom_bond_type
C1     C22     1.403   .     S
C1     O52     1.290   .     A
C1     O49     1.286   .     A
C2     C4      1.391   .     A
C2     H38     1.086   .     S
C2     C13     1.385   .     A
C3     C26     1.390   .     A
C3     C25     1.414   .     S
C3     C5      1.391   .     A
C4     C24     1.414   .     S
C4     C6      1.390   .     A
C5     C7      1.385   .     A
C5     H40     1.086   .     S
C6     C8      1.384   .     A
C6     H41     1.086   .     S
C7     C9      1.413   .     A
C7     C14     1.400   .     A
C8     C15     1.400   .     A
C8     C10     1.413   .     A
C9     C11     1.413   .     A
C9     C550    1.391   1_554 S
C10    C13     1.413   .     A
C10    C549    1.391   .     S
C11    C26     1.383   .     A
C11    C21     1.400   .     A
C12    C23     1.400   .     S
C12    O51     1.284   .     A
C12    O53     1.291   .     A
C13    C20     1.400   .     A
C14    H42     1.084   .     S
C14    C560    1.391   1_554 S
C15    H43     1.084   .     S
C15    C561    1.390   .     S
C16    H30     1.102   .     S
C16    H29     1.112   .     S
C16    C77     1.519   .     S
C16    O118    1.402   .     S
C17    H33     1.106   .     S
C17    H31     1.111   .     S
C17    C136    1.519   1_455 S
C17    H152    1.111   1_455 S
C18    H34     1.111   .     S
C18    H35     1.108   .     S
C18    C139    1.521   1_455 S
C18    O170    1.400   1_455 S
C19    H36     1.111   .     S
C19    H39     1.111   .     S
C19    C78     1.521   .     S
C19    H97     1.111   .     S
C20    H44     1.084   .     S
C20    C554    1.391   .     S
C21    H45     1.083   .     S
C21    C555    1.390   1_554 S
C22    C203    1.332   .     S
C22    H226    1.088   .     S
C23    C382    1.332   1_545 S
C23    H388    1.083   1_545 S
C24    O56     1.291   .     A
C24    O54     1.291   .     A
C25    O57     1.293   .     A
C25    O55     1.289   .     A
C26    H27     1.085   .     S
H28    C203    1.083   .     S
H32    C77     1.111   .     S
H37    C139    1.111   1_455 S
H46    C382    1.088   1_545 S
N47    Zn60    2.033   .     S
N47    N108    1.277   .     S
N47    O118    1.350   .     S
N48    Zn59    2.033   .     S
N48    N167    1.277   1_455 S
N48    O170    1.347   1_455 S
O49    Zn59    1.963   .     S
O50    C78     1.400   .     S
O50    N108    1.347   .     S
O51    Zn60    1.963   .     S
O52    Zn60    1.976   .     S
O53    Zn59    1.976   .     S
O54    Zn59    1.989   .     S
O55    Zn60    1.989   .     S
O56    Zn60    2.008   .     S
O57    Zn59    2.008   .     S
O58    N167    1.350   1_455 S
O58    C136    1.402   1_455 S
C61    C82     1.403   .     S
C61    O112    1.290   .     A
C61    O109    1.286   .     A
C62    C64     1.391   .     A
C62    H98     1.086   .     S
C62    C73     1.385   .     A
C63    C86     1.390   .     A
C63    C85     1.414   .     S
C63    C65     1.391   .     A
C64    C84     1.414   .     S
C64    C66     1.390   .     A
C65    C67     1.385   .     A
C65    H100    1.086   .     S
C66    C68     1.384   .     A
C66    H101    1.086   .     S
C67    C69     1.413   .     A
C67    C74     1.400   .     A
C68    C75     1.400   .     A
C68    C70     1.413   .     A
C69    C71     1.413   .     A
C69    C610    1.391   1_554 S
C70    C73     1.413   .     A
C70    C609    1.391   .     S
C71    C86     1.383   .     A
C71    C81     1.400   .     A
C72    C83     1.400   .     S
C72    O111    1.284   .     A
C72    O113    1.291   .     A
C73    C80     1.400   .     A
C74    H102    1.084   .     S
C74    C620    1.391   1_554 S
C75    H103    1.084   .     S
C75    C621    1.390   .     S
C76    H90     1.102   .     S
C76    H89     1.112   .     S
C76    C137    1.519   .     S
C76    O178    1.402   .     S
C77    H93     1.106   .     S
C77    H91     1.111   .     S
C78    H94     1.111   .     S
C78    H95     1.108   .     S
C79    H96     1.111   .     S
C79    H99     1.111   .     S
C79    C138    1.521   .     S
C79    H157    1.111   .     S
C80    H104    1.084   .     S
C80    C614    1.391   .     S
C81    H105    1.083   .     S
C81    C615    1.390   1_554 S
C82    C263    1.332   .     S
C82    H286    1.088   .     S
C83    C442    1.332   1_545 S
C83    H448    1.083   1_545 S
C84    O116    1.291   .     A
C84    O114    1.291   .     A
C85    O117    1.293   .     A
C85    O115    1.289   .     A
C86    H87     1.085   .     S
H88    C263    1.083   .     S
H92    C137    1.111   .     S
H106   C442    1.088   1_545 S
N107   Zn120   2.033   .     S
N107   N168    1.277   .     S
N107   O178    1.350   .     S
N108   Zn119   2.033   .     S
O109   Zn119   1.963   .     S
O110   C138    1.400   .     S
O110   N168    1.347   .     S
O111   Zn120   1.963   .     S
O112   Zn120   1.976   .     S
O113   Zn119   1.976   .     S
O114   Zn119   1.989   .     S
O115   Zn120   1.989   .     S
O116   Zn120   2.008   .     S
O117   Zn119   2.008   .     S
C121   C142    1.403   .     S
C121   O172    1.290   .     A
C121   O169    1.286   .     A
C122   C124    1.391   .     A
C122   H158    1.086   .     S
C122   C133    1.385   .     A
C123   C146    1.390   .     A
C123   C145    1.414   .     S
C123   C125    1.391   .     A
C124   C144    1.414   .     S
C124   C126    1.390   .     A
C125   C127    1.385   .     A
C125   H160    1.086   .     S
C126   C128    1.384   .     A
C126   H161    1.086   .     S
C127   C129    1.413   .     A
C127   C134    1.400   .     A
C128   C135    1.400   .     A
C128   C130    1.413   .     A
C129   C131    1.413   .     A
C129   C670    1.391   1_554 S
C130   C133    1.413   .     A
C130   C669    1.391   .     S
C131   C146    1.383   .     A
C131   C141    1.400   .     A
C132   C143    1.400   .     S
C132   O171    1.284   .     A
C132   O173    1.291   .     A
C133   C140    1.400   .     A
C134   H162    1.084   .     S
C134   C680    1.391   1_554 S
C135   H163    1.084   .     S
C135   C681    1.390   .     S
C136   H150    1.102   .     S
C136   H149    1.112   .     S
C136   C17     1.519   1_655 S
C136   O58     1.402   1_655 S
C137   H153    1.106   .     S
C137   H151    1.111   .     S
C138   H154    1.111   .     S
C138   H155    1.108   .     S
C139   H156    1.111   .     S
C139   H159    1.111   .     S
C139   C18     1.521   1_655 S
C139   H37     1.111   1_655 S
C140   H164    1.084   .     S
C140   C674    1.391   .     S
C141   H165    1.083   .     S
C141   C675    1.390   1_554 S
C142   C323    1.332   .     S
C142   H346    1.088   .     S
C143   C502    1.332   1_545 S
C143   H508    1.083   1_545 S
C144   O176    1.291   .     A
C144   O174    1.291   .     A
C145   O177    1.293   .     A
C145   O175    1.289   .     A
C146   H147    1.085   .     S
H148   C323    1.083   .     S
H152   C17     1.111   1_655 S
H166   C502    1.088   1_545 S
N167   Zn180   2.033   .     S
N167   N48     1.277   1_655 S
N167   O58     1.350   1_655 S
N168   Zn179   2.033   .     S
O169   Zn179   1.963   .     S
O170   C18     1.400   1_655 S
O170   N48     1.347   1_655 S
O171   Zn180   1.963   .     S
O172   Zn180   1.976   .     S
O173   Zn179   1.976   .     S
O174   Zn179   1.989   .     S
O175   Zn180   1.989   .     S
O176   Zn180   2.008   .     S
O177   Zn179   2.008   .     S
C181   C202    1.403   .     S
C181   O232    1.290   .     A
C181   O229    1.286   .     A
C182   C184    1.391   .     A
C182   H218    1.086   .     S
C182   C193    1.385   .     A
C183   C206    1.390   .     A
C183   C205    1.414   .     S
C183   C185    1.391   .     A
C184   C204    1.414   .     S
C184   C186    1.390   .     A
C185   C187    1.385   .     A
C185   H220    1.086   .     S
C186   C188    1.384   .     A
C186   H221    1.086   .     S
C187   C189    1.413   .     A
C187   C194    1.400   .     A
C188   C195    1.400   .     A
C188   C190    1.413   .     A
C189   C191    1.413   .     A
C189   C730    1.391   1_554 S
C190   C193    1.413   .     A
C190   C729    1.391   .     S
C191   C206    1.383   .     A
C191   C201    1.400   .     A
C192   C203    1.400   .     S
C192   O231    1.284   .     A
C192   O233    1.291   .     A
C193   C200    1.400   .     A
C194   H222    1.084   .     S
C194   C740    1.391   1_554 S
C195   H223    1.084   .     S
C195   C741    1.390   .     S
C196   H210    1.102   .     S
C196   H209    1.112   .     S
C196   C257    1.519   .     S
C196   O298    1.402   .     S
C197   H213    1.106   .     S
C197   H211    1.111   .     S
C197   C316    1.519   1_455 S
C197   H332    1.111   1_455 S
C198   H214    1.111   .     S
C198   H215    1.108   .     S
C198   C319    1.521   1_455 S
C198   O350    1.400   1_455 S
C199   H216    1.111   .     S
C199   H219    1.111   .     S
C199   C258    1.521   .     S
C199   H277    1.111   .     S
C200   H224    1.084   .     S
C200   C734    1.391   .     S
C201   H225    1.083   .     S
C201   C735    1.390   1_554 S
C202   C383    1.332   .     S
C202   H406    1.088   .     S
C204   O236    1.291   .     A
C204   O234    1.291   .     A
C205   O237    1.293   .     A
C205   O235    1.289   .     A
C206   H207    1.085   .     S
H208   C383    1.083   .     S
H212   C257    1.111   .     S
H217   C319    1.111   1_455 S
N227   Zn240   2.033   .     S
N227   N288    1.277   .     S
N227   O298    1.350   .     S
N228   Zn239   2.033   .     S
N228   N347    1.277   1_455 S
N228   O350    1.347   1_455 S
O229   Zn239   1.963   .     S
O230   C258    1.400   .     S
O230   N288    1.347   .     S
O231   Zn240   1.963   .     S
O232   Zn240   1.976   .     S
O233   Zn239   1.976   .     S
O234   Zn239   1.989   .     S
O235   Zn240   1.989   .     S
O236   Zn240   2.008   .     S
O237   Zn239   2.008   .     S
O238   N347    1.350   1_455 S
O238   C316    1.402   1_455 S
C241   C262    1.403   .     S
C241   O292    1.290   .     A
C241   O289    1.286   .     A
C242   C244    1.391   .     A
C242   H278    1.086   .     S
C242   C253    1.385   .     A
C243   C266    1.390   .     A
C243   C265    1.414   .     S
C243   C245    1.391   .     A
C244   C264    1.414   .     S
C244   C246    1.390   .     A
C245   C247    1.385   .     A
C245   H280    1.086   .     S
C246   C248    1.384   .     A
C246   H281    1.086   .     S
C247   C249    1.413   .     A
C247   C254    1.400   .     A
C248   C255    1.400   .     A
C248   C250    1.413   .     A
C249   C251    1.413   .     A
C249   C790    1.391   1_554 S
C250   C253    1.413   .     A
C250   C789    1.391   .     S
C251   C266    1.383   .     A
C251   C261    1.400   .     A
C252   C263    1.400   .     S
C252   O291    1.284   .     A
C252   O293    1.291   .     A
C253   C260    1.400   .     A
C254   H282    1.084   .     S
C254   C800    1.391   1_554 S
C255   H283    1.084   .     S
C255   C801    1.390   .     S
C256   H270    1.102   .     S
C256   H269    1.112   .     S
C256   C317    1.519   .     S
C256   O358    1.402   .     S
C257   H273    1.106   .     S
C257   H271    1.111   .     S
C258   H274    1.111   .     S
C258   H275    1.108   .     S
C259   H276    1.111   .     S
C259   H279    1.111   .     S
C259   C318    1.521   .     S
C259   H337    1.111   .     S
C260   H284    1.084   .     S
C260   C794    1.391   .     S
C261   H285    1.083   .     S
C261   C795    1.390   1_554 S
C262   C443    1.332   .     S
C262   H466    1.088   .     S
C264   O296    1.291   .     A
C264   O294    1.291   .     A
C265   O297    1.293   .     A
C265   O295    1.289   .     A
C266   H267    1.085   .     S
H268   C443    1.083   .     S
H272   C317    1.111   .     S
N287   Zn300   2.033   .     S
N287   N348    1.277   .     S
N287   O358    1.350   .     S
N288   Zn299   2.033   .     S
O289   Zn299   1.963   .     S
O290   C318    1.400   .     S
O290   N348    1.347   .     S
O291   Zn300   1.963   .     S
O292   Zn300   1.976   .     S
O293   Zn299   1.976   .     S
O294   Zn299   1.989   .     S
O295   Zn300   1.989   .     S
O296   Zn300   2.008   .     S
O297   Zn299   2.008   .     S
C301   C322    1.403   .     S
C301   O352    1.290   .     A
C301   O349    1.286   .     A
C302   C304    1.391   .     A
C302   H338    1.086   .     S
C302   C313    1.385   .     A
C303   C326    1.390   .     A
C303   C325    1.414   .     S
C303   C305    1.391   .     A
C304   C324    1.414   .     S
C304   C306    1.390   .     A
C305   C307    1.385   .     A
C305   H340    1.086   .     S
C306   C308    1.384   .     A
C306   H341    1.086   .     S
C307   C309    1.413   .     A
C307   C314    1.400   .     A
C308   C315    1.400   .     A
C308   C310    1.413   .     A
C309   C311    1.413   .     A
C309   C850    1.391   1_554 S
C310   C313    1.413   .     A
C310   C849    1.391   .     S
C311   C326    1.383   .     A
C311   C321    1.400   .     A
C312   C323    1.400   .     S
C312   O351    1.284   .     A
C312   O353    1.291   .     A
C313   C320    1.400   .     A
C314   H342    1.084   .     S
C314   C860    1.391   1_554 S
C315   H343    1.084   .     S
C315   C861    1.390   .     S
C316   H330    1.102   .     S
C316   H329    1.112   .     S
C316   C197    1.519   1_655 S
C316   O238    1.402   1_655 S
C317   H333    1.106   .     S
C317   H331    1.111   .     S
C318   H334    1.111   .     S
C318   H335    1.108   .     S
C319   H336    1.111   .     S
C319   H339    1.111   .     S
C319   C198    1.521   1_655 S
C319   H217    1.111   1_655 S
C320   H344    1.084   .     S
C320   C854    1.391   .     S
C321   H345    1.083   .     S
C321   C855    1.390   1_554 S
C322   C503    1.332   .     S
C322   H526    1.088   .     S
C324   O356    1.291   .     A
C324   O354    1.291   .     A
C325   O357    1.293   .     A
C325   O355    1.289   .     A
C326   H327    1.085   .     S
H328   C503    1.083   .     S
H332   C197    1.111   1_655 S
N347   Zn360   2.033   .     S
N347   N228    1.277   1_655 S
N347   O238    1.350   1_655 S
N348   Zn359   2.033   .     S
O349   Zn359   1.963   .     S
O350   C198    1.400   1_655 S
O350   N228    1.347   1_655 S
O351   Zn360   1.963   .     S
O352   Zn360   1.976   .     S
O353   Zn359   1.976   .     S
O354   Zn359   1.989   .     S
O355   Zn360   1.989   .     S
O356   Zn360   2.008   .     S
O357   Zn359   2.008   .     S
C361   C382    1.403   .     S
C361   O412    1.290   .     A
C361   O409    1.286   .     A
C362   C364    1.391   .     A
C362   H398    1.086   .     S
C362   C373    1.385   .     A
C363   C386    1.390   .     A
C363   C385    1.414   .     S
C363   C365    1.391   .     A
C364   C384    1.414   .     S
C364   C366    1.390   .     A
C365   C367    1.385   .     A
C365   H400    1.086   .     S
C366   C368    1.384   .     A
C366   H401    1.086   .     S
C367   C369    1.413   .     A
C367   C374    1.400   .     A
C368   C375    1.400   .     A
C368   C370    1.413   .     A
C369   C371    1.413   .     A
C369   C910    1.391   1_554 S
C370   C373    1.413   .     A
C370   C909    1.391   .     S
C371   C386    1.383   .     A
C371   C381    1.400   .     A
C372   C383    1.400   .     S
C372   O411    1.284   .     A
C372   O413    1.291   .     A
C373   C380    1.400   .     A
C374   H402    1.084   .     S
C374   C920    1.391   1_554 S
C375   H403    1.084   .     S
C375   C921    1.390   .     S
C376   H390    1.102   .     S
C376   H389    1.112   .     S
C376   C437    1.519   .     S
C376   O478    1.402   .     S
C377   H393    1.106   .     S
C377   H391    1.111   .     S
C377   C496    1.519   1_455 S
C377   H512    1.111   1_455 S
C378   H394    1.111   .     S
C378   H395    1.108   .     S
C378   C499    1.521   1_455 S
C378   O530    1.400   1_455 S
C379   H396    1.111   .     S
C379   H399    1.111   .     S
C379   C438    1.521   .     S
C379   H457    1.111   .     S
C380   H404    1.084   .     S
C380   C914    1.391   .     S
C381   H405    1.083   .     S
C381   C915    1.390   1_554 S
C382   C23     1.332   1_565 S
C382   H46     1.088   1_565 S
C384   O416    1.291   .     A
C384   O414    1.291   .     A
C385   O417    1.293   .     A
C385   O415    1.289   .     A
C386   H387    1.085   .     S
H388   C23     1.083   1_565 S
H392   C437    1.111   .     S
H397   C499    1.111   1_455 S
N407   Zn420   2.033   .     S
N407   N468    1.277   .     S
N407   O478    1.350   .     S
N408   Zn419   2.033   .     S
N408   N527    1.277   1_455 S
N408   O530    1.347   1_455 S
O409   Zn419   1.963   .     S
O410   C438    1.400   .     S
O410   N468    1.347   .     S
O411   Zn420   1.963   .     S
O412   Zn420   1.976   .     S
O413   Zn419   1.976   .     S
O414   Zn419   1.989   .     S
O415   Zn420   1.989   .     S
O416   Zn420   2.008   .     S
O417   Zn419   2.008   .     S
O418   N527    1.350   1_455 S
O418   C496    1.402   1_455 S
C421   C442    1.403   .     S
C421   O472    1.290   .     A
C421   O469    1.286   .     A
C422   C424    1.391   .     A
C422   H458    1.086   .     S
C422   C433    1.385   .     A
C423   C446    1.390   .     A
C423   C445    1.414   .     S
C423   C425    1.391   .     A
C424   C444    1.414   .     S
C424   C426    1.390   .     A
C425   C427    1.385   .     A
C425   H460    1.086   .     S
C426   C428    1.384   .     A
C426   H461    1.086   .     S
C427   C429    1.413   .     A
C427   C434    1.400   .     A
C428   C435    1.400   .     A
C428   C430    1.413   .     A
C429   C431    1.413   .     A
C429   C970    1.391   1_554 S
C430   C433    1.413   .     A
C430   C969    1.391   .     S
C431   C446    1.383   .     A
C431   C441    1.400   .     A
C432   C443    1.400   .     S
C432   O471    1.284   .     A
C432   O473    1.291   .     A
C433   C440    1.400   .     A
C434   H462    1.084   .     S
C434   C980    1.391   1_554 S
C435   H463    1.084   .     S
C435   C981    1.390   .     S
C436   H450    1.102   .     S
C436   H449    1.112   .     S
C436   C497    1.519   .     S
C436   O538    1.402   .     S
C437   H453    1.106   .     S
C437   H451    1.111   .     S
C438   H454    1.111   .     S
C438   H455    1.108   .     S
C439   H456    1.111   .     S
C439   H459    1.111   .     S
C439   C498    1.521   .     S
C439   H517    1.111   .     S
C440   H464    1.084   .     S
C440   C974    1.391   .     S
C441   H465    1.083   .     S
C441   C975    1.390   1_554 S
C442   C83     1.332   1_565 S
C442   H106    1.088   1_565 S
C444   O476    1.291   .     A
C444   O474    1.291   .     A
C445   O477    1.293   .     A
C445   O475    1.289   .     A
C446   H447    1.085   .     S
H448   C83     1.083   1_565 S
H452   C497    1.111   .     S
N467   Zn480   2.033   .     S
N467   N528    1.277   .     S
N467   O538    1.350   .     S
N468   Zn479   2.033   .     S
O469   Zn479   1.963   .     S
O470   C498    1.400   .     S
O470   N528    1.347   .     S
O471   Zn480   1.963   .     S
O472   Zn480   1.976   .     S
O473   Zn479   1.976   .     S
O474   Zn479   1.989   .     S
O475   Zn480   1.989   .     S
O476   Zn480   2.008   .     S
O477   Zn479   2.008   .     S
C481   C502    1.403   .     S
C481   O532    1.290   .     A
C481   O529    1.286   .     A
C482   C484    1.391   .     A
C482   H518    1.086   .     S
C482   C493    1.385   .     A
C483   C506    1.390   .     A
C483   C505    1.414   .     S
C483   C485    1.391   .     A
C484   C504    1.414   .     S
C484   C486    1.390   .     A
C485   C487    1.385   .     A
C485   H520    1.086   .     S
C486   C488    1.384   .     A
C486   H521    1.086   .     S
C487   C489    1.413   .     A
C487   C494    1.400   .     A
C488   C495    1.400   .     A
C488   C490    1.413   .     A
C489   C491    1.413   .     A
C489   C1030   1.391   1_554 S
C490   C493    1.413   .     A
C490   C1029   1.391   .     S
C491   C506    1.383   .     A
C491   C501    1.400   .     A
C492   C503    1.400   .     S
C492   O531    1.284   .     A
C492   O533    1.291   .     A
C493   C500    1.400   .     A
C494   H522    1.084   .     S
C494   C1040   1.391   1_554 S
C495   H523    1.084   .     S
C495   C1041   1.390   .     S
C496   H510    1.102   .     S
C496   H509    1.112   .     S
C496   C377    1.519   1_655 S
C496   O418    1.402   1_655 S
C497   H513    1.106   .     S
C497   H511    1.111   .     S
C498   H514    1.111   .     S
C498   H515    1.108   .     S
C499   H516    1.111   .     S
C499   H519    1.111   .     S
C499   C378    1.521   1_655 S
C499   H397    1.111   1_655 S
C500   H524    1.084   .     S
C500   C1034   1.391   .     S
C501   H525    1.083   .     S
C501   C1035   1.390   1_554 S
C502   C143    1.332   1_565 S
C502   H166    1.088   1_565 S
C504   O536    1.291   .     A
C504   O534    1.291   .     A
C505   O537    1.293   .     A
C505   O535    1.289   .     A
C506   H507    1.085   .     S
H508   C143    1.083   1_565 S
H512   C377    1.111   1_655 S
N527   Zn540   2.033   .     S
N527   N408    1.277   1_655 S
N527   O418    1.350   1_655 S
N528   Zn539   2.033   .     S
O529   Zn539   1.963   .     S
O530   C378    1.400   1_655 S
O530   N408    1.347   1_655 S
O531   Zn540   1.963   .     S
O532   Zn540   1.976   .     S
O533   Zn539   1.976   .     S
O534   Zn539   1.989   .     S
O535   Zn540   1.989   .     S
O536   Zn540   2.008   .     S
O537   Zn539   2.008   .     S
C541   C562    1.403   .     S
C541   O592    1.290   .     A
C541   O589    1.286   .     A
C542   C544    1.391   .     A
C542   H578    1.086   .     S
C542   C553    1.385   .     A
C543   C566    1.390   .     A
C543   C565    1.414   .     S
C543   C545    1.391   .     A
C544   C564    1.414   .     S
C544   C546    1.390   .     A
C545   C547    1.385   .     A
C545   H580    1.086   .     S
C546   C548    1.384   .     A
C546   H581    1.086   .     S
C547   C549    1.413   .     A
C547   C554    1.400   .     A
C548   C555    1.400   .     A
C548   C550    1.413   .     A
C549   C551    1.413   .     A
C550   C553    1.413   .     A
C550   C9      1.391   1_556 S
C551   C566    1.383   .     A
C551   C561    1.400   .     A
C552   C563    1.400   .     S
C552   O591    1.284   .     A
C552   O593    1.291   .     A
C553   C560    1.400   .     A
C554   H582    1.084   .     S
C555   H583    1.084   .     S
C555   C21     1.390   1_556 S
C556   H570    1.102   .     S
C556   H569    1.112   .     S
C556   C617    1.519   .     S
C556   O658    1.402   .     S
C557   H573    1.106   .     S
C557   H571    1.111   .     S
C557   C676    1.519   1_455 S
C557   H692    1.111   1_455 S
C558   H574    1.111   .     S
C558   H575    1.108   .     S
C558   C679    1.521   1_455 S
C558   O710    1.400   1_455 S
C559   H576    1.111   .     S
C559   H579    1.111   .     S
C559   C618    1.521   .     S
C559   H637    1.111   .     S
C560   H584    1.084   .     S
C560   C14     1.391   1_556 S
C561   H585    1.083   .     S
C562   C743    1.332   .     S
C562   H766    1.088   .     S
C563   C922    1.332   1_545 S
C563   H928    1.083   1_545 S
C564   O596    1.291   .     A
C564   O594    1.291   .     A
C565   O597    1.293   .     A
C565   O595    1.289   .     A
C566   H567    1.085   .     S
H568   C743    1.083   .     S
H572   C617    1.111   .     S
H577   C679    1.111   1_455 S
H586   C922    1.088   1_545 S
N587   Zn600   2.033   .     S
N587   N648    1.277   .     S
N587   O658    1.350   .     S
N588   Zn599   2.033   .     S
N588   N707    1.277   1_455 S
N588   O710    1.347   1_455 S
O589   Zn599   1.963   .     S
O590   C618    1.400   .     S
O590   N648    1.347   .     S
O591   Zn600   1.963   .     S
O592   Zn600   1.976   .     S
O593   Zn599   1.976   .     S
O594   Zn599   1.989   .     S
O595   Zn600   1.989   .     S
O596   Zn600   2.008   .     S
O597   Zn599   2.008   .     S
O598   N707    1.350   1_455 S
O598   C676    1.402   1_455 S
C601   C622    1.403   .     S
C601   O652    1.290   .     A
C601   O649    1.286   .     A
C602   C604    1.391   .     A
C602   H638    1.086   .     S
C602   C613    1.385   .     A
C603   C626    1.390   .     A
C603   C625    1.414   .     S
C603   C605    1.391   .     A
C604   C624    1.414   .     S
C604   C606    1.390   .     A
C605   C607    1.385   .     A
C605   H640    1.086   .     S
C606   C608    1.384   .     A
C606   H641    1.086   .     S
C607   C609    1.413   .     A
C607   C614    1.400   .     A
C608   C615    1.400   .     A
C608   C610    1.413   .     A
C609   C611    1.413   .     A
C610   C613    1.413   .     A
C610   C69     1.391   1_556 S
C611   C626    1.383   .     A
C611   C621    1.400   .     A
C612   C623    1.400   .     S
C612   O651    1.284   .     A
C612   O653    1.291   .     A
C613   C620    1.400   .     A
C614   H642    1.084   .     S
C615   H643    1.084   .     S
C615   C81     1.390   1_556 S
C616   H630    1.102   .     S
C616   H629    1.112   .     S
C616   C677    1.519   .     S
C616   O718    1.402   .     S
C617   H633    1.106   .     S
C617   H631    1.111   .     S
C618   H634    1.111   .     S
C618   H635    1.108   .     S
C619   H636    1.111   .     S
C619   H639    1.111   .     S
C619   C678    1.521   .     S
C619   H697    1.111   .     S
C620   H644    1.084   .     S
C620   C74     1.391   1_556 S
C621   H645    1.083   .     S
C622   C803    1.332   .     S
C622   H826    1.088   .     S
C623   C982    1.332   1_545 S
C623   H988    1.083   1_545 S
C624   O656    1.291   .     A
C624   O654    1.291   .     A
C625   O657    1.293   .     A
C625   O655    1.289   .     A
C626   H627    1.085   .     S
H628   C803    1.083   .     S
H632   C677    1.111   .     S
H646   C982    1.088   1_545 S
N647   Zn660   2.033   .     S
N647   N708    1.277   .     S
N647   O718    1.350   .     S
N648   Zn659   2.033   .     S
O649   Zn659   1.963   .     S
O650   C678    1.400   .     S
O650   N708    1.347   .     S
O651   Zn660   1.963   .     S
O652   Zn660   1.976   .     S
O653   Zn659   1.976   .     S
O654   Zn659   1.989   .     S
O655   Zn660   1.989   .     S
O656   Zn660   2.008   .     S
O657   Zn659   2.008   .     S
C661   C682    1.403   .     S
C661   O712    1.290   .     A
C661   O709    1.286   .     A
C662   C664    1.391   .     A
C662   H698    1.086   .     S
C662   C673    1.385   .     A
C663   C686    1.390   .     A
C663   C685    1.414   .     S
C663   C665    1.391   .     A
C664   C684    1.414   .     S
C664   C666    1.390   .     A
C665   C667    1.385   .     A
C665   H700    1.086   .     S
C666   C668    1.384   .     A
C666   H701    1.086   .     S
C667   C669    1.413   .     A
C667   C674    1.400   .     A
C668   C675    1.400   .     A
C668   C670    1.413   .     A
C669   C671    1.413   .     A
C670   C673    1.413   .     A
C670   C129    1.391   1_556 S
C671   C686    1.383   .     A
C671   C681    1.400   .     A
C672   C683    1.400   .     S
C672   O711    1.284   .     A
C672   O713    1.291   .     A
C673   C680    1.400   .     A
C674   H702    1.084   .     S
C675   H703    1.084   .     S
C675   C141    1.390   1_556 S
C676   H690    1.102   .     S
C676   H689    1.112   .     S
C676   C557    1.519   1_655 S
C676   O598    1.402   1_655 S
C677   H693    1.106   .     S
C677   H691    1.111   .     S
C678   H694    1.111   .     S
C678   H695    1.108   .     S
C679   H696    1.111   .     S
C679   H699    1.111   .     S
C679   C558    1.521   1_655 S
C679   H577    1.111   1_655 S
C680   H704    1.084   .     S
C680   C134    1.391   1_556 S
C681   H705    1.083   .     S
C682   C863    1.332   .     S
C682   H886    1.088   .     S
C683   C1042   1.332   1_545 S
C683   H1048   1.083   1_545 S
C684   O716    1.291   .     A
C684   O714    1.291   .     A
C685   O717    1.293   .     A
C685   O715    1.289   .     A
C686   H687    1.085   .     S
H688   C863    1.083   .     S
H692   C557    1.111   1_655 S
H706   C1042   1.088   1_545 S
N707   Zn720   2.033   .     S
N707   N588    1.277   1_655 S
N707   O598    1.350   1_655 S
N708   Zn719   2.033   .     S
O709   Zn719   1.963   .     S
O710   C558    1.400   1_655 S
O710   N588    1.347   1_655 S
O711   Zn720   1.963   .     S
O712   Zn720   1.976   .     S
O713   Zn719   1.976   .     S
O714   Zn719   1.989   .     S
O715   Zn720   1.989   .     S
O716   Zn720   2.008   .     S
O717   Zn719   2.008   .     S
C721   C742    1.403   .     S
C721   O772    1.290   .     A
C721   O769    1.286   .     A
C722   C724    1.391   .     A
C722   H758    1.086   .     S
C722   C733    1.385   .     A
C723   C746    1.390   .     A
C723   C745    1.414   .     S
C723   C725    1.391   .     A
C724   C744    1.414   .     S
C724   C726    1.390   .     A
C725   C727    1.385   .     A
C725   H760    1.086   .     S
C726   C728    1.384   .     A
C726   H761    1.086   .     S
C727   C729    1.413   .     A
C727   C734    1.400   .     A
C728   C735    1.400   .     A
C728   C730    1.413   .     A
C729   C731    1.413   .     A
C730   C733    1.413   .     A
C730   C189    1.391   1_556 S
C731   C746    1.383   .     A
C731   C741    1.400   .     A
C732   C743    1.400   .     S
C732   O771    1.284   .     A
C732   O773    1.291   .     A
C733   C740    1.400   .     A
C734   H762    1.084   .     S
C735   H763    1.084   .     S
C735   C201    1.390   1_556 S
C736   H750    1.102   .     S
C736   H749    1.112   .     S
C736   C797    1.519   .     S
C736   O838    1.402   .     S
C737   H753    1.106   .     S
C737   H751    1.111   .     S
C737   C856    1.519   1_455 S
C737   H872    1.111   1_455 S
C738   H754    1.111   .     S
C738   H755    1.108   .     S
C738   C859    1.521   1_455 S
C738   O890    1.400   1_455 S
C739   H756    1.111   .     S
C739   H759    1.111   .     S
C739   C798    1.521   .     S
C739   H817    1.111   .     S
C740   H764    1.084   .     S
C740   C194    1.391   1_556 S
C741   H765    1.083   .     S
C742   C923    1.332   .     S
C742   H946    1.088   .     S
C744   O776    1.291   .     A
C744   O774    1.291   .     A
C745   O777    1.293   .     A
C745   O775    1.289   .     A
C746   H747    1.085   .     S
H748   C923    1.083   .     S
H752   C797    1.111   .     S
H757   C859    1.111   1_455 S
N767   Zn780   2.033   .     S
N767   N828    1.277   .     S
N767   O838    1.350   .     S
N768   Zn779   2.033   .     S
N768   N887    1.277   1_455 S
N768   O890    1.347   1_455 S
O769   Zn779   1.963   .     S
O770   C798    1.400   .     S
O770   N828    1.347   .     S
O771   Zn780   1.963   .     S
O772   Zn780   1.976   .     S
O773   Zn779   1.976   .     S
O774   Zn779   1.989   .     S
O775   Zn780   1.989   .     S
O776   Zn780   2.008   .     S
O777   Zn779   2.008   .     S
O778   N887    1.350   1_455 S
O778   C856    1.402   1_455 S
C781   C802    1.403   .     S
C781   O832    1.290   .     A
C781   O829    1.286   .     A
C782   C784    1.391   .     A
C782   H818    1.086   .     S
C782   C793    1.385   .     A
C783   C806    1.390   .     A
C783   C805    1.414   .     S
C783   C785    1.391   .     A
C784   C804    1.414   .     S
C784   C786    1.390   .     A
C785   C787    1.385   .     A
C785   H820    1.086   .     S
C786   C788    1.384   .     A
C786   H821    1.086   .     S
C787   C789    1.413   .     A
C787   C794    1.400   .     A
C788   C795    1.400   .     A
C788   C790    1.413   .     A
C789   C791    1.413   .     A
C790   C793    1.413   .     A
C790   C249    1.391   1_556 S
C791   C806    1.383   .     A
C791   C801    1.400   .     A
C792   C803    1.400   .     S
C792   O831    1.284   .     A
C792   O833    1.291   .     A
C793   C800    1.400   .     A
C794   H822    1.084   .     S
C795   H823    1.084   .     S
C795   C261    1.390   1_556 S
C796   H810    1.102   .     S
C796   H809    1.112   .     S
C796   C857    1.519   .     S
C796   O898    1.402   .     S
C797   H813    1.106   .     S
C797   H811    1.111   .     S
C798   H814    1.111   .     S
C798   H815    1.108   .     S
C799   H816    1.111   .     S
C799   H819    1.111   .     S
C799   C858    1.521   .     S
C799   H877    1.111   .     S
C800   H824    1.084   .     S
C800   C254    1.391   1_556 S
C801   H825    1.083   .     S
C802   C983    1.332   .     S
C802   H1006   1.088   .     S
C804   O836    1.291   .     A
C804   O834    1.291   .     A
C805   O837    1.293   .     A
C805   O835    1.289   .     A
C806   H807    1.085   .     S
H808   C983    1.083   .     S
H812   C857    1.111   .     S
N827   Zn840   2.033   .     S
N827   N888    1.277   .     S
N827   O898    1.350   .     S
N828   Zn839   2.033   .     S
O829   Zn839   1.963   .     S
O830   C858    1.400   .     S
O830   N888    1.347   .     S
O831   Zn840   1.963   .     S
O832   Zn840   1.976   .     S
O833   Zn839   1.976   .     S
O834   Zn839   1.989   .     S
O835   Zn840   1.989   .     S
O836   Zn840   2.008   .     S
O837   Zn839   2.008   .     S
C841   C862    1.403   .     S
C841   O892    1.290   .     A
C841   O889    1.286   .     A
C842   C844    1.391   .     A
C842   H878    1.086   .     S
C842   C853    1.385   .     A
C843   C866    1.390   .     A
C843   C865    1.414   .     S
C843   C845    1.391   .     A
C844   C864    1.414   .     S
C844   C846    1.390   .     A
C845   C847    1.385   .     A
C845   H880    1.086   .     S
C846   C848    1.384   .     A
C846   H881    1.086   .     S
C847   C849    1.413   .     A
C847   C854    1.400   .     A
C848   C855    1.400   .     A
C848   C850    1.413   .     A
C849   C851    1.413   .     A
C850   C853    1.413   .     A
C850   C309    1.391   1_556 S
C851   C866    1.383   .     A
C851   C861    1.400   .     A
C852   C863    1.400   .     S
C852   O891    1.284   .     A
C852   O893    1.291   .     A
C853   C860    1.400   .     A
C854   H882    1.084   .     S
C855   H883    1.084   .     S
C855   C321    1.390   1_556 S
C856   H870    1.102   .     S
C856   H869    1.112   .     S
C856   C737    1.519   1_655 S
C856   O778    1.402   1_655 S
C857   H873    1.106   .     S
C857   H871    1.111   .     S
C858   H874    1.111   .     S
C858   H875    1.108   .     S
C859   H876    1.111   .     S
C859   H879    1.111   .     S
C859   C738    1.521   1_655 S
C859   H757    1.111   1_655 S
C860   H884    1.084   .     S
C860   C314    1.391   1_556 S
C861   H885    1.083   .     S
C862   C1043   1.332   .     S
C862   H1066   1.088   .     S
C864   O896    1.291   .     A
C864   O894    1.291   .     A
C865   O897    1.293   .     A
C865   O895    1.289   .     A
C866   H867    1.085   .     S
H868   C1043   1.083   .     S
H872   C737    1.111   1_655 S
N887   Zn900   2.033   .     S
N887   N768    1.277   1_655 S
N887   O778    1.350   1_655 S
N888   Zn899   2.033   .     S
O889   Zn899   1.963   .     S
O890   C738    1.400   1_655 S
O890   N768    1.347   1_655 S
O891   Zn900   1.963   .     S
O892   Zn900   1.976   .     S
O893   Zn899   1.976   .     S
O894   Zn899   1.989   .     S
O895   Zn900   1.989   .     S
O896   Zn900   2.008   .     S
O897   Zn899   2.008   .     S
C901   C922    1.403   .     S
C901   O952    1.290   .     A
C901   O949    1.286   .     A
C902   C904    1.391   .     A
C902   H938    1.086   .     S
C902   C913    1.385   .     A
C903   C926    1.390   .     A
C903   C925    1.414   .     S
C903   C905    1.391   .     A
C904   C924    1.414   .     S
C904   C906    1.390   .     A
C905   C907    1.385   .     A
C905   H940    1.086   .     S
C906   C908    1.384   .     A
C906   H941    1.086   .     S
C907   C909    1.413   .     A
C907   C914    1.400   .     A
C908   C915    1.400   .     A
C908   C910    1.413   .     A
C909   C911    1.413   .     A
C910   C913    1.413   .     A
C910   C369    1.391   1_556 S
C911   C926    1.383   .     A
C911   C921    1.400   .     A
C912   C923    1.400   .     S
C912   O951    1.284   .     A
C912   O953    1.291   .     A
C913   C920    1.400   .     A
C914   H942    1.084   .     S
C915   H943    1.084   .     S
C915   C381    1.390   1_556 S
C916   H930    1.102   .     S
C916   H929    1.112   .     S
C916   C977    1.519   .     S
C916   O1018   1.402   .     S
C917   H933    1.106   .     S
C917   H931    1.111   .     S
C917   C1036   1.519   1_455 S
C917   H1052   1.111   1_455 S
C918   H934    1.111   .     S
C918   H935    1.108   .     S
C918   C1039   1.521   1_455 S
C918   O1070   1.400   1_455 S
C919   H936    1.111   .     S
C919   H939    1.111   .     S
C919   C978    1.521   .     S
C919   H997    1.111   .     S
C920   H944    1.084   .     S
C920   C374    1.391   1_556 S
C921   H945    1.083   .     S
C922   C563    1.332   1_565 S
C922   H586    1.088   1_565 S
C924   O956    1.291   .     A
C924   O954    1.291   .     A
C925   O957    1.293   .     A
C925   O955    1.289   .     A
C926   H927    1.085   .     S
H928   C563    1.083   1_565 S
H932   C977    1.111   .     S
H937   C1039   1.111   1_455 S
N947   Zn960   2.033   .     S
N947   N1008   1.277   .     S
N947   O1018   1.350   .     S
N948   Zn959   2.033   .     S
N948   N1067   1.277   1_455 S
N948   O1070   1.347   1_455 S
O949   Zn959   1.963   .     S
O950   C978    1.400   .     S
O950   N1008   1.347   .     S
O951   Zn960   1.963   .     S
O952   Zn960   1.976   .     S
O953   Zn959   1.976   .     S
O954   Zn959   1.989   .     S
O955   Zn960   1.989   .     S
O956   Zn960   2.008   .     S
O957   Zn959   2.008   .     S
O958   N1067   1.350   1_455 S
O958   C1036   1.402   1_455 S
C961   C982    1.403   .     S
C961   O1012   1.290   .     A
C961   O1009   1.286   .     A
C962   C964    1.391   .     A
C962   H998    1.086   .     S
C962   C973    1.385   .     A
C963   C986    1.390   .     A
C963   C985    1.414   .     S
C963   C965    1.391   .     A
C964   C984    1.414   .     S
C964   C966    1.390   .     A
C965   C967    1.385   .     A
C965   H1000   1.086   .     S
C966   C968    1.384   .     A
C966   H1001   1.086   .     S
C967   C969    1.413   .     A
C967   C974    1.400   .     A
C968   C975    1.400   .     A
C968   C970    1.413   .     A
C969   C971    1.413   .     A
C970   C973    1.413   .     A
C970   C429    1.391   1_556 S
C971   C986    1.383   .     A
C971   C981    1.400   .     A
C972   C983    1.400   .     S
C972   O1011   1.284   .     A
C972   O1013   1.291   .     A
C973   C980    1.400   .     A
C974   H1002   1.084   .     S
C975   H1003   1.084   .     S
C975   C441    1.390   1_556 S
C976   H990    1.102   .     S
C976   H989    1.112   .     S
C976   C1037   1.519   .     S
C976   O1078   1.402   .     S
C977   H993    1.106   .     S
C977   H991    1.111   .     S
C978   H994    1.111   .     S
C978   H995    1.108   .     S
C979   H996    1.111   .     S
C979   H999    1.111   .     S
C979   C1038   1.521   .     S
C979   H1057   1.111   .     S
C980   H1004   1.084   .     S
C980   C434    1.391   1_556 S
C981   H1005   1.083   .     S
C982   C623    1.332   1_565 S
C982   H646    1.088   1_565 S
C984   O1016   1.291   .     A
C984   O1014   1.291   .     A
C985   O1017   1.293   .     A
C985   O1015   1.289   .     A
C986   H987    1.085   .     S
H988   C623    1.083   1_565 S
H992   C1037   1.111   .     S
N1007  Zn1020  2.033   .     S
N1007  N1068   1.277   .     S
N1007  O1078   1.350   .     S
N1008  Zn1019  2.033   .     S
O1009  Zn1019  1.963   .     S
O1010  C1038   1.400   .     S
O1010  N1068   1.347   .     S
O1011  Zn1020  1.963   .     S
O1012  Zn1020  1.976   .     S
O1013  Zn1019  1.976   .     S
O1014  Zn1019  1.989   .     S
O1015  Zn1020  1.989   .     S
O1016  Zn1020  2.008   .     S
O1017  Zn1019  2.008   .     S
C1021  C1042   1.403   .     S
C1021  O1072   1.290   .     A
C1021  O1069   1.286   .     A
C1022  C1024   1.391   .     A
C1022  H1058   1.086   .     S
C1022  C1033   1.385   .     A
C1023  C1046   1.390   .     A
C1023  C1045   1.414   .     S
C1023  C1025   1.391   .     A
C1024  C1044   1.414   .     S
C1024  C1026   1.390   .     A
C1025  C1027   1.385   .     A
C1025  H1060   1.086   .     S
C1026  C1028   1.384   .     A
C1026  H1061   1.086   .     S
C1027  C1029   1.413   .     A
C1027  C1034   1.400   .     A
C1028  C1035   1.400   .     A
C1028  C1030   1.413   .     A
C1029  C1031   1.413   .     A
C1030  C1033   1.413   .     A
C1030  C489    1.391   1_556 S
C1031  C1046   1.383   .     A
C1031  C1041   1.400   .     A
C1032  C1043   1.400   .     S
C1032  O1071   1.284   .     A
C1032  O1073   1.291   .     A
C1033  C1040   1.400   .     A
C1034  H1062   1.084   .     S
C1035  H1063   1.084   .     S
C1035  C501    1.390   1_556 S
C1036  H1050   1.102   .     S
C1036  H1049   1.112   .     S
C1036  C917    1.519   1_655 S
C1036  O958    1.402   1_655 S
C1037  H1053   1.106   .     S
C1037  H1051   1.111   .     S
C1038  H1054   1.111   .     S
C1038  H1055   1.108   .     S
C1039  H1056   1.111   .     S
C1039  H1059   1.111   .     S
C1039  C918    1.521   1_655 S
C1039  H937    1.111   1_655 S
C1040  H1064   1.084   .     S
C1040  C494    1.391   1_556 S
C1041  H1065   1.083   .     S
C1042  C683    1.332   1_565 S
C1042  H706    1.088   1_565 S
C1044  O1076   1.291   .     A
C1044  O1074   1.291   .     A
C1045  O1077   1.293   .     A
C1045  O1075   1.289   .     A
C1046  H1047   1.085   .     S
H1048  C683    1.083   1_565 S
H1052  C917    1.111   1_655 S
N1067  Zn1080  2.033   .     S
N1067  N948    1.277   1_655 S
N1067  O958    1.350   1_655 S
N1068  Zn1079  2.033   .     S
O1069  Zn1079  1.963   .     S
O1070  C918    1.400   1_655 S
O1070  N948    1.347   1_655 S
O1071  Zn1080  1.963   .     S
O1072  Zn1080  1.976   .     S
O1073  Zn1079  1.976   .     S
O1074  Zn1079  1.989   .     S
O1075  Zn1080  1.989   .     S
O1076  Zn1080  2.008   .     S
O1077  Zn1079  2.008   .     S
