data_str_m2_o1_o18_pcu_sym.116
_audit_creation_date              2020-01-03
_audit_creation_method            'Materials Studio'
_symmetry_space_group_name_H-M    'P1'
_symmetry_Int_Tables_number       1
_symmetry_cell_setting            triclinic
loop_
_symmetry_equiv_pos_as_xyz
  x,y,z
_cell_length_a                    28.6532
_cell_length_b                    32.4937
_cell_length_c                    30.9364
_cell_angle_alpha                 89.1399
_cell_angle_beta                  74.7671
_cell_angle_gamma                 89.6628
loop_
_atom_site_label
_atom_site_type_symbol
_atom_site_fract_x
_atom_site_fract_y
_atom_site_fract_z
_atom_site_U_iso_or_equiv
_atom_site_adp_type
_atom_site_occupancy
C1     C     0.00005   0.08739   0.25006   0.00000  Uiso   1.00
C2     C     0.33328   0.24594   0.24994   0.00000  Uiso   1.00
C3     C     0.19373   0.15112   0.04648   0.00000  Uiso   1.00
C4     C     0.13960   0.18222   0.45352   0.00000  Uiso   1.00
C5     C     0.24202   0.14600   0.02406   0.00000  Uiso   1.00
C6     C     0.09131   0.18733   0.47594   0.00000  Uiso   1.00
C7     C     0.29061   0.02151   0.25133   0.00000  Uiso   1.00
C8     C     0.04272   0.31183   0.24867   0.00000  Uiso   1.00
C9     C     0.29054   0.31226   0.25126   0.00000  Uiso   1.00
C10    C     0.04279   0.02107   0.24874   0.00000  Uiso   1.00
C11    C     0.33326   0.29058   0.24993   0.00000  Uiso   1.00
C12    C     0.00007   0.04275   0.25007   0.00000  Uiso   1.00
C13    C     0.18392   0.14126   0.27822   0.00000  Uiso   1.00
C14    C     0.14941   0.19207   0.22178   0.00000  Uiso   1.00
C15    C     0.13449   0.14115   0.27836   0.00000  Uiso   1.00
C16    C     0.19884   0.19218   0.22164   0.00000  Uiso   1.00
C17    C     0.30617   0.16642   0.33607   0.00000  Uiso   1.00
C18    C     0.02716   0.16691   0.16393   0.00000  Uiso   1.00
C19    C     0.29108   0.16414   0.38522   0.00000  Uiso   1.00
C20    C     0.04226   0.16920   0.11478   0.00000  Uiso   1.00
C21    C     0.30684   0.14672   0.45619   0.00000  Uiso   1.00
C22    C     0.02649   0.18662   0.04381   0.00000  Uiso   1.00
C23    C     0.32345   0.15260   0.41007   0.00000  Uiso   1.00
C24    C     0.00989   0.18073   0.08993   0.00000  Uiso   1.00
C25    C     0.24239   0.17105   0.40711   0.00000  Uiso   1.00
C26    C     0.09094   0.16228   0.09289   0.00000  Uiso   1.00
C27    C     0.22444   0.16503   0.45365   0.00000  Uiso   1.00
C28    C     0.10889   0.16831   0.04635   0.00000  Uiso   1.00
C29    C     0.25780   0.15266   0.47808   0.00000  Uiso   1.00
C30    C     0.07554   0.18067   0.02192   0.00000  Uiso   1.00
C31    C     0.17448   0.17026   0.47639   0.00000  Uiso   1.00
C32    C     0.15885   0.16308   0.02361   0.00000  Uiso   1.00
Cu33   Cu    0.04689   0.16667   0.25000   0.00000  Uiso   1.00
Cu34   Cu    0.28645   0.16666   0.25000   0.00000  Uiso   1.00
H35    H     0.26726   0.13655   0.04301   0.00000  Uiso   1.00
H36    H     0.06607   0.19679   0.45699   0.00000  Uiso   1.00
H37    H     0.11409   0.15266   0.11338   0.00000  Uiso   1.00
H38    H     0.21924   0.18068   0.38662   0.00000  Uiso   1.00
H39    H     0.30544   0.18622   0.10618   0.00000  Uiso   1.00
H40    H     0.02790   0.14711   0.39382   0.00000  Uiso   1.00
H41    H     0.33226   0.13676   0.47470   0.00000  Uiso   1.00
H42    H     0.00108   0.19657   0.02530   0.00000  Uiso   1.00
H43    H     0.18535   0.14523   0.08197   0.00000  Uiso   1.00
H44    H     0.14798   0.18811   0.41803   0.00000  Uiso   1.00
H45    H     0.25716   0.03768   0.25243   0.00000  Uiso   1.00
H46    H     0.07617   0.29565   0.24757   0.00000  Uiso   1.00
H47    H     0.25709   0.29644   0.25232   0.00000  Uiso   1.00
H48    H     0.07625   0.03690   0.24768   0.00000  Uiso   1.00
H49    H     0.19658   0.12090   0.30075   0.00000  Uiso   1.00
H50    H     0.13675   0.21243   0.19925   0.00000  Uiso   1.00
N51    N     0.11736   0.16668   0.24999   0.00000  Uiso   1.00
N52    N     0.21597   0.16666   0.25001   0.00000  Uiso   1.00
O53    O     0.03958   0.10655   0.25000   0.00000  Uiso   1.00
O54    O     0.29375   0.22678   0.25000   0.00000  Uiso   1.00
O55    O     0.29372   0.10654   0.25001   0.00000  Uiso   1.00
O56    O     0.03961   0.22679   0.25000   0.00000  Uiso   1.00
O57    O     0.01852   0.16668   0.31492   0.00000  Uiso   1.00
O58    O     0.31481   0.16666   0.18509   0.00000  Uiso   1.00
O59    O     0.27267   0.16667   0.31492   0.00000  Uiso   1.00
O60    O     0.06067   0.16667   0.18508   0.00000  Uiso   1.00
Cl61   Cl    0.09627   0.10713   0.31588   0.00000  Uiso   1.00
Cl62   Cl    0.23707   0.22621   0.18412   0.00000  Uiso   1.00
C63    C     0.33338   0.08739   0.25006   0.00000  Uiso   1.00
C64    C     0.66662   0.24594   0.24994   0.00000  Uiso   1.00
C65    C     0.52706   0.15112   0.04648   0.00000  Uiso   1.00
C66    C     0.47293   0.18222   0.45352   0.00000  Uiso   1.00
C67    C     0.57535   0.14600   0.02406   0.00000  Uiso   1.00
C68    C     0.42465   0.18733   0.47594   0.00000  Uiso   1.00
C69    C     0.62394   0.02151   0.25133   0.00000  Uiso   1.00
C70    C     0.37606   0.31183   0.24867   0.00000  Uiso   1.00
C71    C     0.62388   0.31226   0.25126   0.00000  Uiso   1.00
C72    C     0.37612   0.02107   0.24874   0.00000  Uiso   1.00
C73    C     0.66659   0.29058   0.24993   0.00000  Uiso   1.00
C74    C     0.33341   0.04275   0.25007   0.00000  Uiso   1.00
C75    C     0.51725   0.14126   0.27822   0.00000  Uiso   1.00
C76    C     0.48275   0.19207   0.22178   0.00000  Uiso   1.00
C77    C     0.46783   0.14115   0.27836   0.00000  Uiso   1.00
C78    C     0.53217   0.19218   0.22164   0.00000  Uiso   1.00
C79    C     0.63951   0.16642   0.33607   0.00000  Uiso   1.00
C80    C     0.36049   0.16691   0.16393   0.00000  Uiso   1.00
C81    C     0.62441   0.16414   0.38522   0.00000  Uiso   1.00
C82    C     0.37559   0.16920   0.11478   0.00000  Uiso   1.00
C83    C     0.64017   0.14672   0.45619   0.00000  Uiso   1.00
C84    C     0.35983   0.18662   0.04381   0.00000  Uiso   1.00
C85    C     0.65678   0.15260   0.41007   0.00000  Uiso   1.00
C86    C     0.34322   0.18073   0.08993   0.00000  Uiso   1.00
C87    C     0.57572   0.17105   0.40711   0.00000  Uiso   1.00
C88    C     0.42428   0.16228   0.09289   0.00000  Uiso   1.00
C89    C     0.55778   0.16503   0.45365   0.00000  Uiso   1.00
C90    C     0.44222   0.16831   0.04635   0.00000  Uiso   1.00
C91    C     0.59113   0.15266   0.47808   0.00000  Uiso   1.00
C92    C     0.40887   0.18067   0.02192   0.00000  Uiso   1.00
C93    C     0.50782   0.17026   0.47639   0.00000  Uiso   1.00
C94    C     0.49218   0.16308   0.02361   0.00000  Uiso   1.00
Cu95   Cu    0.38022   0.16667   0.25000   0.00000  Uiso   1.00
Cu96   Cu    0.61978   0.16666   0.25000   0.00000  Uiso   1.00
H97    H     0.60060   0.13655   0.04301   0.00000  Uiso   1.00
H98    H     0.39940   0.19679   0.45699   0.00000  Uiso   1.00
H99    H     0.44742   0.15266   0.11338   0.00000  Uiso   1.00
H100   H     0.55258   0.18068   0.38662   0.00000  Uiso   1.00
H101   H     0.63877   0.18622   0.10618   0.00000  Uiso   1.00
H102   H     0.36123   0.14711   0.39382   0.00000  Uiso   1.00
H103   H     0.66559   0.13676   0.47470   0.00000  Uiso   1.00
H104   H     0.33441   0.19657   0.02530   0.00000  Uiso   1.00
H105   H     0.51868   0.14523   0.08197   0.00000  Uiso   1.00
H106   H     0.48132   0.18811   0.41803   0.00000  Uiso   1.00
H107   H     0.59050   0.03768   0.25243   0.00000  Uiso   1.00
H108   H     0.40950   0.29565   0.24757   0.00000  Uiso   1.00
H109   H     0.59042   0.29644   0.25232   0.00000  Uiso   1.00
H110   H     0.40958   0.03690   0.24768   0.00000  Uiso   1.00
H111   H     0.52992   0.12090   0.30075   0.00000  Uiso   1.00
H112   H     0.47008   0.21243   0.19925   0.00000  Uiso   1.00
N113   N     0.45069   0.16668   0.24999   0.00000  Uiso   1.00
N114   N     0.54931   0.16666   0.25001   0.00000  Uiso   1.00
O115   O     0.37291   0.10655   0.25000   0.00000  Uiso   1.00
O116   O     0.62709   0.22678   0.25000   0.00000  Uiso   1.00
O117   O     0.62706   0.10654   0.25001   0.00000  Uiso   1.00
O118   O     0.37294   0.22679   0.25000   0.00000  Uiso   1.00
O119   O     0.35186   0.16668   0.31492   0.00000  Uiso   1.00
O120   O     0.64814   0.16666   0.18509   0.00000  Uiso   1.00
O121   O     0.60600   0.16667   0.31492   0.00000  Uiso   1.00
O122   O     0.39400   0.16667   0.18508   0.00000  Uiso   1.00
Cl123  Cl    0.42960   0.10713   0.31588   0.00000  Uiso   1.00
Cl124  Cl    0.57040   0.22621   0.18412   0.00000  Uiso   1.00
C125   C     0.66672   0.08739   0.25006   0.00000  Uiso   1.00
C126   C     0.99995   0.24594   0.24994   0.00000  Uiso   1.00
C127   C     0.86040   0.15112   0.04648   0.00000  Uiso   1.00
C128   C     0.80627   0.18222   0.45352   0.00000  Uiso   1.00
C129   C     0.90869   0.14600   0.02406   0.00000  Uiso   1.00
C130   C     0.75798   0.18733   0.47594   0.00000  Uiso   1.00
C131   C     0.95728   0.02151   0.25133   0.00000  Uiso   1.00
C132   C     0.70939   0.31183   0.24867   0.00000  Uiso   1.00
C133   C     0.95721   0.31226   0.25126   0.00000  Uiso   1.00
C134   C     0.70946   0.02107   0.24874   0.00000  Uiso   1.00
C135   C     0.99993   0.29058   0.24993   0.00000  Uiso   1.00
C136   C     0.66674   0.04275   0.25007   0.00000  Uiso   1.00
C137   C     0.85059   0.14126   0.27822   0.00000  Uiso   1.00
C138   C     0.81608   0.19207   0.22178   0.00000  Uiso   1.00
C139   C     0.80116   0.14115   0.27836   0.00000  Uiso   1.00
C140   C     0.86551   0.19218   0.22164   0.00000  Uiso   1.00
C141   C     0.97284   0.16642   0.33607   0.00000  Uiso   1.00
C142   C     0.69383   0.16691   0.16393   0.00000  Uiso   1.00
C143   C     0.95774   0.16414   0.38522   0.00000  Uiso   1.00
C144   C     0.70892   0.16920   0.11478   0.00000  Uiso   1.00
C145   C     0.97350   0.14672   0.45619   0.00000  Uiso   1.00
C146   C     0.69316   0.18662   0.04381   0.00000  Uiso   1.00
C147   C     0.99011   0.15260   0.41007   0.00000  Uiso   1.00
C148   C     0.67655   0.18073   0.08993   0.00000  Uiso   1.00
C149   C     0.90906   0.17105   0.40711   0.00000  Uiso   1.00
C150   C     0.75761   0.16228   0.09289   0.00000  Uiso   1.00
C151   C     0.89111   0.16503   0.45365   0.00000  Uiso   1.00
C152   C     0.77556   0.16831   0.04635   0.00000  Uiso   1.00
C153   C     0.92446   0.15266   0.47808   0.00000  Uiso   1.00
C154   C     0.74220   0.18067   0.02192   0.00000  Uiso   1.00
C155   C     0.84115   0.17026   0.47639   0.00000  Uiso   1.00
C156   C     0.82552   0.16308   0.02361   0.00000  Uiso   1.00
Cu157  Cu    0.71355   0.16667   0.25000   0.00000  Uiso   1.00
Cu158  Cu    0.95311   0.16666   0.25000   0.00000  Uiso   1.00
H159   H     0.93393   0.13655   0.04301   0.00000  Uiso   1.00
H160   H     0.73274   0.19679   0.45699   0.00000  Uiso   1.00
H161   H     0.78076   0.15266   0.11338   0.00000  Uiso   1.00
H162   H     0.88591   0.18068   0.38662   0.00000  Uiso   1.00
H163   H     0.97210   0.18622   0.10618   0.00000  Uiso   1.00
H164   H     0.69456   0.14711   0.39382   0.00000  Uiso   1.00
H165   H     0.99892   0.13676   0.47470   0.00000  Uiso   1.00
H166   H     0.66774   0.19657   0.02530   0.00000  Uiso   1.00
H167   H     0.85202   0.14523   0.08197   0.00000  Uiso   1.00
H168   H     0.81465   0.18811   0.41803   0.00000  Uiso   1.00
H169   H     0.92383   0.03768   0.25243   0.00000  Uiso   1.00
H170   H     0.74284   0.29565   0.24757   0.00000  Uiso   1.00
H171   H     0.92375   0.29644   0.25232   0.00000  Uiso   1.00
H172   H     0.74291   0.03690   0.24768   0.00000  Uiso   1.00
H173   H     0.86325   0.12090   0.30075   0.00000  Uiso   1.00
H174   H     0.80341   0.21243   0.19925   0.00000  Uiso   1.00
N175   N     0.78403   0.16668   0.24999   0.00000  Uiso   1.00
N176   N     0.88264   0.16666   0.25001   0.00000  Uiso   1.00
O177   O     0.70625   0.10655   0.25000   0.00000  Uiso   1.00
O178   O     0.96042   0.22678   0.25000   0.00000  Uiso   1.00
O179   O     0.96039   0.10654   0.25001   0.00000  Uiso   1.00
O180   O     0.70628   0.22679   0.25000   0.00000  Uiso   1.00
O181   O     0.68519   0.16668   0.31492   0.00000  Uiso   1.00
O182   O     0.98148   0.16666   0.18509   0.00000  Uiso   1.00
O183   O     0.93933   0.16667   0.31492   0.00000  Uiso   1.00
O184   O     0.72733   0.16667   0.18508   0.00000  Uiso   1.00
Cl185  Cl    0.76293   0.10713   0.31588   0.00000  Uiso   1.00
Cl186  Cl    0.90373   0.22621   0.18412   0.00000  Uiso   1.00
C187   C     0.00005   0.42072   0.25006   0.00000  Uiso   1.00
C188   C     0.33328   0.57928   0.24994   0.00000  Uiso   1.00
C189   C     0.19373   0.48445   0.04648   0.00000  Uiso   1.00
C190   C     0.13960   0.51555   0.45352   0.00000  Uiso   1.00
C191   C     0.24202   0.47933   0.02406   0.00000  Uiso   1.00
C192   C     0.09131   0.52067   0.47594   0.00000  Uiso   1.00
C193   C     0.29061   0.35484   0.25133   0.00000  Uiso   1.00
C194   C     0.04272   0.64516   0.24867   0.00000  Uiso   1.00
C195   C     0.29054   0.64560   0.25126   0.00000  Uiso   1.00
C196   C     0.04279   0.35440   0.24874   0.00000  Uiso   1.00
C197   C     0.33326   0.62391   0.24993   0.00000  Uiso   1.00
C198   C     0.00007   0.37609   0.25007   0.00000  Uiso   1.00
C199   C     0.18392   0.47459   0.27822   0.00000  Uiso   1.00
C200   C     0.14941   0.52541   0.22178   0.00000  Uiso   1.00
C201   C     0.13449   0.47448   0.27836   0.00000  Uiso   1.00
C202   C     0.19884   0.52552   0.22164   0.00000  Uiso   1.00
C203   C     0.30617   0.49975   0.33607   0.00000  Uiso   1.00
C204   C     0.02716   0.50025   0.16393   0.00000  Uiso   1.00
C205   C     0.29108   0.49747   0.38522   0.00000  Uiso   1.00
C206   C     0.04226   0.50253   0.11478   0.00000  Uiso   1.00
C207   C     0.30684   0.48005   0.45619   0.00000  Uiso   1.00
C208   C     0.02649   0.51995   0.04381   0.00000  Uiso   1.00
C209   C     0.32345   0.48594   0.41007   0.00000  Uiso   1.00
C210   C     0.00989   0.51406   0.08993   0.00000  Uiso   1.00
C211   C     0.24239   0.50438   0.40711   0.00000  Uiso   1.00
C212   C     0.09094   0.49562   0.09289   0.00000  Uiso   1.00
C213   C     0.22444   0.49836   0.45365   0.00000  Uiso   1.00
C214   C     0.10889   0.50164   0.04635   0.00000  Uiso   1.00
C215   C     0.25780   0.48600   0.47808   0.00000  Uiso   1.00
C216   C     0.07554   0.51400   0.02192   0.00000  Uiso   1.00
C217   C     0.17448   0.50359   0.47639   0.00000  Uiso   1.00
C218   C     0.15885   0.49641   0.02361   0.00000  Uiso   1.00
Cu219  Cu    0.04689   0.50001   0.25000   0.00000  Uiso   1.00
Cu220  Cu    0.28645   0.49999   0.25000   0.00000  Uiso   1.00
H221   H     0.26726   0.46988   0.04301   0.00000  Uiso   1.00
H222   H     0.06607   0.53012   0.45699   0.00000  Uiso   1.00
H223   H     0.11409   0.48599   0.11338   0.00000  Uiso   1.00
H224   H     0.21924   0.51401   0.38662   0.00000  Uiso   1.00
H225   H     0.30544   0.51956   0.10618   0.00000  Uiso   1.00
H226   H     0.02790   0.48044   0.39382   0.00000  Uiso   1.00
H227   H     0.33226   0.47010   0.47470   0.00000  Uiso   1.00
H228   H     0.00108   0.52990   0.02530   0.00000  Uiso   1.00
H229   H     0.18535   0.47856   0.08197   0.00000  Uiso   1.00
H230   H     0.14798   0.52144   0.41803   0.00000  Uiso   1.00
H231   H     0.25716   0.37102   0.25243   0.00000  Uiso   1.00
H232   H     0.07617   0.62898   0.24757   0.00000  Uiso   1.00
H233   H     0.25709   0.62977   0.25232   0.00000  Uiso   1.00
H234   H     0.07625   0.37023   0.24768   0.00000  Uiso   1.00
H235   H     0.19658   0.45424   0.30075   0.00000  Uiso   1.00
H236   H     0.13675   0.54576   0.19925   0.00000  Uiso   1.00
N237   N     0.11736   0.50001   0.24999   0.00000  Uiso   1.00
N238   N     0.21597   0.49999   0.25001   0.00000  Uiso   1.00
O239   O     0.03958   0.43989   0.25000   0.00000  Uiso   1.00
O240   O     0.29375   0.56011   0.25000   0.00000  Uiso   1.00
O241   O     0.29372   0.43988   0.25001   0.00000  Uiso   1.00
O242   O     0.03961   0.56012   0.25000   0.00000  Uiso   1.00
O243   O     0.01852   0.50001   0.31492   0.00000  Uiso   1.00
O244   O     0.31481   0.49999   0.18509   0.00000  Uiso   1.00
O245   O     0.27267   0.50000   0.31492   0.00000  Uiso   1.00
O246   O     0.06067   0.50000   0.18508   0.00000  Uiso   1.00
Cl247  Cl    0.09627   0.44046   0.31588   0.00000  Uiso   1.00
Cl248  Cl    0.23707   0.55954   0.18412   0.00000  Uiso   1.00
C249   C     0.33338   0.42072   0.25006   0.00000  Uiso   1.00
C250   C     0.66662   0.57928   0.24994   0.00000  Uiso   1.00
C251   C     0.52706   0.48445   0.04648   0.00000  Uiso   1.00
C252   C     0.47293   0.51555   0.45352   0.00000  Uiso   1.00
C253   C     0.57535   0.47933   0.02406   0.00000  Uiso   1.00
C254   C     0.42465   0.52067   0.47594   0.00000  Uiso   1.00
C255   C     0.62394   0.35484   0.25133   0.00000  Uiso   1.00
C256   C     0.37606   0.64516   0.24867   0.00000  Uiso   1.00
C257   C     0.62388   0.64560   0.25126   0.00000  Uiso   1.00
C258   C     0.37612   0.35440   0.24874   0.00000  Uiso   1.00
C259   C     0.66659   0.62391   0.24993   0.00000  Uiso   1.00
C260   C     0.33341   0.37609   0.25007   0.00000  Uiso   1.00
C261   C     0.51725   0.47459   0.27822   0.00000  Uiso   1.00
C262   C     0.48275   0.52541   0.22178   0.00000  Uiso   1.00
C263   C     0.46783   0.47448   0.27836   0.00000  Uiso   1.00
C264   C     0.53217   0.52552   0.22164   0.00000  Uiso   1.00
C265   C     0.63951   0.49975   0.33607   0.00000  Uiso   1.00
C266   C     0.36049   0.50025   0.16393   0.00000  Uiso   1.00
C267   C     0.62441   0.49747   0.38522   0.00000  Uiso   1.00
C268   C     0.37559   0.50253   0.11478   0.00000  Uiso   1.00
C269   C     0.64017   0.48005   0.45619   0.00000  Uiso   1.00
C270   C     0.35983   0.51995   0.04381   0.00000  Uiso   1.00
C271   C     0.65678   0.48594   0.41007   0.00000  Uiso   1.00
C272   C     0.34322   0.51406   0.08993   0.00000  Uiso   1.00
C273   C     0.57572   0.50438   0.40711   0.00000  Uiso   1.00
C274   C     0.42428   0.49562   0.09289   0.00000  Uiso   1.00
C275   C     0.55778   0.49836   0.45365   0.00000  Uiso   1.00
C276   C     0.44222   0.50164   0.04635   0.00000  Uiso   1.00
C277   C     0.59113   0.48600   0.47808   0.00000  Uiso   1.00
C278   C     0.40887   0.51400   0.02192   0.00000  Uiso   1.00
C279   C     0.50782   0.50359   0.47639   0.00000  Uiso   1.00
C280   C     0.49218   0.49641   0.02361   0.00000  Uiso   1.00
Cu281  Cu    0.38022   0.50001   0.25000   0.00000  Uiso   1.00
Cu282  Cu    0.61978   0.49999   0.25000   0.00000  Uiso   1.00
H283   H     0.60060   0.46988   0.04301   0.00000  Uiso   1.00
H284   H     0.39940   0.53012   0.45699   0.00000  Uiso   1.00
H285   H     0.44742   0.48599   0.11338   0.00000  Uiso   1.00
H286   H     0.55258   0.51401   0.38662   0.00000  Uiso   1.00
H287   H     0.63877   0.51956   0.10618   0.00000  Uiso   1.00
H288   H     0.36123   0.48044   0.39382   0.00000  Uiso   1.00
H289   H     0.66559   0.47010   0.47470   0.00000  Uiso   1.00
H290   H     0.33441   0.52990   0.02530   0.00000  Uiso   1.00
H291   H     0.51868   0.47856   0.08197   0.00000  Uiso   1.00
H292   H     0.48132   0.52144   0.41803   0.00000  Uiso   1.00
H293   H     0.59050   0.37102   0.25243   0.00000  Uiso   1.00
H294   H     0.40950   0.62898   0.24757   0.00000  Uiso   1.00
H295   H     0.59042   0.62977   0.25232   0.00000  Uiso   1.00
H296   H     0.40958   0.37023   0.24768   0.00000  Uiso   1.00
H297   H     0.52992   0.45424   0.30075   0.00000  Uiso   1.00
H298   H     0.47008   0.54576   0.19925   0.00000  Uiso   1.00
N299   N     0.45069   0.50001   0.24999   0.00000  Uiso   1.00
N300   N     0.54931   0.49999   0.25001   0.00000  Uiso   1.00
O301   O     0.37291   0.43989   0.25000   0.00000  Uiso   1.00
O302   O     0.62709   0.56011   0.25000   0.00000  Uiso   1.00
O303   O     0.62706   0.43988   0.25001   0.00000  Uiso   1.00
O304   O     0.37294   0.56012   0.25000   0.00000  Uiso   1.00
O305   O     0.35186   0.50001   0.31492   0.00000  Uiso   1.00
O306   O     0.64814   0.49999   0.18509   0.00000  Uiso   1.00
O307   O     0.60600   0.50000   0.31492   0.00000  Uiso   1.00
O308   O     0.39400   0.50000   0.18508   0.00000  Uiso   1.00
Cl309  Cl    0.42960   0.44046   0.31588   0.00000  Uiso   1.00
Cl310  Cl    0.57040   0.55954   0.18412   0.00000  Uiso   1.00
C311   C     0.66672   0.42072   0.25006   0.00000  Uiso   1.00
C312   C     0.99995   0.57928   0.24994   0.00000  Uiso   1.00
C313   C     0.86040   0.48445   0.04648   0.00000  Uiso   1.00
C314   C     0.80627   0.51555   0.45352   0.00000  Uiso   1.00
C315   C     0.90869   0.47933   0.02406   0.00000  Uiso   1.00
C316   C     0.75798   0.52067   0.47594   0.00000  Uiso   1.00
C317   C     0.95728   0.35484   0.25133   0.00000  Uiso   1.00
C318   C     0.70939   0.64516   0.24867   0.00000  Uiso   1.00
C319   C     0.95721   0.64560   0.25126   0.00000  Uiso   1.00
C320   C     0.70946   0.35440   0.24874   0.00000  Uiso   1.00
C321   C     0.99993   0.62391   0.24993   0.00000  Uiso   1.00
C322   C     0.66674   0.37609   0.25007   0.00000  Uiso   1.00
C323   C     0.85059   0.47459   0.27822   0.00000  Uiso   1.00
C324   C     0.81608   0.52541   0.22178   0.00000  Uiso   1.00
C325   C     0.80116   0.47448   0.27836   0.00000  Uiso   1.00
C326   C     0.86551   0.52552   0.22164   0.00000  Uiso   1.00
C327   C     0.97284   0.49975   0.33607   0.00000  Uiso   1.00
C328   C     0.69383   0.50025   0.16393   0.00000  Uiso   1.00
C329   C     0.95774   0.49747   0.38522   0.00000  Uiso   1.00
C330   C     0.70892   0.50253   0.11478   0.00000  Uiso   1.00
C331   C     0.97350   0.48005   0.45619   0.00000  Uiso   1.00
C332   C     0.69316   0.51995   0.04381   0.00000  Uiso   1.00
C333   C     0.99011   0.48594   0.41007   0.00000  Uiso   1.00
C334   C     0.67655   0.51406   0.08993   0.00000  Uiso   1.00
C335   C     0.90906   0.50438   0.40711   0.00000  Uiso   1.00
C336   C     0.75761   0.49562   0.09289   0.00000  Uiso   1.00
C337   C     0.89111   0.49836   0.45365   0.00000  Uiso   1.00
C338   C     0.77556   0.50164   0.04635   0.00000  Uiso   1.00
C339   C     0.92446   0.48600   0.47808   0.00000  Uiso   1.00
C340   C     0.74220   0.51400   0.02192   0.00000  Uiso   1.00
C341   C     0.84115   0.50359   0.47639   0.00000  Uiso   1.00
C342   C     0.82552   0.49641   0.02361   0.00000  Uiso   1.00
Cu343  Cu    0.71355   0.50001   0.25000   0.00000  Uiso   1.00
Cu344  Cu    0.95311   0.49999   0.25000   0.00000  Uiso   1.00
H345   H     0.93393   0.46988   0.04301   0.00000  Uiso   1.00
H346   H     0.73274   0.53012   0.45699   0.00000  Uiso   1.00
H347   H     0.78076   0.48599   0.11338   0.00000  Uiso   1.00
H348   H     0.88591   0.51401   0.38662   0.00000  Uiso   1.00
H349   H     0.97210   0.51956   0.10618   0.00000  Uiso   1.00
H350   H     0.69456   0.48044   0.39382   0.00000  Uiso   1.00
H351   H     0.99892   0.47010   0.47470   0.00000  Uiso   1.00
H352   H     0.66774   0.52990   0.02530   0.00000  Uiso   1.00
H353   H     0.85202   0.47856   0.08197   0.00000  Uiso   1.00
H354   H     0.81465   0.52144   0.41803   0.00000  Uiso   1.00
H355   H     0.92383   0.37102   0.25243   0.00000  Uiso   1.00
H356   H     0.74284   0.62898   0.24757   0.00000  Uiso   1.00
H357   H     0.92375   0.62977   0.25232   0.00000  Uiso   1.00
H358   H     0.74291   0.37023   0.24768   0.00000  Uiso   1.00
H359   H     0.86325   0.45424   0.30075   0.00000  Uiso   1.00
H360   H     0.80341   0.54576   0.19925   0.00000  Uiso   1.00
N361   N     0.78403   0.50001   0.24999   0.00000  Uiso   1.00
N362   N     0.88264   0.49999   0.25001   0.00000  Uiso   1.00
O363   O     0.70625   0.43989   0.25000   0.00000  Uiso   1.00
O364   O     0.96042   0.56011   0.25000   0.00000  Uiso   1.00
O365   O     0.96039   0.43988   0.25001   0.00000  Uiso   1.00
O366   O     0.70628   0.56012   0.25000   0.00000  Uiso   1.00
O367   O     0.68519   0.50001   0.31492   0.00000  Uiso   1.00
O368   O     0.98148   0.49999   0.18509   0.00000  Uiso   1.00
O369   O     0.93933   0.50000   0.31492   0.00000  Uiso   1.00
O370   O     0.72733   0.50000   0.18508   0.00000  Uiso   1.00
Cl371  Cl    0.76293   0.44046   0.31588   0.00000  Uiso   1.00
Cl372  Cl    0.90373   0.55954   0.18412   0.00000  Uiso   1.00
C373   C     0.00005   0.75406   0.25006   0.00000  Uiso   1.00
C374   C     0.33328   0.91261   0.24994   0.00000  Uiso   1.00
C375   C     0.19373   0.81778   0.04648   0.00000  Uiso   1.00
C376   C     0.13960   0.84889   0.45352   0.00000  Uiso   1.00
C377   C     0.24202   0.81267   0.02406   0.00000  Uiso   1.00
C378   C     0.09131   0.85400   0.47594   0.00000  Uiso   1.00
C379   C     0.29061   0.68817   0.25133   0.00000  Uiso   1.00
C380   C     0.04272   0.97849   0.24867   0.00000  Uiso   1.00
C381   C     0.29054   0.97893   0.25126   0.00000  Uiso   1.00
C382   C     0.04279   0.68774   0.24874   0.00000  Uiso   1.00
C383   C     0.33326   0.95725   0.24993   0.00000  Uiso   1.00
C384   C     0.00007   0.70942   0.25007   0.00000  Uiso   1.00
C385   C     0.18392   0.80793   0.27822   0.00000  Uiso   1.00
C386   C     0.14941   0.85874   0.22178   0.00000  Uiso   1.00
C387   C     0.13449   0.80782   0.27836   0.00000  Uiso   1.00
C388   C     0.19884   0.85885   0.22164   0.00000  Uiso   1.00
C389   C     0.30617   0.83309   0.33607   0.00000  Uiso   1.00
C390   C     0.02716   0.83358   0.16393   0.00000  Uiso   1.00
C391   C     0.29108   0.83080   0.38522   0.00000  Uiso   1.00
C392   C     0.04226   0.83586   0.11478   0.00000  Uiso   1.00
C393   C     0.30684   0.81338   0.45619   0.00000  Uiso   1.00
C394   C     0.02649   0.85328   0.04381   0.00000  Uiso   1.00
C395   C     0.32345   0.81927   0.41007   0.00000  Uiso   1.00
C396   C     0.00989   0.84740   0.08993   0.00000  Uiso   1.00
C397   C     0.24239   0.83772   0.40711   0.00000  Uiso   1.00
C398   C     0.09094   0.82895   0.09289   0.00000  Uiso   1.00
C399   C     0.22444   0.83169   0.45365   0.00000  Uiso   1.00
C400   C     0.10889   0.83497   0.04635   0.00000  Uiso   1.00
C401   C     0.25780   0.81933   0.47808   0.00000  Uiso   1.00
C402   C     0.07554   0.84734   0.02192   0.00000  Uiso   1.00
C403   C     0.17448   0.83692   0.47639   0.00000  Uiso   1.00
C404   C     0.15885   0.82974   0.02361   0.00000  Uiso   1.00
Cu405  Cu    0.04689   0.83334   0.25000   0.00000  Uiso   1.00
Cu406  Cu    0.28645   0.83333   0.25000   0.00000  Uiso   1.00
H407   H     0.26726   0.80321   0.04301   0.00000  Uiso   1.00
H408   H     0.06607   0.86345   0.45699   0.00000  Uiso   1.00
H409   H     0.11409   0.81932   0.11338   0.00000  Uiso   1.00
H410   H     0.21924   0.84734   0.38662   0.00000  Uiso   1.00
H411   H     0.30544   0.85289   0.10618   0.00000  Uiso   1.00
H412   H     0.02790   0.81378   0.39382   0.00000  Uiso   1.00
H413   H     0.33226   0.80343   0.47470   0.00000  Uiso   1.00
H414   H     0.00108   0.86324   0.02530   0.00000  Uiso   1.00
H415   H     0.18535   0.81189   0.08197   0.00000  Uiso   1.00
H416   H     0.14798   0.85477   0.41803   0.00000  Uiso   1.00
H417   H     0.25716   0.70435   0.25243   0.00000  Uiso   1.00
H418   H     0.07617   0.96232   0.24757   0.00000  Uiso   1.00
H419   H     0.25709   0.96310   0.25232   0.00000  Uiso   1.00
H420   H     0.07625   0.70356   0.24768   0.00000  Uiso   1.00
H421   H     0.19658   0.78757   0.30075   0.00000  Uiso   1.00
H422   H     0.13675   0.87910   0.19925   0.00000  Uiso   1.00
N423   N     0.11736   0.83334   0.24999   0.00000  Uiso   1.00
N424   N     0.21597   0.83332   0.25001   0.00000  Uiso   1.00
O425   O     0.03958   0.77322   0.25000   0.00000  Uiso   1.00
O426   O     0.29375   0.89345   0.25000   0.00000  Uiso   1.00
O427   O     0.29372   0.77321   0.25001   0.00000  Uiso   1.00
O428   O     0.03961   0.89346   0.25000   0.00000  Uiso   1.00
O429   O     0.01852   0.83334   0.31492   0.00000  Uiso   1.00
O430   O     0.31481   0.83332   0.18509   0.00000  Uiso   1.00
O431   O     0.27267   0.83333   0.31492   0.00000  Uiso   1.00
O432   O     0.06067   0.83333   0.18508   0.00000  Uiso   1.00
Cl433  Cl    0.09627   0.77379   0.31588   0.00000  Uiso   1.00
Cl434  Cl    0.23707   0.89287   0.18412   0.00000  Uiso   1.00
C435   C     0.33338   0.75406   0.25006   0.00000  Uiso   1.00
C436   C     0.66662   0.91261   0.24994   0.00000  Uiso   1.00
C437   C     0.52706   0.81778   0.04648   0.00000  Uiso   1.00
C438   C     0.47293   0.84889   0.45352   0.00000  Uiso   1.00
C439   C     0.57535   0.81267   0.02406   0.00000  Uiso   1.00
C440   C     0.42465   0.85400   0.47594   0.00000  Uiso   1.00
C441   C     0.62394   0.68817   0.25133   0.00000  Uiso   1.00
C442   C     0.37606   0.97849   0.24867   0.00000  Uiso   1.00
C443   C     0.62388   0.97893   0.25126   0.00000  Uiso   1.00
C444   C     0.37612   0.68774   0.24874   0.00000  Uiso   1.00
C445   C     0.66659   0.95725   0.24993   0.00000  Uiso   1.00
C446   C     0.33341   0.70942   0.25007   0.00000  Uiso   1.00
C447   C     0.51725   0.80793   0.27822   0.00000  Uiso   1.00
C448   C     0.48275   0.85874   0.22178   0.00000  Uiso   1.00
C449   C     0.46783   0.80782   0.27836   0.00000  Uiso   1.00
C450   C     0.53217   0.85885   0.22164   0.00000  Uiso   1.00
C451   C     0.63951   0.83309   0.33607   0.00000  Uiso   1.00
C452   C     0.36049   0.83358   0.16393   0.00000  Uiso   1.00
C453   C     0.62441   0.83080   0.38522   0.00000  Uiso   1.00
C454   C     0.37559   0.83586   0.11478   0.00000  Uiso   1.00
C455   C     0.64017   0.81338   0.45619   0.00000  Uiso   1.00
C456   C     0.35983   0.85328   0.04381   0.00000  Uiso   1.00
C457   C     0.65678   0.81927   0.41007   0.00000  Uiso   1.00
C458   C     0.34322   0.84740   0.08993   0.00000  Uiso   1.00
C459   C     0.57572   0.83772   0.40711   0.00000  Uiso   1.00
C460   C     0.42428   0.82895   0.09289   0.00000  Uiso   1.00
C461   C     0.55778   0.83169   0.45365   0.00000  Uiso   1.00
C462   C     0.44222   0.83497   0.04635   0.00000  Uiso   1.00
C463   C     0.59113   0.81933   0.47808   0.00000  Uiso   1.00
C464   C     0.40887   0.84734   0.02192   0.00000  Uiso   1.00
C465   C     0.50782   0.83692   0.47639   0.00000  Uiso   1.00
C466   C     0.49218   0.82974   0.02361   0.00000  Uiso   1.00
Cu467  Cu    0.38022   0.83334   0.25000   0.00000  Uiso   1.00
Cu468  Cu    0.61978   0.83333   0.25000   0.00000  Uiso   1.00
H469   H     0.60060   0.80321   0.04301   0.00000  Uiso   1.00
H470   H     0.39940   0.86345   0.45699   0.00000  Uiso   1.00
H471   H     0.44742   0.81932   0.11338   0.00000  Uiso   1.00
H472   H     0.55258   0.84734   0.38662   0.00000  Uiso   1.00
H473   H     0.63877   0.85289   0.10618   0.00000  Uiso   1.00
H474   H     0.36123   0.81378   0.39382   0.00000  Uiso   1.00
H475   H     0.66559   0.80343   0.47470   0.00000  Uiso   1.00
H476   H     0.33441   0.86324   0.02530   0.00000  Uiso   1.00
H477   H     0.51868   0.81189   0.08197   0.00000  Uiso   1.00
H478   H     0.48132   0.85477   0.41803   0.00000  Uiso   1.00
H479   H     0.59050   0.70435   0.25243   0.00000  Uiso   1.00
H480   H     0.40950   0.96232   0.24757   0.00000  Uiso   1.00
H481   H     0.59042   0.96310   0.25232   0.00000  Uiso   1.00
H482   H     0.40958   0.70356   0.24768   0.00000  Uiso   1.00
H483   H     0.52992   0.78757   0.30075   0.00000  Uiso   1.00
H484   H     0.47008   0.87910   0.19925   0.00000  Uiso   1.00
N485   N     0.45069   0.83334   0.24999   0.00000  Uiso   1.00
N486   N     0.54931   0.83332   0.25001   0.00000  Uiso   1.00
O487   O     0.37291   0.77322   0.25000   0.00000  Uiso   1.00
O488   O     0.62709   0.89345   0.25000   0.00000  Uiso   1.00
O489   O     0.62706   0.77321   0.25001   0.00000  Uiso   1.00
O490   O     0.37294   0.89346   0.25000   0.00000  Uiso   1.00
O491   O     0.35186   0.83334   0.31492   0.00000  Uiso   1.00
O492   O     0.64814   0.83332   0.18509   0.00000  Uiso   1.00
O493   O     0.60600   0.83333   0.31492   0.00000  Uiso   1.00
O494   O     0.39400   0.83333   0.18508   0.00000  Uiso   1.00
Cl495  Cl    0.42960   0.77379   0.31588   0.00000  Uiso   1.00
Cl496  Cl    0.57040   0.89287   0.18412   0.00000  Uiso   1.00
C497   C     0.66672   0.75406   0.25006   0.00000  Uiso   1.00
C498   C     0.99995   0.91261   0.24994   0.00000  Uiso   1.00
C499   C     0.86040   0.81778   0.04648   0.00000  Uiso   1.00
C500   C     0.80627   0.84889   0.45352   0.00000  Uiso   1.00
C501   C     0.90869   0.81267   0.02406   0.00000  Uiso   1.00
C502   C     0.75798   0.85400   0.47594   0.00000  Uiso   1.00
C503   C     0.95728   0.68817   0.25133   0.00000  Uiso   1.00
C504   C     0.70939   0.97849   0.24867   0.00000  Uiso   1.00
C505   C     0.95721   0.97893   0.25126   0.00000  Uiso   1.00
C506   C     0.70946   0.68774   0.24874   0.00000  Uiso   1.00
C507   C     0.99993   0.95725   0.24993   0.00000  Uiso   1.00
C508   C     0.66674   0.70942   0.25007   0.00000  Uiso   1.00
C509   C     0.85059   0.80793   0.27822   0.00000  Uiso   1.00
C510   C     0.81608   0.85874   0.22178   0.00000  Uiso   1.00
C511   C     0.80116   0.80782   0.27836   0.00000  Uiso   1.00
C512   C     0.86551   0.85885   0.22164   0.00000  Uiso   1.00
C513   C     0.97284   0.83309   0.33607   0.00000  Uiso   1.00
C514   C     0.69383   0.83358   0.16393   0.00000  Uiso   1.00
C515   C     0.95774   0.83080   0.38522   0.00000  Uiso   1.00
C516   C     0.70892   0.83586   0.11478   0.00000  Uiso   1.00
C517   C     0.97350   0.81338   0.45619   0.00000  Uiso   1.00
C518   C     0.69316   0.85328   0.04381   0.00000  Uiso   1.00
C519   C     0.99011   0.81927   0.41007   0.00000  Uiso   1.00
C520   C     0.67655   0.84740   0.08993   0.00000  Uiso   1.00
C521   C     0.90906   0.83772   0.40711   0.00000  Uiso   1.00
C522   C     0.75761   0.82895   0.09289   0.00000  Uiso   1.00
C523   C     0.89111   0.83169   0.45365   0.00000  Uiso   1.00
C524   C     0.77556   0.83497   0.04635   0.00000  Uiso   1.00
C525   C     0.92446   0.81933   0.47808   0.00000  Uiso   1.00
C526   C     0.74220   0.84734   0.02192   0.00000  Uiso   1.00
C527   C     0.84115   0.83692   0.47639   0.00000  Uiso   1.00
C528   C     0.82552   0.82974   0.02361   0.00000  Uiso   1.00
Cu529  Cu    0.71355   0.83334   0.25000   0.00000  Uiso   1.00
Cu530  Cu    0.95311   0.83333   0.25000   0.00000  Uiso   1.00
H531   H     0.93393   0.80321   0.04301   0.00000  Uiso   1.00
H532   H     0.73274   0.86345   0.45699   0.00000  Uiso   1.00
H533   H     0.78076   0.81932   0.11338   0.00000  Uiso   1.00
H534   H     0.88591   0.84734   0.38662   0.00000  Uiso   1.00
H535   H     0.97210   0.85289   0.10618   0.00000  Uiso   1.00
H536   H     0.69456   0.81378   0.39382   0.00000  Uiso   1.00
H537   H     0.99892   0.80343   0.47470   0.00000  Uiso   1.00
H538   H     0.66774   0.86324   0.02530   0.00000  Uiso   1.00
H539   H     0.85202   0.81189   0.08197   0.00000  Uiso   1.00
H540   H     0.81465   0.85477   0.41803   0.00000  Uiso   1.00
H541   H     0.92383   0.70435   0.25243   0.00000  Uiso   1.00
H542   H     0.74284   0.96232   0.24757   0.00000  Uiso   1.00
H543   H     0.92375   0.96310   0.25232   0.00000  Uiso   1.00
H544   H     0.74291   0.70356   0.24768   0.00000  Uiso   1.00
H545   H     0.86325   0.78757   0.30075   0.00000  Uiso   1.00
H546   H     0.80341   0.87910   0.19925   0.00000  Uiso   1.00
N547   N     0.78403   0.83334   0.24999   0.00000  Uiso   1.00
N548   N     0.88264   0.83332   0.25001   0.00000  Uiso   1.00
O549   O     0.70625   0.77322   0.25000   0.00000  Uiso   1.00
O550   O     0.96042   0.89345   0.25000   0.00000  Uiso   1.00
O551   O     0.96039   0.77321   0.25001   0.00000  Uiso   1.00
O552   O     0.70628   0.89346   0.25000   0.00000  Uiso   1.00
O553   O     0.68519   0.83334   0.31492   0.00000  Uiso   1.00
O554   O     0.98148   0.83332   0.18509   0.00000  Uiso   1.00
O555   O     0.93933   0.83333   0.31492   0.00000  Uiso   1.00
O556   O     0.72733   0.83333   0.18508   0.00000  Uiso   1.00
Cl557  Cl    0.76293   0.77379   0.31588   0.00000  Uiso   1.00
Cl558  Cl    0.90373   0.89287   0.18412   0.00000  Uiso   1.00
C559   C     0.00005   0.08739   0.75006   0.00000  Uiso   1.00
C560   C     0.33328   0.24594   0.74994   0.00000  Uiso   1.00
C561   C     0.19373   0.15112   0.54648   0.00000  Uiso   1.00
C562   C     0.13960   0.18222   0.95352   0.00000  Uiso   1.00
C563   C     0.24202   0.14600   0.52406   0.00000  Uiso   1.00
C564   C     0.09131   0.18733   0.97594   0.00000  Uiso   1.00
C565   C     0.29061   0.02151   0.75133   0.00000  Uiso   1.00
C566   C     0.04272   0.31183   0.74867   0.00000  Uiso   1.00
C567   C     0.29054   0.31226   0.75126   0.00000  Uiso   1.00
C568   C     0.04279   0.02107   0.74874   0.00000  Uiso   1.00
C569   C     0.33326   0.29058   0.74993   0.00000  Uiso   1.00
C570   C     0.00007   0.04275   0.75007   0.00000  Uiso   1.00
C571   C     0.18392   0.14126   0.77822   0.00000  Uiso   1.00
C572   C     0.14941   0.19207   0.72178   0.00000  Uiso   1.00
C573   C     0.13449   0.14115   0.77836   0.00000  Uiso   1.00
C574   C     0.19884   0.19218   0.72164   0.00000  Uiso   1.00
C575   C     0.30617   0.16642   0.83607   0.00000  Uiso   1.00
C576   C     0.02716   0.16691   0.66393   0.00000  Uiso   1.00
C577   C     0.29108   0.16414   0.88522   0.00000  Uiso   1.00
C578   C     0.04226   0.16920   0.61478   0.00000  Uiso   1.00
C579   C     0.30684   0.14672   0.95619   0.00000  Uiso   1.00
C580   C     0.02649   0.18662   0.54381   0.00000  Uiso   1.00
C581   C     0.32345   0.15260   0.91007   0.00000  Uiso   1.00
C582   C     0.00989   0.18073   0.58993   0.00000  Uiso   1.00
C583   C     0.24239   0.17105   0.90711   0.00000  Uiso   1.00
C584   C     0.09094   0.16228   0.59289   0.00000  Uiso   1.00
C585   C     0.22444   0.16503   0.95365   0.00000  Uiso   1.00
C586   C     0.10889   0.16831   0.54635   0.00000  Uiso   1.00
C587   C     0.25780   0.15266   0.97808   0.00000  Uiso   1.00
C588   C     0.07554   0.18067   0.52192   0.00000  Uiso   1.00
C589   C     0.17448   0.17026   0.97639   0.00000  Uiso   1.00
C590   C     0.15885   0.16308   0.52361   0.00000  Uiso   1.00
Cu591  Cu    0.04689   0.16667   0.75000   0.00000  Uiso   1.00
Cu592  Cu    0.28645   0.16666   0.75000   0.00000  Uiso   1.00
H593   H     0.26726   0.13655   0.54301   0.00000  Uiso   1.00
H594   H     0.06607   0.19679   0.95699   0.00000  Uiso   1.00
H595   H     0.11409   0.15266   0.61338   0.00000  Uiso   1.00
H596   H     0.21924   0.18068   0.88662   0.00000  Uiso   1.00
H597   H     0.30544   0.18622   0.60618   0.00000  Uiso   1.00
H598   H     0.02790   0.14711   0.89382   0.00000  Uiso   1.00
H599   H     0.33226   0.13676   0.97470   0.00000  Uiso   1.00
H600   H     0.00108   0.19657   0.52530   0.00000  Uiso   1.00
H601   H     0.18535   0.14523   0.58197   0.00000  Uiso   1.00
H602   H     0.14798   0.18811   0.91803   0.00000  Uiso   1.00
H603   H     0.25716   0.03768   0.75243   0.00000  Uiso   1.00
H604   H     0.07617   0.29565   0.74757   0.00000  Uiso   1.00
H605   H     0.25709   0.29644   0.75232   0.00000  Uiso   1.00
H606   H     0.07625   0.03690   0.74768   0.00000  Uiso   1.00
H607   H     0.19658   0.12090   0.80075   0.00000  Uiso   1.00
H608   H     0.13675   0.21243   0.69925   0.00000  Uiso   1.00
N609   N     0.11736   0.16668   0.74999   0.00000  Uiso   1.00
N610   N     0.21597   0.16666   0.75001   0.00000  Uiso   1.00
O611   O     0.03958   0.10655   0.75000   0.00000  Uiso   1.00
O612   O     0.29375   0.22678   0.75000   0.00000  Uiso   1.00
O613   O     0.29372   0.10654   0.75001   0.00000  Uiso   1.00
O614   O     0.03961   0.22679   0.75000   0.00000  Uiso   1.00
O615   O     0.01852   0.16668   0.81492   0.00000  Uiso   1.00
O616   O     0.31481   0.16666   0.68509   0.00000  Uiso   1.00
O617   O     0.27267   0.16667   0.81492   0.00000  Uiso   1.00
O618   O     0.06067   0.16667   0.68508   0.00000  Uiso   1.00
Cl619  Cl    0.09627   0.10713   0.81588   0.00000  Uiso   1.00
Cl620  Cl    0.23707   0.22621   0.68412   0.00000  Uiso   1.00
C621   C     0.33338   0.08739   0.75006   0.00000  Uiso   1.00
C622   C     0.66662   0.24594   0.74994   0.00000  Uiso   1.00
C623   C     0.52706   0.15112   0.54648   0.00000  Uiso   1.00
C624   C     0.47293   0.18222   0.95352   0.00000  Uiso   1.00
C625   C     0.57535   0.14600   0.52406   0.00000  Uiso   1.00
C626   C     0.42465   0.18733   0.97594   0.00000  Uiso   1.00
C627   C     0.62394   0.02151   0.75133   0.00000  Uiso   1.00
C628   C     0.37606   0.31183   0.74867   0.00000  Uiso   1.00
C629   C     0.62388   0.31226   0.75126   0.00000  Uiso   1.00
C630   C     0.37612   0.02107   0.74874   0.00000  Uiso   1.00
C631   C     0.66659   0.29058   0.74993   0.00000  Uiso   1.00
C632   C     0.33341   0.04275   0.75007   0.00000  Uiso   1.00
C633   C     0.51725   0.14126   0.77822   0.00000  Uiso   1.00
C634   C     0.48275   0.19207   0.72178   0.00000  Uiso   1.00
C635   C     0.46783   0.14115   0.77836   0.00000  Uiso   1.00
C636   C     0.53217   0.19218   0.72164   0.00000  Uiso   1.00
C637   C     0.63951   0.16642   0.83607   0.00000  Uiso   1.00
C638   C     0.36049   0.16691   0.66393   0.00000  Uiso   1.00
C639   C     0.62441   0.16414   0.88522   0.00000  Uiso   1.00
C640   C     0.37559   0.16920   0.61478   0.00000  Uiso   1.00
C641   C     0.64017   0.14672   0.95619   0.00000  Uiso   1.00
C642   C     0.35983   0.18662   0.54381   0.00000  Uiso   1.00
C643   C     0.65678   0.15260   0.91007   0.00000  Uiso   1.00
C644   C     0.34322   0.18073   0.58993   0.00000  Uiso   1.00
C645   C     0.57572   0.17105   0.90711   0.00000  Uiso   1.00
C646   C     0.42428   0.16228   0.59289   0.00000  Uiso   1.00
C647   C     0.55778   0.16503   0.95365   0.00000  Uiso   1.00
C648   C     0.44222   0.16831   0.54635   0.00000  Uiso   1.00
C649   C     0.59113   0.15266   0.97808   0.00000  Uiso   1.00
C650   C     0.40887   0.18067   0.52192   0.00000  Uiso   1.00
C651   C     0.50782   0.17026   0.97639   0.00000  Uiso   1.00
C652   C     0.49218   0.16308   0.52361   0.00000  Uiso   1.00
Cu653  Cu    0.38022   0.16667   0.75000   0.00000  Uiso   1.00
Cu654  Cu    0.61978   0.16666   0.75000   0.00000  Uiso   1.00
H655   H     0.60060   0.13655   0.54301   0.00000  Uiso   1.00
H656   H     0.39940   0.19679   0.95699   0.00000  Uiso   1.00
H657   H     0.44742   0.15266   0.61338   0.00000  Uiso   1.00
H658   H     0.55258   0.18068   0.88662   0.00000  Uiso   1.00
H659   H     0.63877   0.18622   0.60618   0.00000  Uiso   1.00
H660   H     0.36123   0.14711   0.89382   0.00000  Uiso   1.00
H661   H     0.66559   0.13676   0.97470   0.00000  Uiso   1.00
H662   H     0.33441   0.19657   0.52530   0.00000  Uiso   1.00
H663   H     0.51868   0.14523   0.58197   0.00000  Uiso   1.00
H664   H     0.48132   0.18811   0.91803   0.00000  Uiso   1.00
H665   H     0.59050   0.03768   0.75243   0.00000  Uiso   1.00
H666   H     0.40950   0.29565   0.74757   0.00000  Uiso   1.00
H667   H     0.59042   0.29644   0.75232   0.00000  Uiso   1.00
H668   H     0.40958   0.03690   0.74768   0.00000  Uiso   1.00
H669   H     0.52992   0.12090   0.80075   0.00000  Uiso   1.00
H670   H     0.47008   0.21243   0.69925   0.00000  Uiso   1.00
N671   N     0.45069   0.16668   0.74999   0.00000  Uiso   1.00
N672   N     0.54931   0.16666   0.75001   0.00000  Uiso   1.00
O673   O     0.37291   0.10655   0.75000   0.00000  Uiso   1.00
O674   O     0.62709   0.22678   0.75000   0.00000  Uiso   1.00
O675   O     0.62706   0.10654   0.75001   0.00000  Uiso   1.00
O676   O     0.37294   0.22679   0.75000   0.00000  Uiso   1.00
O677   O     0.35186   0.16668   0.81492   0.00000  Uiso   1.00
O678   O     0.64814   0.16666   0.68509   0.00000  Uiso   1.00
O679   O     0.60600   0.16667   0.81492   0.00000  Uiso   1.00
O680   O     0.39400   0.16667   0.68508   0.00000  Uiso   1.00
Cl681  Cl    0.42960   0.10713   0.81588   0.00000  Uiso   1.00
Cl682  Cl    0.57040   0.22621   0.68412   0.00000  Uiso   1.00
C683   C     0.66672   0.08739   0.75006   0.00000  Uiso   1.00
C684   C     0.99995   0.24594   0.74994   0.00000  Uiso   1.00
C685   C     0.86040   0.15112   0.54648   0.00000  Uiso   1.00
C686   C     0.80627   0.18222   0.95352   0.00000  Uiso   1.00
C687   C     0.90869   0.14600   0.52406   0.00000  Uiso   1.00
C688   C     0.75798   0.18733   0.97594   0.00000  Uiso   1.00
C689   C     0.95728   0.02151   0.75133   0.00000  Uiso   1.00
C690   C     0.70939   0.31183   0.74867   0.00000  Uiso   1.00
C691   C     0.95721   0.31226   0.75126   0.00000  Uiso   1.00
C692   C     0.70946   0.02107   0.74874   0.00000  Uiso   1.00
C693   C     0.99993   0.29058   0.74993   0.00000  Uiso   1.00
C694   C     0.66674   0.04275   0.75007   0.00000  Uiso   1.00
C695   C     0.85059   0.14126   0.77822   0.00000  Uiso   1.00
C696   C     0.81608   0.19207   0.72178   0.00000  Uiso   1.00
C697   C     0.80116   0.14115   0.77836   0.00000  Uiso   1.00
C698   C     0.86551   0.19218   0.72164   0.00000  Uiso   1.00
C699   C     0.97284   0.16642   0.83607   0.00000  Uiso   1.00
C700   C     0.69383   0.16691   0.66393   0.00000  Uiso   1.00
C701   C     0.95774   0.16414   0.88522   0.00000  Uiso   1.00
C702   C     0.70892   0.16920   0.61478   0.00000  Uiso   1.00
C703   C     0.97350   0.14672   0.95619   0.00000  Uiso   1.00
C704   C     0.69316   0.18662   0.54381   0.00000  Uiso   1.00
C705   C     0.99011   0.15260   0.91007   0.00000  Uiso   1.00
C706   C     0.67655   0.18073   0.58993   0.00000  Uiso   1.00
C707   C     0.90906   0.17105   0.90711   0.00000  Uiso   1.00
C708   C     0.75761   0.16228   0.59289   0.00000  Uiso   1.00
C709   C     0.89111   0.16503   0.95365   0.00000  Uiso   1.00
C710   C     0.77556   0.16831   0.54635   0.00000  Uiso   1.00
C711   C     0.92446   0.15266   0.97808   0.00000  Uiso   1.00
C712   C     0.74220   0.18067   0.52192   0.00000  Uiso   1.00
C713   C     0.84115   0.17026   0.97639   0.00000  Uiso   1.00
C714   C     0.82552   0.16308   0.52361   0.00000  Uiso   1.00
Cu715  Cu    0.71355   0.16667   0.75000   0.00000  Uiso   1.00
Cu716  Cu    0.95311   0.16666   0.75000   0.00000  Uiso   1.00
H717   H     0.93393   0.13655   0.54301   0.00000  Uiso   1.00
H718   H     0.73274   0.19679   0.95699   0.00000  Uiso   1.00
H719   H     0.78076   0.15266   0.61338   0.00000  Uiso   1.00
H720   H     0.88591   0.18068   0.88662   0.00000  Uiso   1.00
H721   H     0.97210   0.18622   0.60618   0.00000  Uiso   1.00
H722   H     0.69456   0.14711   0.89382   0.00000  Uiso   1.00
H723   H     0.99892   0.13676   0.97470   0.00000  Uiso   1.00
H724   H     0.66774   0.19657   0.52530   0.00000  Uiso   1.00
H725   H     0.85202   0.14523   0.58197   0.00000  Uiso   1.00
H726   H     0.81465   0.18811   0.91803   0.00000  Uiso   1.00
H727   H     0.92383   0.03768   0.75243   0.00000  Uiso   1.00
H728   H     0.74284   0.29565   0.74757   0.00000  Uiso   1.00
H729   H     0.92375   0.29644   0.75232   0.00000  Uiso   1.00
H730   H     0.74291   0.03690   0.74768   0.00000  Uiso   1.00
H731   H     0.86325   0.12090   0.80075   0.00000  Uiso   1.00
H732   H     0.80341   0.21243   0.69925   0.00000  Uiso   1.00
N733   N     0.78403   0.16668   0.74999   0.00000  Uiso   1.00
N734   N     0.88264   0.16666   0.75001   0.00000  Uiso   1.00
O735   O     0.70625   0.10655   0.75000   0.00000  Uiso   1.00
O736   O     0.96042   0.22678   0.75000   0.00000  Uiso   1.00
O737   O     0.96039   0.10654   0.75001   0.00000  Uiso   1.00
O738   O     0.70628   0.22679   0.75000   0.00000  Uiso   1.00
O739   O     0.68519   0.16668   0.81492   0.00000  Uiso   1.00
O740   O     0.98148   0.16666   0.68509   0.00000  Uiso   1.00
O741   O     0.93933   0.16667   0.81492   0.00000  Uiso   1.00
O742   O     0.72733   0.16667   0.68508   0.00000  Uiso   1.00
Cl743  Cl    0.76293   0.10713   0.81588   0.00000  Uiso   1.00
Cl744  Cl    0.90373   0.22621   0.68412   0.00000  Uiso   1.00
C745   C     0.00005   0.42072   0.75006   0.00000  Uiso   1.00
C746   C     0.33328   0.57928   0.74994   0.00000  Uiso   1.00
C747   C     0.19373   0.48445   0.54648   0.00000  Uiso   1.00
C748   C     0.13960   0.51555   0.95352   0.00000  Uiso   1.00
C749   C     0.24202   0.47933   0.52406   0.00000  Uiso   1.00
C750   C     0.09131   0.52067   0.97594   0.00000  Uiso   1.00
C751   C     0.29061   0.35484   0.75133   0.00000  Uiso   1.00
C752   C     0.04272   0.64516   0.74867   0.00000  Uiso   1.00
C753   C     0.29054   0.64560   0.75126   0.00000  Uiso   1.00
C754   C     0.04279   0.35440   0.74874   0.00000  Uiso   1.00
C755   C     0.33326   0.62391   0.74993   0.00000  Uiso   1.00
C756   C     0.00007   0.37609   0.75007   0.00000  Uiso   1.00
C757   C     0.18392   0.47459   0.77822   0.00000  Uiso   1.00
C758   C     0.14941   0.52541   0.72178   0.00000  Uiso   1.00
C759   C     0.13449   0.47448   0.77836   0.00000  Uiso   1.00
C760   C     0.19884   0.52552   0.72164   0.00000  Uiso   1.00
C761   C     0.30617   0.49975   0.83607   0.00000  Uiso   1.00
C762   C     0.02716   0.50025   0.66393   0.00000  Uiso   1.00
C763   C     0.29108   0.49747   0.88522   0.00000  Uiso   1.00
C764   C     0.04226   0.50253   0.61478   0.00000  Uiso   1.00
C765   C     0.30684   0.48005   0.95619   0.00000  Uiso   1.00
C766   C     0.02649   0.51995   0.54381   0.00000  Uiso   1.00
C767   C     0.32345   0.48594   0.91007   0.00000  Uiso   1.00
C768   C     0.00989   0.51406   0.58993   0.00000  Uiso   1.00
C769   C     0.24239   0.50438   0.90711   0.00000  Uiso   1.00
C770   C     0.09094   0.49562   0.59289   0.00000  Uiso   1.00
C771   C     0.22444   0.49836   0.95365   0.00000  Uiso   1.00
C772   C     0.10889   0.50164   0.54635   0.00000  Uiso   1.00
C773   C     0.25780   0.48600   0.97808   0.00000  Uiso   1.00
C774   C     0.07554   0.51400   0.52192   0.00000  Uiso   1.00
C775   C     0.17448   0.50359   0.97639   0.00000  Uiso   1.00
C776   C     0.15885   0.49641   0.52361   0.00000  Uiso   1.00
Cu777  Cu    0.04689   0.50001   0.75000   0.00000  Uiso   1.00
Cu778  Cu    0.28645   0.49999   0.75000   0.00000  Uiso   1.00
H779   H     0.26726   0.46988   0.54301   0.00000  Uiso   1.00
H780   H     0.06607   0.53012   0.95699   0.00000  Uiso   1.00
H781   H     0.11409   0.48599   0.61338   0.00000  Uiso   1.00
H782   H     0.21924   0.51401   0.88662   0.00000  Uiso   1.00
H783   H     0.30544   0.51956   0.60618   0.00000  Uiso   1.00
H784   H     0.02790   0.48044   0.89382   0.00000  Uiso   1.00
H785   H     0.33226   0.47010   0.97470   0.00000  Uiso   1.00
H786   H     0.00108   0.52990   0.52530   0.00000  Uiso   1.00
H787   H     0.18535   0.47856   0.58197   0.00000  Uiso   1.00
H788   H     0.14798   0.52144   0.91803   0.00000  Uiso   1.00
H789   H     0.25716   0.37102   0.75243   0.00000  Uiso   1.00
H790   H     0.07617   0.62898   0.74757   0.00000  Uiso   1.00
H791   H     0.25709   0.62977   0.75232   0.00000  Uiso   1.00
H792   H     0.07625   0.37023   0.74768   0.00000  Uiso   1.00
H793   H     0.19658   0.45424   0.80075   0.00000  Uiso   1.00
H794   H     0.13675   0.54576   0.69925   0.00000  Uiso   1.00
N795   N     0.11736   0.50001   0.74999   0.00000  Uiso   1.00
N796   N     0.21597   0.49999   0.75001   0.00000  Uiso   1.00
O797   O     0.03958   0.43989   0.75000   0.00000  Uiso   1.00
O798   O     0.29375   0.56011   0.75000   0.00000  Uiso   1.00
O799   O     0.29372   0.43988   0.75001   0.00000  Uiso   1.00
O800   O     0.03961   0.56012   0.75000   0.00000  Uiso   1.00
O801   O     0.01852   0.50001   0.81492   0.00000  Uiso   1.00
O802   O     0.31481   0.49999   0.68509   0.00000  Uiso   1.00
O803   O     0.27267   0.50000   0.81492   0.00000  Uiso   1.00
O804   O     0.06067   0.50000   0.68508   0.00000  Uiso   1.00
Cl805  Cl    0.09627   0.44046   0.81588   0.00000  Uiso   1.00
Cl806  Cl    0.23707   0.55954   0.68412   0.00000  Uiso   1.00
C807   C     0.33338   0.42072   0.75006   0.00000  Uiso   1.00
C808   C     0.66662   0.57928   0.74994   0.00000  Uiso   1.00
C809   C     0.52706   0.48445   0.54648   0.00000  Uiso   1.00
C810   C     0.47293   0.51555   0.95352   0.00000  Uiso   1.00
C811   C     0.57535   0.47933   0.52406   0.00000  Uiso   1.00
C812   C     0.42465   0.52067   0.97594   0.00000  Uiso   1.00
C813   C     0.62394   0.35484   0.75133   0.00000  Uiso   1.00
C814   C     0.37606   0.64516   0.74867   0.00000  Uiso   1.00
C815   C     0.62388   0.64560   0.75126   0.00000  Uiso   1.00
C816   C     0.37612   0.35440   0.74874   0.00000  Uiso   1.00
C817   C     0.66659   0.62391   0.74993   0.00000  Uiso   1.00
C818   C     0.33341   0.37609   0.75007   0.00000  Uiso   1.00
C819   C     0.51725   0.47459   0.77822   0.00000  Uiso   1.00
C820   C     0.48275   0.52541   0.72178   0.00000  Uiso   1.00
C821   C     0.46783   0.47448   0.77836   0.00000  Uiso   1.00
C822   C     0.53217   0.52552   0.72164   0.00000  Uiso   1.00
C823   C     0.63951   0.49975   0.83607   0.00000  Uiso   1.00
C824   C     0.36049   0.50025   0.66393   0.00000  Uiso   1.00
C825   C     0.62441   0.49747   0.88522   0.00000  Uiso   1.00
C826   C     0.37559   0.50253   0.61478   0.00000  Uiso   1.00
C827   C     0.64017   0.48005   0.95619   0.00000  Uiso   1.00
C828   C     0.35983   0.51995   0.54381   0.00000  Uiso   1.00
C829   C     0.65678   0.48594   0.91007   0.00000  Uiso   1.00
C830   C     0.34322   0.51406   0.58993   0.00000  Uiso   1.00
C831   C     0.57572   0.50438   0.90711   0.00000  Uiso   1.00
C832   C     0.42428   0.49562   0.59289   0.00000  Uiso   1.00
C833   C     0.55778   0.49836   0.95365   0.00000  Uiso   1.00
C834   C     0.44222   0.50164   0.54635   0.00000  Uiso   1.00
C835   C     0.59113   0.48600   0.97808   0.00000  Uiso   1.00
C836   C     0.40887   0.51400   0.52192   0.00000  Uiso   1.00
C837   C     0.50782   0.50359   0.97639   0.00000  Uiso   1.00
C838   C     0.49218   0.49641   0.52361   0.00000  Uiso   1.00
Cu839  Cu    0.38022   0.50001   0.75000   0.00000  Uiso   1.00
Cu840  Cu    0.61978   0.49999   0.75000   0.00000  Uiso   1.00
H841   H     0.60060   0.46988   0.54301   0.00000  Uiso   1.00
H842   H     0.39940   0.53012   0.95699   0.00000  Uiso   1.00
H843   H     0.44742   0.48599   0.61338   0.00000  Uiso   1.00
H844   H     0.55258   0.51401   0.88662   0.00000  Uiso   1.00
H845   H     0.63877   0.51956   0.60618   0.00000  Uiso   1.00
H846   H     0.36123   0.48044   0.89382   0.00000  Uiso   1.00
H847   H     0.66559   0.47010   0.97470   0.00000  Uiso   1.00
H848   H     0.33441   0.52990   0.52530   0.00000  Uiso   1.00
H849   H     0.51868   0.47856   0.58197   0.00000  Uiso   1.00
H850   H     0.48132   0.52144   0.91803   0.00000  Uiso   1.00
H851   H     0.59050   0.37102   0.75243   0.00000  Uiso   1.00
H852   H     0.40950   0.62898   0.74757   0.00000  Uiso   1.00
H853   H     0.59042   0.62977   0.75232   0.00000  Uiso   1.00
H854   H     0.40958   0.37023   0.74768   0.00000  Uiso   1.00
H855   H     0.52992   0.45424   0.80075   0.00000  Uiso   1.00
H856   H     0.47008   0.54576   0.69925   0.00000  Uiso   1.00
N857   N     0.45069   0.50001   0.74999   0.00000  Uiso   1.00
N858   N     0.54931   0.49999   0.75001   0.00000  Uiso   1.00
O859   O     0.37291   0.43989   0.75000   0.00000  Uiso   1.00
O860   O     0.62709   0.56011   0.75000   0.00000  Uiso   1.00
O861   O     0.62706   0.43988   0.75001   0.00000  Uiso   1.00
O862   O     0.37294   0.56012   0.75000   0.00000  Uiso   1.00
O863   O     0.35186   0.50001   0.81492   0.00000  Uiso   1.00
O864   O     0.64814   0.49999   0.68509   0.00000  Uiso   1.00
O865   O     0.60600   0.50000   0.81492   0.00000  Uiso   1.00
O866   O     0.39400   0.50000   0.68508   0.00000  Uiso   1.00
Cl867  Cl    0.42960   0.44046   0.81588   0.00000  Uiso   1.00
Cl868  Cl    0.57040   0.55954   0.68412   0.00000  Uiso   1.00
C869   C     0.66672   0.42072   0.75006   0.00000  Uiso   1.00
C870   C     0.99995   0.57928   0.74994   0.00000  Uiso   1.00
C871   C     0.86040   0.48445   0.54648   0.00000  Uiso   1.00
C872   C     0.80627   0.51555   0.95352   0.00000  Uiso   1.00
C873   C     0.90869   0.47933   0.52406   0.00000  Uiso   1.00
C874   C     0.75798   0.52067   0.97594   0.00000  Uiso   1.00
C875   C     0.95728   0.35484   0.75133   0.00000  Uiso   1.00
C876   C     0.70939   0.64516   0.74867   0.00000  Uiso   1.00
C877   C     0.95721   0.64560   0.75126   0.00000  Uiso   1.00
C878   C     0.70946   0.35440   0.74874   0.00000  Uiso   1.00
C879   C     0.99993   0.62391   0.74993   0.00000  Uiso   1.00
C880   C     0.66674   0.37609   0.75007   0.00000  Uiso   1.00
C881   C     0.85059   0.47459   0.77822   0.00000  Uiso   1.00
C882   C     0.81608   0.52541   0.72178   0.00000  Uiso   1.00
C883   C     0.80116   0.47448   0.77836   0.00000  Uiso   1.00
C884   C     0.86551   0.52552   0.72164   0.00000  Uiso   1.00
C885   C     0.97284   0.49975   0.83607   0.00000  Uiso   1.00
C886   C     0.69383   0.50025   0.66393   0.00000  Uiso   1.00
C887   C     0.95774   0.49747   0.88522   0.00000  Uiso   1.00
C888   C     0.70892   0.50253   0.61478   0.00000  Uiso   1.00
C889   C     0.97350   0.48005   0.95619   0.00000  Uiso   1.00
C890   C     0.69316   0.51995   0.54381   0.00000  Uiso   1.00
C891   C     0.99011   0.48594   0.91007   0.00000  Uiso   1.00
C892   C     0.67655   0.51406   0.58993   0.00000  Uiso   1.00
C893   C     0.90906   0.50438   0.90711   0.00000  Uiso   1.00
C894   C     0.75761   0.49562   0.59289   0.00000  Uiso   1.00
C895   C     0.89111   0.49836   0.95365   0.00000  Uiso   1.00
C896   C     0.77556   0.50164   0.54635   0.00000  Uiso   1.00
C897   C     0.92446   0.48600   0.97808   0.00000  Uiso   1.00
C898   C     0.74220   0.51400   0.52192   0.00000  Uiso   1.00
C899   C     0.84115   0.50359   0.97639   0.00000  Uiso   1.00
C900   C     0.82552   0.49641   0.52361   0.00000  Uiso   1.00
Cu901  Cu    0.71355   0.50001   0.75000   0.00000  Uiso   1.00
Cu902  Cu    0.95311   0.49999   0.75000   0.00000  Uiso   1.00
H903   H     0.93393   0.46988   0.54301   0.00000  Uiso   1.00
H904   H     0.73274   0.53012   0.95699   0.00000  Uiso   1.00
H905   H     0.78076   0.48599   0.61338   0.00000  Uiso   1.00
H906   H     0.88591   0.51401   0.88662   0.00000  Uiso   1.00
H907   H     0.97210   0.51956   0.60618   0.00000  Uiso   1.00
H908   H     0.69456   0.48044   0.89382   0.00000  Uiso   1.00
H909   H     0.99892   0.47010   0.97470   0.00000  Uiso   1.00
H910   H     0.66774   0.52990   0.52530   0.00000  Uiso   1.00
H911   H     0.85202   0.47856   0.58197   0.00000  Uiso   1.00
H912   H     0.81465   0.52144   0.91803   0.00000  Uiso   1.00
H913   H     0.92383   0.37102   0.75243   0.00000  Uiso   1.00
H914   H     0.74284   0.62898   0.74757   0.00000  Uiso   1.00
H915   H     0.92375   0.62977   0.75232   0.00000  Uiso   1.00
H916   H     0.74291   0.37023   0.74768   0.00000  Uiso   1.00
H917   H     0.86325   0.45424   0.80075   0.00000  Uiso   1.00
H918   H     0.80341   0.54576   0.69925   0.00000  Uiso   1.00
N919   N     0.78403   0.50001   0.74999   0.00000  Uiso   1.00
N920   N     0.88264   0.49999   0.75001   0.00000  Uiso   1.00
O921   O     0.70625   0.43989   0.75000   0.00000  Uiso   1.00
O922   O     0.96042   0.56011   0.75000   0.00000  Uiso   1.00
O923   O     0.96039   0.43988   0.75001   0.00000  Uiso   1.00
O924   O     0.70628   0.56012   0.75000   0.00000  Uiso   1.00
O925   O     0.68519   0.50001   0.81492   0.00000  Uiso   1.00
O926   O     0.98148   0.49999   0.68509   0.00000  Uiso   1.00
O927   O     0.93933   0.50000   0.81492   0.00000  Uiso   1.00
O928   O     0.72733   0.50000   0.68508   0.00000  Uiso   1.00
Cl929  Cl    0.76293   0.44046   0.81588   0.00000  Uiso   1.00
Cl930  Cl    0.90373   0.55954   0.68412   0.00000  Uiso   1.00
C931   C     0.00005   0.75406   0.75006   0.00000  Uiso   1.00
C932   C     0.33328   0.91261   0.74994   0.00000  Uiso   1.00
C933   C     0.19373   0.81778   0.54648   0.00000  Uiso   1.00
C934   C     0.13960   0.84889   0.95352   0.00000  Uiso   1.00
C935   C     0.24202   0.81267   0.52406   0.00000  Uiso   1.00
C936   C     0.09131   0.85400   0.97594   0.00000  Uiso   1.00
C937   C     0.29061   0.68817   0.75133   0.00000  Uiso   1.00
C938   C     0.04272   0.97849   0.74867   0.00000  Uiso   1.00
C939   C     0.29054   0.97893   0.75126   0.00000  Uiso   1.00
C940   C     0.04279   0.68774   0.74874   0.00000  Uiso   1.00
C941   C     0.33326   0.95725   0.74993   0.00000  Uiso   1.00
C942   C     0.00007   0.70942   0.75007   0.00000  Uiso   1.00
C943   C     0.18392   0.80793   0.77822   0.00000  Uiso   1.00
C944   C     0.14941   0.85874   0.72178   0.00000  Uiso   1.00
C945   C     0.13449   0.80782   0.77836   0.00000  Uiso   1.00
C946   C     0.19884   0.85885   0.72164   0.00000  Uiso   1.00
C947   C     0.30617   0.83309   0.83607   0.00000  Uiso   1.00
C948   C     0.02716   0.83358   0.66393   0.00000  Uiso   1.00
C949   C     0.29108   0.83080   0.88522   0.00000  Uiso   1.00
C950   C     0.04226   0.83586   0.61478   0.00000  Uiso   1.00
C951   C     0.30684   0.81338   0.95619   0.00000  Uiso   1.00
C952   C     0.02649   0.85328   0.54381   0.00000  Uiso   1.00
C953   C     0.32345   0.81927   0.91007   0.00000  Uiso   1.00
C954   C     0.00989   0.84740   0.58993   0.00000  Uiso   1.00
C955   C     0.24239   0.83772   0.90711   0.00000  Uiso   1.00
C956   C     0.09094   0.82895   0.59289   0.00000  Uiso   1.00
C957   C     0.22444   0.83169   0.95365   0.00000  Uiso   1.00
C958   C     0.10889   0.83497   0.54635   0.00000  Uiso   1.00
C959   C     0.25780   0.81933   0.97808   0.00000  Uiso   1.00
C960   C     0.07554   0.84734   0.52192   0.00000  Uiso   1.00
C961   C     0.17448   0.83692   0.97639   0.00000  Uiso   1.00
C962   C     0.15885   0.82974   0.52361   0.00000  Uiso   1.00
Cu963  Cu    0.04689   0.83334   0.75000   0.00000  Uiso   1.00
Cu964  Cu    0.28645   0.83333   0.75000   0.00000  Uiso   1.00
H965   H     0.26726   0.80321   0.54301   0.00000  Uiso   1.00
H966   H     0.06607   0.86345   0.95699   0.00000  Uiso   1.00
H967   H     0.11409   0.81932   0.61338   0.00000  Uiso   1.00
H968   H     0.21924   0.84734   0.88662   0.00000  Uiso   1.00
H969   H     0.30544   0.85289   0.60618   0.00000  Uiso   1.00
H970   H     0.02790   0.81378   0.89382   0.00000  Uiso   1.00
H971   H     0.33226   0.80343   0.97470   0.00000  Uiso   1.00
H972   H     0.00108   0.86324   0.52530   0.00000  Uiso   1.00
H973   H     0.18535   0.81189   0.58197   0.00000  Uiso   1.00
H974   H     0.14798   0.85477   0.91803   0.00000  Uiso   1.00
H975   H     0.25716   0.70435   0.75243   0.00000  Uiso   1.00
H976   H     0.07617   0.96232   0.74757   0.00000  Uiso   1.00
H977   H     0.25709   0.96310   0.75232   0.00000  Uiso   1.00
H978   H     0.07625   0.70356   0.74768   0.00000  Uiso   1.00
H979   H     0.19658   0.78757   0.80075   0.00000  Uiso   1.00
H980   H     0.13675   0.87910   0.69925   0.00000  Uiso   1.00
N981   N     0.11736   0.83334   0.74999   0.00000  Uiso   1.00
N982   N     0.21597   0.83332   0.75001   0.00000  Uiso   1.00
O983   O     0.03958   0.77322   0.75000   0.00000  Uiso   1.00
O984   O     0.29375   0.89345   0.75000   0.00000  Uiso   1.00
O985   O     0.29372   0.77321   0.75001   0.00000  Uiso   1.00
O986   O     0.03961   0.89346   0.75000   0.00000  Uiso   1.00
O987   O     0.01852   0.83334   0.81492   0.00000  Uiso   1.00
O988   O     0.31481   0.83332   0.68509   0.00000  Uiso   1.00
O989   O     0.27267   0.83333   0.81492   0.00000  Uiso   1.00
O990   O     0.06067   0.83333   0.68508   0.00000  Uiso   1.00
Cl991  Cl    0.09627   0.77379   0.81588   0.00000  Uiso   1.00
Cl992  Cl    0.23707   0.89287   0.68412   0.00000  Uiso   1.00
C993   C     0.33338   0.75406   0.75006   0.00000  Uiso   1.00
C994   C     0.66662   0.91261   0.74994   0.00000  Uiso   1.00
C995   C     0.52706   0.81778   0.54648   0.00000  Uiso   1.00
C996   C     0.47293   0.84889   0.95352   0.00000  Uiso   1.00
C997   C     0.57535   0.81267   0.52406   0.00000  Uiso   1.00
C998   C     0.42465   0.85400   0.97594   0.00000  Uiso   1.00
C999   C     0.62394   0.68817   0.75133   0.00000  Uiso   1.00
C1000  C     0.37606   0.97849   0.74867   0.00000  Uiso   1.00
C1001  C     0.62388   0.97893   0.75126   0.00000  Uiso   1.00
C1002  C     0.37612   0.68774   0.74874   0.00000  Uiso   1.00
C1003  C     0.66659   0.95725   0.74993   0.00000  Uiso   1.00
C1004  C     0.33341   0.70942   0.75007   0.00000  Uiso   1.00
C1005  C     0.51725   0.80793   0.77822   0.00000  Uiso   1.00
C1006  C     0.48275   0.85874   0.72178   0.00000  Uiso   1.00
C1007  C     0.46783   0.80782   0.77836   0.00000  Uiso   1.00
C1008  C     0.53217   0.85885   0.72164   0.00000  Uiso   1.00
C1009  C     0.63951   0.83309   0.83607   0.00000  Uiso   1.00
C1010  C     0.36049   0.83358   0.66393   0.00000  Uiso   1.00
C1011  C     0.62441   0.83080   0.88522   0.00000  Uiso   1.00
C1012  C     0.37559   0.83586   0.61478   0.00000  Uiso   1.00
C1013  C     0.64017   0.81338   0.95619   0.00000  Uiso   1.00
C1014  C     0.35983   0.85328   0.54381   0.00000  Uiso   1.00
C1015  C     0.65678   0.81927   0.91007   0.00000  Uiso   1.00
C1016  C     0.34322   0.84740   0.58993   0.00000  Uiso   1.00
C1017  C     0.57572   0.83772   0.90711   0.00000  Uiso   1.00
C1018  C     0.42428   0.82895   0.59289   0.00000  Uiso   1.00
C1019  C     0.55778   0.83169   0.95365   0.00000  Uiso   1.00
C1020  C     0.44222   0.83497   0.54635   0.00000  Uiso   1.00
C1021  C     0.59113   0.81933   0.97808   0.00000  Uiso   1.00
C1022  C     0.40887   0.84734   0.52192   0.00000  Uiso   1.00
C1023  C     0.50782   0.83692   0.97639   0.00000  Uiso   1.00
C1024  C     0.49218   0.82974   0.52361   0.00000  Uiso   1.00
Cu1025 Cu    0.38022   0.83334   0.75000   0.00000  Uiso   1.00
Cu1026 Cu    0.61978   0.83333   0.75000   0.00000  Uiso   1.00
H1027  H     0.60060   0.80321   0.54301   0.00000  Uiso   1.00
H1028  H     0.39940   0.86345   0.95699   0.00000  Uiso   1.00
H1029  H     0.44742   0.81932   0.61338   0.00000  Uiso   1.00
H1030  H     0.55258   0.84734   0.88662   0.00000  Uiso   1.00
H1031  H     0.63877   0.85289   0.60618   0.00000  Uiso   1.00
H1032  H     0.36123   0.81378   0.89382   0.00000  Uiso   1.00
H1033  H     0.66559   0.80343   0.97470   0.00000  Uiso   1.00
H1034  H     0.33441   0.86324   0.52530   0.00000  Uiso   1.00
H1035  H     0.51868   0.81189   0.58197   0.00000  Uiso   1.00
H1036  H     0.48132   0.85477   0.91803   0.00000  Uiso   1.00
H1037  H     0.59050   0.70435   0.75243   0.00000  Uiso   1.00
H1038  H     0.40950   0.96232   0.74757   0.00000  Uiso   1.00
H1039  H     0.59042   0.96310   0.75232   0.00000  Uiso   1.00
H1040  H     0.40958   0.70356   0.74768   0.00000  Uiso   1.00
H1041  H     0.52992   0.78757   0.80075   0.00000  Uiso   1.00
H1042  H     0.47008   0.87910   0.69925   0.00000  Uiso   1.00
N1043  N     0.45069   0.83334   0.74999   0.00000  Uiso   1.00
N1044  N     0.54931   0.83332   0.75001   0.00000  Uiso   1.00
O1045  O     0.37291   0.77322   0.75000   0.00000  Uiso   1.00
O1046  O     0.62709   0.89345   0.75000   0.00000  Uiso   1.00
O1047  O     0.62706   0.77321   0.75001   0.00000  Uiso   1.00
O1048  O     0.37294   0.89346   0.75000   0.00000  Uiso   1.00
O1049  O     0.35186   0.83334   0.81492   0.00000  Uiso   1.00
O1050  O     0.64814   0.83332   0.68509   0.00000  Uiso   1.00
O1051  O     0.60600   0.83333   0.81492   0.00000  Uiso   1.00
O1052  O     0.39400   0.83333   0.68508   0.00000  Uiso   1.00
Cl1053 Cl    0.42960   0.77379   0.81588   0.00000  Uiso   1.00
Cl1054 Cl    0.57040   0.89287   0.68412   0.00000  Uiso   1.00
C1055  C     0.66672   0.75406   0.75006   0.00000  Uiso   1.00
C1056  C     0.99995   0.91261   0.74994   0.00000  Uiso   1.00
C1057  C     0.86040   0.81778   0.54648   0.00000  Uiso   1.00
C1058  C     0.80627   0.84889   0.95352   0.00000  Uiso   1.00
C1059  C     0.90869   0.81267   0.52406   0.00000  Uiso   1.00
C1060  C     0.75798   0.85400   0.97594   0.00000  Uiso   1.00
C1061  C     0.95728   0.68817   0.75133   0.00000  Uiso   1.00
C1062  C     0.70939   0.97849   0.74867   0.00000  Uiso   1.00
C1063  C     0.95721   0.97893   0.75126   0.00000  Uiso   1.00
C1064  C     0.70946   0.68774   0.74874   0.00000  Uiso   1.00
C1065  C     0.99993   0.95725   0.74993   0.00000  Uiso   1.00
C1066  C     0.66674   0.70942   0.75007   0.00000  Uiso   1.00
C1067  C     0.85059   0.80793   0.77822   0.00000  Uiso   1.00
C1068  C     0.81608   0.85874   0.72178   0.00000  Uiso   1.00
C1069  C     0.80116   0.80782   0.77836   0.00000  Uiso   1.00
C1070  C     0.86551   0.85885   0.72164   0.00000  Uiso   1.00
C1071  C     0.97284   0.83309   0.83607   0.00000  Uiso   1.00
C1072  C     0.69383   0.83358   0.66393   0.00000  Uiso   1.00
C1073  C     0.95774   0.83080   0.88522   0.00000  Uiso   1.00
C1074  C     0.70892   0.83586   0.61478   0.00000  Uiso   1.00
C1075  C     0.97350   0.81338   0.95619   0.00000  Uiso   1.00
C1076  C     0.69316   0.85328   0.54381   0.00000  Uiso   1.00
C1077  C     0.99011   0.81927   0.91007   0.00000  Uiso   1.00
C1078  C     0.67655   0.84740   0.58993   0.00000  Uiso   1.00
C1079  C     0.90906   0.83772   0.90711   0.00000  Uiso   1.00
C1080  C     0.75761   0.82895   0.59289   0.00000  Uiso   1.00
C1081  C     0.89111   0.83169   0.95365   0.00000  Uiso   1.00
C1082  C     0.77556   0.83497   0.54635   0.00000  Uiso   1.00
C1083  C     0.92446   0.81933   0.97808   0.00000  Uiso   1.00
C1084  C     0.74220   0.84734   0.52192   0.00000  Uiso   1.00
C1085  C     0.84115   0.83692   0.97639   0.00000  Uiso   1.00
C1086  C     0.82552   0.82974   0.52361   0.00000  Uiso   1.00
Cu1087 Cu    0.71355   0.83334   0.75000   0.00000  Uiso   1.00
Cu1088 Cu    0.95311   0.83333   0.75000   0.00000  Uiso   1.00
H1089  H     0.93393   0.80321   0.54301   0.00000  Uiso   1.00
H1090  H     0.73274   0.86345   0.95699   0.00000  Uiso   1.00
H1091  H     0.78076   0.81932   0.61338   0.00000  Uiso   1.00
H1092  H     0.88591   0.84734   0.88662   0.00000  Uiso   1.00
H1093  H     0.97210   0.85289   0.60618   0.00000  Uiso   1.00
H1094  H     0.69456   0.81378   0.89382   0.00000  Uiso   1.00
H1095  H     0.99892   0.80343   0.97470   0.00000  Uiso   1.00
H1096  H     0.66774   0.86324   0.52530   0.00000  Uiso   1.00
H1097  H     0.85202   0.81189   0.58197   0.00000  Uiso   1.00
H1098  H     0.81465   0.85477   0.91803   0.00000  Uiso   1.00
H1099  H     0.92383   0.70435   0.75243   0.00000  Uiso   1.00
H1100  H     0.74284   0.96232   0.74757   0.00000  Uiso   1.00
H1101  H     0.92375   0.96310   0.75232   0.00000  Uiso   1.00
H1102  H     0.74291   0.70356   0.74768   0.00000  Uiso   1.00
H1103  H     0.86325   0.78757   0.80075   0.00000  Uiso   1.00
H1104  H     0.80341   0.87910   0.69925   0.00000  Uiso   1.00
N1105  N     0.78403   0.83334   0.74999   0.00000  Uiso   1.00
N1106  N     0.88264   0.83332   0.75001   0.00000  Uiso   1.00
O1107  O     0.70625   0.77322   0.75000   0.00000  Uiso   1.00
O1108  O     0.96042   0.89345   0.75000   0.00000  Uiso   1.00
O1109  O     0.96039   0.77321   0.75001   0.00000  Uiso   1.00
O1110  O     0.70628   0.89346   0.75000   0.00000  Uiso   1.00
O1111  O     0.68519   0.83334   0.81492   0.00000  Uiso   1.00
O1112  O     0.98148   0.83332   0.68509   0.00000  Uiso   1.00
O1113  O     0.93933   0.83333   0.81492   0.00000  Uiso   1.00
O1114  O     0.72733   0.83333   0.68508   0.00000  Uiso   1.00
Cl1115 Cl    0.76293   0.77379   0.81588   0.00000  Uiso   1.00
Cl1116 Cl    0.90373   0.89287   0.68412   0.00000  Uiso   1.00
loop_
_geom_bond_atom_site_label_1
_geom_bond_atom_site_label_2
_geom_bond_distance
_geom_bond_site_symmetry_2
_ccdc_geom_bond_type
C1     C12     1.450   .     S
C1     O53     1.295   .     A
C1     O179    1.293   1_455 S
C2     C11     1.450   .     S
C2     O54     1.295   .     A
C2     O118    1.293   .     S
C3     H43     1.075   .     S
C3     C32     1.418   .     A
C3     C5      1.385   .     A
C4     H44     1.075   .     S
C4     C6      1.385   .     A
C4     C31     1.418   .     A
C5     H35     1.084   .     S
C5     C587    1.389   1_554 S
C6     H36     1.084   .     S
C6     C588    1.389   .     S
C7     H45     1.083   .     S
C7     C381    1.384   1_545 S
C7     C74     1.402   .     S
C8     H46     1.083   .     S
C8     C196    1.384   .     S
C8     C135    1.402   1_455 S
C9     H47     1.083   .     S
C9     C11     1.400   .     A
C9     C193    1.384   .     S
C10    H48     1.083   .     S
C10    C12     1.400   .     A
C10    C380    1.384   1_545 S
C11    C70     1.402   .     S
C12    C131    1.402   1_455 S
C13    N52     1.361   .     A
C13    H49     1.082   .     S
C13    C15     1.415   .     A
C14    C16     1.415   .     A
C14    H50     1.082   .     S
C14    N51     1.361   .     A
C15    N51     1.378   .     A
C15    Cl61    1.754   .     S
C16    Cl62    1.754   .     S
C16    N52     1.378   .     A
C17    O59     1.296   .     A
C17    C19     1.468   .     S
C17    O119    1.301   .     S
C18    C20     1.468   .     S
C18    O60     1.296   .     A
C18    O182    1.301   1_455 S
C19    C23     1.398   .     A
C19    C25     1.400   .     A
C20    C24     1.398   .     A
C20    C26     1.400   .     A
C21    C29     1.404   .     A
C21    H41     1.083   .     S
C21    C23     1.391   .     A
C22    H42     1.083   .     S
C22    C24     1.391   .     A
C22    C30     1.404   .     A
C23    H102    1.082   .     S
C24    H163    1.082   1_455 S
C25    H38     1.073   .     S
C25    C27     1.407   .     A
C26    H37     1.073   .     S
C26    C28     1.407   .     A
C27    C29     1.418   .     A
C27    C31     1.430   .     A
C28    C30     1.418   .     A
C28    C32     1.430   .     A
C29    C563    1.389   .     S
C30    C564    1.389   1_554 S
C31    C590    1.427   .     S
C32    C589    1.427   1_554 S
Cu33   N51     2.019   .     S
Cu33   O57     1.959   .     S
Cu33   O56     1.963   .     S
Cu33   O53     1.966   .     S
Cu33   O60     1.942   .     S
Cu33   Cu158   2.687   1_455 S
Cu34   O55     1.963   .     S
Cu34   O59     1.942   .     S
Cu34   O54     1.966   .     S
Cu34   O58     1.959   .     S
Cu34   N52     2.019   .     S
Cu34   Cu95    2.687   .     S
H39    C86     1.082   .     S
H40    C147    1.082   1_455 S
O55    C63     1.293   .     S
O56    C126    1.293   1_455 S
O57    C141    1.301   1_455 S
O58    C80     1.301   .     S
C63    C74     1.450   .     S
C63    O115    1.295   .     A
C64    C73     1.450   .     S
C64    O116    1.295   .     A
C64    O180    1.293   .     S
C65    H105    1.075   .     S
C65    C94     1.418   .     A
C65    C67     1.385   .     A
C66    H106    1.075   .     S
C66    C68     1.385   .     A
C66    C93     1.418   .     A
C67    H97     1.084   .     S
C67    C649    1.389   1_554 S
C68    H98     1.084   .     S
C68    C650    1.389   .     S
C69    H107    1.083   .     S
C69    C443    1.384   1_545 S
C69    C136    1.402   .     S
C70    H108    1.083   .     S
C70    C258    1.384   .     S
C71    H109    1.083   .     S
C71    C73     1.400   .     A
C71    C255    1.384   .     S
C72    H110    1.083   .     S
C72    C74     1.400   .     A
C72    C442    1.384   1_545 S
C73    C132    1.402   .     S
C75    N114    1.361   .     A
C75    H111    1.082   .     S
C75    C77     1.415   .     A
C76    C78     1.415   .     A
C76    H112    1.082   .     S
C76    N113    1.361   .     A
C77    N113    1.378   .     A
C77    Cl123   1.754   .     S
C78    Cl124   1.754   .     S
C78    N114    1.378   .     A
C79    O121    1.296   .     A
C79    C81     1.468   .     S
C79    O181    1.301   .     S
C80    C82     1.468   .     S
C80    O122    1.296   .     A
C81    C85     1.398   .     A
C81    C87     1.400   .     A
C82    C86     1.398   .     A
C82    C88     1.400   .     A
C83    C91     1.404   .     A
C83    H103    1.083   .     S
C83    C85     1.391   .     A
C84    H104    1.083   .     S
C84    C86     1.391   .     A
C84    C92     1.404   .     A
C85    H164    1.082   .     S
C87    H100    1.073   .     S
C87    C89     1.407   .     A
C88    H99     1.073   .     S
C88    C90     1.407   .     A
C89    C91     1.418   .     A
C89    C93     1.430   .     A
C90    C92     1.418   .     A
C90    C94     1.430   .     A
C91    C625    1.389   .     S
C92    C626    1.389   1_554 S
C93    C652    1.427   .     S
C94    C651    1.427   1_554 S
Cu95   N113    2.019   .     S
Cu95   O119    1.959   .     S
Cu95   O118    1.963   .     S
Cu95   O115    1.966   .     S
Cu95   O122    1.942   .     S
Cu96   O117    1.963   .     S
Cu96   O121    1.942   .     S
Cu96   O116    1.966   .     S
Cu96   O120    1.959   .     S
Cu96   N114    2.019   .     S
Cu96   Cu157   2.687   .     S
H101   C148    1.082   .     S
O117   C125    1.293   .     S
O120   C142    1.301   .     S
C125   C136    1.450   .     S
C125   O177    1.295   .     A
C126   C135    1.450   .     S
C126   O178    1.295   .     A
C126   O56     1.293   1_655 S
C127   H167    1.075   .     S
C127   C156    1.418   .     A
C127   C129    1.385   .     A
C128   H168    1.075   .     S
C128   C130    1.385   .     A
C128   C155    1.418   .     A
C129   H159    1.084   .     S
C129   C711    1.389   1_554 S
C130   H160    1.084   .     S
C130   C712    1.389   .     S
C131   H169    1.083   .     S
C131   C505    1.384   1_545 S
C131   C12     1.402   1_655 S
C132   H170    1.083   .     S
C132   C320    1.384   .     S
C133   H171    1.083   .     S
C133   C135    1.400   .     A
C133   C317    1.384   .     S
C134   H172    1.083   .     S
C134   C136    1.400   .     A
C134   C504    1.384   1_545 S
C135   C8      1.402   1_655 S
C137   N176    1.361   .     A
C137   H173    1.082   .     S
C137   C139    1.415   .     A
C138   C140    1.415   .     A
C138   H174    1.082   .     S
C138   N175    1.361   .     A
C139   N175    1.378   .     A
C139   Cl185   1.754   .     S
C140   Cl186   1.754   .     S
C140   N176    1.378   .     A
C141   O183    1.296   .     A
C141   C143    1.468   .     S
C141   O57     1.301   1_655 S
C142   C144    1.468   .     S
C142   O184    1.296   .     A
C143   C147    1.398   .     A
C143   C149    1.400   .     A
C144   C148    1.398   .     A
C144   C150    1.400   .     A
C145   C153    1.404   .     A
C145   H165    1.083   .     S
C145   C147    1.391   .     A
C146   H166    1.083   .     S
C146   C148    1.391   .     A
C146   C154    1.404   .     A
C147   H40     1.082   1_655 S
C149   H162    1.073   .     S
C149   C151    1.407   .     A
C150   H161    1.073   .     S
C150   C152    1.407   .     A
C151   C153    1.418   .     A
C151   C155    1.430   .     A
C152   C154    1.418   .     A
C152   C156    1.430   .     A
C153   C687    1.389   .     S
C154   C688    1.389   1_554 S
C155   C714    1.427   .     S
C156   C713    1.427   1_554 S
Cu157  N175    2.019   .     S
Cu157  O181    1.959   .     S
Cu157  O180    1.963   .     S
Cu157  O177    1.966   .     S
Cu157  O184    1.942   .     S
Cu158  O179    1.963   .     S
Cu158  O183    1.942   .     S
Cu158  O178    1.966   .     S
Cu158  O182    1.959   .     S
Cu158  N176    2.019   .     S
Cu158  Cu33    2.687   1_655 S
H163   C24     1.082   1_655 S
O179   C1      1.293   1_655 S
O182   C18     1.301   1_655 S
C187   C198    1.450   .     S
C187   O239    1.295   .     A
C187   O365    1.293   1_455 S
C188   C197    1.450   .     S
C188   O240    1.295   .     A
C188   O304    1.293   .     S
C189   H229    1.075   .     S
C189   C218    1.418   .     A
C189   C191    1.385   .     A
C190   H230    1.075   .     S
C190   C192    1.385   .     A
C190   C217    1.418   .     A
C191   H221    1.084   .     S
C191   C773    1.389   1_554 S
C192   H222    1.084   .     S
C192   C774    1.389   .     S
C193   H231    1.083   .     S
C193   C260    1.402   .     S
C194   H232    1.083   .     S
C194   C382    1.384   .     S
C194   C321    1.402   1_455 S
C195   H233    1.083   .     S
C195   C197    1.400   .     A
C195   C379    1.384   .     S
C196   H234    1.083   .     S
C196   C198    1.400   .     A
C197   C256    1.402   .     S
C198   C317    1.402   1_455 S
C199   N238    1.361   .     A
C199   H235    1.082   .     S
C199   C201    1.415   .     A
C200   C202    1.415   .     A
C200   H236    1.082   .     S
C200   N237    1.361   .     A
C201   N237    1.378   .     A
C201   Cl247   1.754   .     S
C202   Cl248   1.754   .     S
C202   N238    1.378   .     A
C203   O245    1.296   .     A
C203   C205    1.468   .     S
C203   O305    1.301   .     S
C204   C206    1.468   .     S
C204   O246    1.296   .     A
C204   O368    1.301   1_455 S
C205   C209    1.398   .     A
C205   C211    1.400   .     A
C206   C210    1.398   .     A
C206   C212    1.400   .     A
C207   C215    1.404   .     A
C207   H227    1.083   .     S
C207   C209    1.391   .     A
C208   H228    1.083   .     S
C208   C210    1.391   .     A
C208   C216    1.404   .     A
C209   H288    1.082   .     S
C210   H349    1.082   1_455 S
C211   H224    1.073   .     S
C211   C213    1.407   .     A
C212   H223    1.073   .     S
C212   C214    1.407   .     A
C213   C215    1.418   .     A
C213   C217    1.430   .     A
C214   C216    1.418   .     A
C214   C218    1.430   .     A
C215   C749    1.389   .     S
C216   C750    1.389   1_554 S
C217   C776    1.427   .     S
C218   C775    1.427   1_554 S
Cu219  N237    2.019   .     S
Cu219  O243    1.959   .     S
Cu219  O242    1.963   .     S
Cu219  O239    1.966   .     S
Cu219  O246    1.942   .     S
Cu219  Cu344   2.687   1_455 S
Cu220  O241    1.963   .     S
Cu220  O245    1.942   .     S
Cu220  O240    1.966   .     S
Cu220  O244    1.959   .     S
Cu220  N238    2.019   .     S
Cu220  Cu281   2.687   .     S
H225   C272    1.082   .     S
H226   C333    1.082   1_455 S
O241   C249    1.293   .     S
O242   C312    1.293   1_455 S
O243   C327    1.301   1_455 S
O244   C266    1.301   .     S
C249   C260    1.450   .     S
C249   O301    1.295   .     A
C250   C259    1.450   .     S
C250   O302    1.295   .     A
C250   O366    1.293   .     S
C251   H291    1.075   .     S
C251   C280    1.418   .     A
C251   C253    1.385   .     A
C252   H292    1.075   .     S
C252   C254    1.385   .     A
C252   C279    1.418   .     A
C253   H283    1.084   .     S
C253   C835    1.389   1_554 S
C254   H284    1.084   .     S
C254   C836    1.389   .     S
C255   H293    1.083   .     S
C255   C322    1.402   .     S
C256   H294    1.083   .     S
C256   C444    1.384   .     S
C257   H295    1.083   .     S
C257   C259    1.400   .     A
C257   C441    1.384   .     S
C258   H296    1.083   .     S
C258   C260    1.400   .     A
C259   C318    1.402   .     S
C261   N300    1.361   .     A
C261   H297    1.082   .     S
C261   C263    1.415   .     A
C262   C264    1.415   .     A
C262   H298    1.082   .     S
C262   N299    1.361   .     A
C263   N299    1.378   .     A
C263   Cl309   1.754   .     S
C264   Cl310   1.754   .     S
C264   N300    1.378   .     A
C265   O307    1.296   .     A
C265   C267    1.468   .     S
C265   O367    1.301   .     S
C266   C268    1.468   .     S
C266   O308    1.296   .     A
C267   C271    1.398   .     A
C267   C273    1.400   .     A
C268   C272    1.398   .     A
C268   C274    1.400   .     A
C269   C277    1.404   .     A
C269   H289    1.083   .     S
C269   C271    1.391   .     A
C270   H290    1.083   .     S
C270   C272    1.391   .     A
C270   C278    1.404   .     A
C271   H350    1.082   .     S
C273   H286    1.073   .     S
C273   C275    1.407   .     A
C274   H285    1.073   .     S
C274   C276    1.407   .     A
C275   C277    1.418   .     A
C275   C279    1.430   .     A
C276   C278    1.418   .     A
C276   C280    1.430   .     A
C277   C811    1.389   .     S
C278   C812    1.389   1_554 S
C279   C838    1.427   .     S
C280   C837    1.427   1_554 S
Cu281  N299    2.019   .     S
Cu281  O305    1.959   .     S
Cu281  O304    1.963   .     S
Cu281  O301    1.966   .     S
Cu281  O308    1.942   .     S
Cu282  O303    1.963   .     S
Cu282  O307    1.942   .     S
Cu282  O302    1.966   .     S
Cu282  O306    1.959   .     S
Cu282  N300    2.019   .     S
Cu282  Cu343   2.687   .     S
H287   C334    1.082   .     S
O303   C311    1.293   .     S
O306   C328    1.301   .     S
C311   C322    1.450   .     S
C311   O363    1.295   .     A
C312   C321    1.450   .     S
C312   O364    1.295   .     A
C312   O242    1.293   1_655 S
C313   H353    1.075   .     S
C313   C342    1.418   .     A
C313   C315    1.385   .     A
C314   H354    1.075   .     S
C314   C316    1.385   .     A
C314   C341    1.418   .     A
C315   H345    1.084   .     S
C315   C897    1.389   1_554 S
C316   H346    1.084   .     S
C316   C898    1.389   .     S
C317   H355    1.083   .     S
C317   C198    1.402   1_655 S
C318   H356    1.083   .     S
C318   C506    1.384   .     S
C319   H357    1.083   .     S
C319   C321    1.400   .     A
C319   C503    1.384   .     S
C320   H358    1.083   .     S
C320   C322    1.400   .     A
C321   C194    1.402   1_655 S
C323   N362    1.361   .     A
C323   H359    1.082   .     S
C323   C325    1.415   .     A
C324   C326    1.415   .     A
C324   H360    1.082   .     S
C324   N361    1.361   .     A
C325   N361    1.378   .     A
C325   Cl371   1.754   .     S
C326   Cl372   1.754   .     S
C326   N362    1.378   .     A
C327   O369    1.296   .     A
C327   C329    1.468   .     S
C327   O243    1.301   1_655 S
C328   C330    1.468   .     S
C328   O370    1.296   .     A
C329   C333    1.398   .     A
C329   C335    1.400   .     A
C330   C334    1.398   .     A
C330   C336    1.400   .     A
C331   C339    1.404   .     A
C331   H351    1.083   .     S
C331   C333    1.391   .     A
C332   H352    1.083   .     S
C332   C334    1.391   .     A
C332   C340    1.404   .     A
C333   H226    1.082   1_655 S
C335   H348    1.073   .     S
C335   C337    1.407   .     A
C336   H347    1.073   .     S
C336   C338    1.407   .     A
C337   C339    1.418   .     A
C337   C341    1.430   .     A
C338   C340    1.418   .     A
C338   C342    1.430   .     A
C339   C873    1.389   .     S
C340   C874    1.389   1_554 S
C341   C900    1.427   .     S
C342   C899    1.427   1_554 S
Cu343  N361    2.019   .     S
Cu343  O367    1.959   .     S
Cu343  O366    1.963   .     S
Cu343  O363    1.966   .     S
Cu343  O370    1.942   .     S
Cu344  O365    1.963   .     S
Cu344  O369    1.942   .     S
Cu344  O364    1.966   .     S
Cu344  O368    1.959   .     S
Cu344  N362    2.019   .     S
Cu344  Cu219   2.687   1_655 S
H349   C210    1.082   1_655 S
O365   C187    1.293   1_655 S
O368   C204    1.301   1_655 S
C373   C384    1.450   .     S
C373   O425    1.295   .     A
C373   O551    1.293   1_455 S
C374   C383    1.450   .     S
C374   O426    1.295   .     A
C374   O490    1.293   .     S
C375   H415    1.075   .     S
C375   C404    1.418   .     A
C375   C377    1.385   .     A
C376   H416    1.075   .     S
C376   C378    1.385   .     A
C376   C403    1.418   .     A
C377   H407    1.084   .     S
C377   C959    1.389   1_554 S
C378   H408    1.084   .     S
C378   C960    1.389   .     S
C379   H417    1.083   .     S
C379   C446    1.402   .     S
C380   H418    1.083   .     S
C380   C10     1.384   1_565 S
C380   C507    1.402   1_455 S
C381   H419    1.083   .     S
C381   C383    1.400   .     A
C381   C7      1.384   1_565 S
C382   H420    1.083   .     S
C382   C384    1.400   .     A
C383   C442    1.402   .     S
C384   C503    1.402   1_455 S
C385   N424    1.361   .     A
C385   H421    1.082   .     S
C385   C387    1.415   .     A
C386   C388    1.415   .     A
C386   H422    1.082   .     S
C386   N423    1.361   .     A
C387   N423    1.378   .     A
C387   Cl433   1.754   .     S
C388   Cl434   1.754   .     S
C388   N424    1.378   .     A
C389   O431    1.296   .     A
C389   C391    1.468   .     S
C389   O491    1.301   .     S
C390   C392    1.468   .     S
C390   O432    1.296   .     A
C390   O554    1.301   1_455 S
C391   C395    1.398   .     A
C391   C397    1.400   .     A
C392   C396    1.398   .     A
C392   C398    1.400   .     A
C393   C401    1.404   .     A
C393   H413    1.083   .     S
C393   C395    1.391   .     A
C394   H414    1.083   .     S
C394   C396    1.391   .     A
C394   C402    1.404   .     A
C395   H474    1.082   .     S
C396   H535    1.082   1_455 S
C397   H410    1.073   .     S
C397   C399    1.407   .     A
C398   H409    1.073   .     S
C398   C400    1.407   .     A
C399   C401    1.418   .     A
C399   C403    1.430   .     A
C400   C402    1.418   .     A
C400   C404    1.430   .     A
C401   C935    1.389   .     S
C402   C936    1.389   1_554 S
C403   C962    1.427   .     S
C404   C961    1.427   1_554 S
Cu405  N423    2.019   .     S
Cu405  O429    1.959   .     S
Cu405  O428    1.963   .     S
Cu405  O425    1.966   .     S
Cu405  O432    1.942   .     S
Cu405  Cu530   2.687   1_455 S
Cu406  O427    1.963   .     S
Cu406  O431    1.942   .     S
Cu406  O426    1.966   .     S
Cu406  O430    1.959   .     S
Cu406  N424    2.019   .     S
Cu406  Cu467   2.687   .     S
H411   C458    1.082   .     S
H412   C519    1.082   1_455 S
O427   C435    1.293   .     S
O428   C498    1.293   1_455 S
O429   C513    1.301   1_455 S
O430   C452    1.301   .     S
C435   C446    1.450   .     S
C435   O487    1.295   .     A
C436   C445    1.450   .     S
C436   O488    1.295   .     A
C436   O552    1.293   .     S
C437   H477    1.075   .     S
C437   C466    1.418   .     A
C437   C439    1.385   .     A
C438   H478    1.075   .     S
C438   C440    1.385   .     A
C438   C465    1.418   .     A
C439   H469    1.084   .     S
C439   C1021   1.389   1_554 S
C440   H470    1.084   .     S
C440   C1022   1.389   .     S
C441   H479    1.083   .     S
C441   C508    1.402   .     S
C442   H480    1.083   .     S
C442   C72     1.384   1_565 S
C443   H481    1.083   .     S
C443   C445    1.400   .     A
C443   C69     1.384   1_565 S
C444   H482    1.083   .     S
C444   C446    1.400   .     A
C445   C504    1.402   .     S
C447   N486    1.361   .     A
C447   H483    1.082   .     S
C447   C449    1.415   .     A
C448   C450    1.415   .     A
C448   H484    1.082   .     S
C448   N485    1.361   .     A
C449   N485    1.378   .     A
C449   Cl495   1.754   .     S
C450   Cl496   1.754   .     S
C450   N486    1.378   .     A
C451   O493    1.296   .     A
C451   C453    1.468   .     S
C451   O553    1.301   .     S
C452   C454    1.468   .     S
C452   O494    1.296   .     A
C453   C457    1.398   .     A
C453   C459    1.400   .     A
C454   C458    1.398   .     A
C454   C460    1.400   .     A
C455   C463    1.404   .     A
C455   H475    1.083   .     S
C455   C457    1.391   .     A
C456   H476    1.083   .     S
C456   C458    1.391   .     A
C456   C464    1.404   .     A
C457   H536    1.082   .     S
C459   H472    1.073   .     S
C459   C461    1.407   .     A
C460   H471    1.073   .     S
C460   C462    1.407   .     A
C461   C463    1.418   .     A
C461   C465    1.430   .     A
C462   C464    1.418   .     A
C462   C466    1.430   .     A
C463   C997    1.389   .     S
C464   C998    1.389   1_554 S
C465   C1024   1.427   .     S
C466   C1023   1.427   1_554 S
Cu467  N485    2.019   .     S
Cu467  O491    1.959   .     S
Cu467  O490    1.963   .     S
Cu467  O487    1.966   .     S
Cu467  O494    1.942   .     S
Cu468  O489    1.963   .     S
Cu468  O493    1.942   .     S
Cu468  O488    1.966   .     S
Cu468  O492    1.959   .     S
Cu468  N486    2.019   .     S
Cu468  Cu529   2.687   .     S
H473   C520    1.082   .     S
O489   C497    1.293   .     S
O492   C514    1.301   .     S
C497   C508    1.450   .     S
C497   O549    1.295   .     A
C498   C507    1.450   .     S
C498   O550    1.295   .     A
C498   O428    1.293   1_655 S
C499   H539    1.075   .     S
C499   C528    1.418   .     A
C499   C501    1.385   .     A
C500   H540    1.075   .     S
C500   C502    1.385   .     A
C500   C527    1.418   .     A
C501   H531    1.084   .     S
C501   C1083   1.389   1_554 S
C502   H532    1.084   .     S
C502   C1084   1.389   .     S
C503   H541    1.083   .     S
C503   C384    1.402   1_655 S
C504   H542    1.083   .     S
C504   C134    1.384   1_565 S
C505   H543    1.083   .     S
C505   C507    1.400   .     A
C505   C131    1.384   1_565 S
C506   H544    1.083   .     S
C506   C508    1.400   .     A
C507   C380    1.402   1_655 S
C509   N548    1.361   .     A
C509   H545    1.082   .     S
C509   C511    1.415   .     A
C510   C512    1.415   .     A
C510   H546    1.082   .     S
C510   N547    1.361   .     A
C511   N547    1.378   .     A
C511   Cl557   1.754   .     S
C512   Cl558   1.754   .     S
C512   N548    1.378   .     A
C513   O555    1.296   .     A
C513   C515    1.468   .     S
C513   O429    1.301   1_655 S
C514   C516    1.468   .     S
C514   O556    1.296   .     A
C515   C519    1.398   .     A
C515   C521    1.400   .     A
C516   C520    1.398   .     A
C516   C522    1.400   .     A
C517   C525    1.404   .     A
C517   H537    1.083   .     S
C517   C519    1.391   .     A
C518   H538    1.083   .     S
C518   C520    1.391   .     A
C518   C526    1.404   .     A
C519   H412    1.082   1_655 S
C521   H534    1.073   .     S
C521   C523    1.407   .     A
C522   H533    1.073   .     S
C522   C524    1.407   .     A
C523   C525    1.418   .     A
C523   C527    1.430   .     A
C524   C526    1.418   .     A
C524   C528    1.430   .     A
C525   C1059   1.389   .     S
C526   C1060   1.389   1_554 S
C527   C1086   1.427   .     S
C528   C1085   1.427   1_554 S
Cu529  N547    2.019   .     S
Cu529  O553    1.959   .     S
Cu529  O552    1.963   .     S
Cu529  O549    1.966   .     S
Cu529  O556    1.942   .     S
Cu530  O551    1.963   .     S
Cu530  O555    1.942   .     S
Cu530  O550    1.966   .     S
Cu530  O554    1.959   .     S
Cu530  N548    2.019   .     S
Cu530  Cu405   2.687   1_655 S
H535   C396    1.082   1_655 S
O551   C373    1.293   1_655 S
O554   C390    1.301   1_655 S
C559   C570    1.450   .     S
C559   O611    1.295   .     A
C559   O737    1.293   1_455 S
C560   C569    1.450   .     S
C560   O612    1.295   .     A
C560   O676    1.293   .     S
C561   H601    1.075   .     S
C561   C590    1.418   .     A
C561   C563    1.385   .     A
C562   H602    1.075   .     S
C562   C564    1.385   .     A
C562   C589    1.418   .     A
C563   H593    1.084   .     S
C564   H594    1.084   .     S
C564   C30     1.389   1_556 S
C565   H603    1.083   .     S
C565   C939    1.384   1_545 S
C565   C632    1.402   .     S
C566   H604    1.083   .     S
C566   C754    1.384   .     S
C566   C693    1.402   1_455 S
C567   H605    1.083   .     S
C567   C569    1.400   .     A
C567   C751    1.384   .     S
C568   H606    1.083   .     S
C568   C570    1.400   .     A
C568   C938    1.384   1_545 S
C569   C628    1.402   .     S
C570   C689    1.402   1_455 S
C571   N610    1.361   .     A
C571   H607    1.082   .     S
C571   C573    1.415   .     A
C572   C574    1.415   .     A
C572   H608    1.082   .     S
C572   N609    1.361   .     A
C573   N609    1.378   .     A
C573   Cl619   1.754   .     S
C574   Cl620   1.754   .     S
C574   N610    1.378   .     A
C575   O617    1.296   .     A
C575   C577    1.468   .     S
C575   O677    1.301   .     S
C576   C578    1.468   .     S
C576   O618    1.296   .     A
C576   O740    1.301   1_455 S
C577   C581    1.398   .     A
C577   C583    1.400   .     A
C578   C582    1.398   .     A
C578   C584    1.400   .     A
C579   C587    1.404   .     A
C579   H599    1.083   .     S
C579   C581    1.391   .     A
C580   H600    1.083   .     S
C580   C582    1.391   .     A
C580   C588    1.404   .     A
C581   H660    1.082   .     S
C582   H721    1.082   1_455 S
C583   H596    1.073   .     S
C583   C585    1.407   .     A
C584   H595    1.073   .     S
C584   C586    1.407   .     A
C585   C587    1.418   .     A
C585   C589    1.430   .     A
C586   C588    1.418   .     A
C586   C590    1.430   .     A
C587   C5      1.389   1_556 S
C589   C32     1.427   1_556 S
Cu591  N609    2.019   .     S
Cu591  O615    1.959   .     S
Cu591  O614    1.963   .     S
Cu591  O611    1.966   .     S
Cu591  O618    1.942   .     S
Cu591  Cu716   2.687   1_455 S
Cu592  O613    1.963   .     S
Cu592  O617    1.942   .     S
Cu592  O612    1.966   .     S
Cu592  O616    1.959   .     S
Cu592  N610    2.019   .     S
Cu592  Cu653   2.687   .     S
H597   C644    1.082   .     S
H598   C705    1.082   1_455 S
O613   C621    1.293   .     S
O614   C684    1.293   1_455 S
O615   C699    1.301   1_455 S
O616   C638    1.301   .     S
C621   C632    1.450   .     S
C621   O673    1.295   .     A
C622   C631    1.450   .     S
C622   O674    1.295   .     A
C622   O738    1.293   .     S
C623   H663    1.075   .     S
C623   C652    1.418   .     A
C623   C625    1.385   .     A
C624   H664    1.075   .     S
C624   C626    1.385   .     A
C624   C651    1.418   .     A
C625   H655    1.084   .     S
C626   H656    1.084   .     S
C626   C92     1.389   1_556 S
C627   H665    1.083   .     S
C627   C1001   1.384   1_545 S
C627   C694    1.402   .     S
C628   H666    1.083   .     S
C628   C816    1.384   .     S
C629   H667    1.083   .     S
C629   C631    1.400   .     A
C629   C813    1.384   .     S
C630   H668    1.083   .     S
C630   C632    1.400   .     A
C630   C1000   1.384   1_545 S
C631   C690    1.402   .     S
C633   N672    1.361   .     A
C633   H669    1.082   .     S
C633   C635    1.415   .     A
C634   C636    1.415   .     A
C634   H670    1.082   .     S
C634   N671    1.361   .     A
C635   N671    1.378   .     A
C635   Cl681   1.754   .     S
C636   Cl682   1.754   .     S
C636   N672    1.378   .     A
C637   O679    1.296   .     A
C637   C639    1.468   .     S
C637   O739    1.301   .     S
C638   C640    1.468   .     S
C638   O680    1.296   .     A
C639   C643    1.398   .     A
C639   C645    1.400   .     A
C640   C644    1.398   .     A
C640   C646    1.400   .     A
C641   C649    1.404   .     A
C641   H661    1.083   .     S
C641   C643    1.391   .     A
C642   H662    1.083   .     S
C642   C644    1.391   .     A
C642   C650    1.404   .     A
C643   H722    1.082   .     S
C645   H658    1.073   .     S
C645   C647    1.407   .     A
C646   H657    1.073   .     S
C646   C648    1.407   .     A
C647   C649    1.418   .     A
C647   C651    1.430   .     A
C648   C650    1.418   .     A
C648   C652    1.430   .     A
C649   C67     1.389   1_556 S
C651   C94     1.427   1_556 S
Cu653  N671    2.019   .     S
Cu653  O677    1.959   .     S
Cu653  O676    1.963   .     S
Cu653  O673    1.966   .     S
Cu653  O680    1.942   .     S
Cu654  O675    1.963   .     S
Cu654  O679    1.942   .     S
Cu654  O674    1.966   .     S
Cu654  O678    1.959   .     S
Cu654  N672    2.019   .     S
Cu654  Cu715   2.687   .     S
H659   C706    1.082   .     S
O675   C683    1.293   .     S
O678   C700    1.301   .     S
C683   C694    1.450   .     S
C683   O735    1.295   .     A
C684   C693    1.450   .     S
C684   O736    1.295   .     A
C684   O614    1.293   1_655 S
C685   H725    1.075   .     S
C685   C714    1.418   .     A
C685   C687    1.385   .     A
C686   H726    1.075   .     S
C686   C688    1.385   .     A
C686   C713    1.418   .     A
C687   H717    1.084   .     S
C688   H718    1.084   .     S
C688   C154    1.389   1_556 S
C689   H727    1.083   .     S
C689   C1063   1.384   1_545 S
C689   C570    1.402   1_655 S
C690   H728    1.083   .     S
C690   C878    1.384   .     S
C691   H729    1.083   .     S
C691   C693    1.400   .     A
C691   C875    1.384   .     S
C692   H730    1.083   .     S
C692   C694    1.400   .     A
C692   C1062   1.384   1_545 S
C693   C566    1.402   1_655 S
C695   N734    1.361   .     A
C695   H731    1.082   .     S
C695   C697    1.415   .     A
C696   C698    1.415   .     A
C696   H732    1.082   .     S
C696   N733    1.361   .     A
C697   N733    1.378   .     A
C697   Cl743   1.754   .     S
C698   Cl744   1.754   .     S
C698   N734    1.378   .     A
C699   O741    1.296   .     A
C699   C701    1.468   .     S
C699   O615    1.301   1_655 S
C700   C702    1.468   .     S
C700   O742    1.296   .     A
C701   C705    1.398   .     A
C701   C707    1.400   .     A
C702   C706    1.398   .     A
C702   C708    1.400   .     A
C703   C711    1.404   .     A
C703   H723    1.083   .     S
C703   C705    1.391   .     A
C704   H724    1.083   .     S
C704   C706    1.391   .     A
C704   C712    1.404   .     A
C705   H598    1.082   1_655 S
C707   H720    1.073   .     S
C707   C709    1.407   .     A
C708   H719    1.073   .     S
C708   C710    1.407   .     A
C709   C711    1.418   .     A
C709   C713    1.430   .     A
C710   C712    1.418   .     A
C710   C714    1.430   .     A
C711   C129    1.389   1_556 S
C713   C156    1.427   1_556 S
Cu715  N733    2.019   .     S
Cu715  O739    1.959   .     S
Cu715  O738    1.963   .     S
Cu715  O735    1.966   .     S
Cu715  O742    1.942   .     S
Cu716  O737    1.963   .     S
Cu716  O741    1.942   .     S
Cu716  O736    1.966   .     S
Cu716  O740    1.959   .     S
Cu716  N734    2.019   .     S
Cu716  Cu591   2.687   1_655 S
H721   C582    1.082   1_655 S
O737   C559    1.293   1_655 S
O740   C576    1.301   1_655 S
C745   C756    1.450   .     S
C745   O797    1.295   .     A
C745   O923    1.293   1_455 S
C746   C755    1.450   .     S
C746   O798    1.295   .     A
C746   O862    1.293   .     S
C747   H787    1.075   .     S
C747   C776    1.418   .     A
C747   C749    1.385   .     A
C748   H788    1.075   .     S
C748   C750    1.385   .     A
C748   C775    1.418   .     A
C749   H779    1.084   .     S
C750   H780    1.084   .     S
C750   C216    1.389   1_556 S
C751   H789    1.083   .     S
C751   C818    1.402   .     S
C752   H790    1.083   .     S
C752   C940    1.384   .     S
C752   C879    1.402   1_455 S
C753   H791    1.083   .     S
C753   C755    1.400   .     A
C753   C937    1.384   .     S
C754   H792    1.083   .     S
C754   C756    1.400   .     A
C755   C814    1.402   .     S
C756   C875    1.402   1_455 S
C757   N796    1.361   .     A
C757   H793    1.082   .     S
C757   C759    1.415   .     A
C758   C760    1.415   .     A
C758   H794    1.082   .     S
C758   N795    1.361   .     A
C759   N795    1.378   .     A
C759   Cl805   1.754   .     S
C760   Cl806   1.754   .     S
C760   N796    1.378   .     A
C761   O803    1.296   .     A
C761   C763    1.468   .     S
C761   O863    1.301   .     S
C762   C764    1.468   .     S
C762   O804    1.296   .     A
C762   O926    1.301   1_455 S
C763   C767    1.398   .     A
C763   C769    1.400   .     A
C764   C768    1.398   .     A
C764   C770    1.400   .     A
C765   C773    1.404   .     A
C765   H785    1.083   .     S
C765   C767    1.391   .     A
C766   H786    1.083   .     S
C766   C768    1.391   .     A
C766   C774    1.404   .     A
C767   H846    1.082   .     S
C768   H907    1.082   1_455 S
C769   H782    1.073   .     S
C769   C771    1.407   .     A
C770   H781    1.073   .     S
C770   C772    1.407   .     A
C771   C773    1.418   .     A
C771   C775    1.430   .     A
C772   C774    1.418   .     A
C772   C776    1.430   .     A
C773   C191    1.389   1_556 S
C775   C218    1.427   1_556 S
Cu777  N795    2.019   .     S
Cu777  O801    1.959   .     S
Cu777  O800    1.963   .     S
Cu777  O797    1.966   .     S
Cu777  O804    1.942   .     S
Cu777  Cu902   2.687   1_455 S
Cu778  O799    1.963   .     S
Cu778  O803    1.942   .     S
Cu778  O798    1.966   .     S
Cu778  O802    1.959   .     S
Cu778  N796    2.019   .     S
Cu778  Cu839   2.687   .     S
H783   C830    1.082   .     S
H784   C891    1.082   1_455 S
O799   C807    1.293   .     S
O800   C870    1.293   1_455 S
O801   C885    1.301   1_455 S
O802   C824    1.301   .     S
C807   C818    1.450   .     S
C807   O859    1.295   .     A
C808   C817    1.450   .     S
C808   O860    1.295   .     A
C808   O924    1.293   .     S
C809   H849    1.075   .     S
C809   C838    1.418   .     A
C809   C811    1.385   .     A
C810   H850    1.075   .     S
C810   C812    1.385   .     A
C810   C837    1.418   .     A
C811   H841    1.084   .     S
C812   H842    1.084   .     S
C812   C278    1.389   1_556 S
C813   H851    1.083   .     S
C813   C880    1.402   .     S
C814   H852    1.083   .     S
C814   C1002   1.384   .     S
C815   H853    1.083   .     S
C815   C817    1.400   .     A
C815   C999    1.384   .     S
C816   H854    1.083   .     S
C816   C818    1.400   .     A
C817   C876    1.402   .     S
C819   N858    1.361   .     A
C819   H855    1.082   .     S
C819   C821    1.415   .     A
C820   C822    1.415   .     A
C820   H856    1.082   .     S
C820   N857    1.361   .     A
C821   N857    1.378   .     A
C821   Cl867   1.754   .     S
C822   Cl868   1.754   .     S
C822   N858    1.378   .     A
C823   O865    1.296   .     A
C823   C825    1.468   .     S
C823   O925    1.301   .     S
C824   C826    1.468   .     S
C824   O866    1.296   .     A
C825   C829    1.398   .     A
C825   C831    1.400   .     A
C826   C830    1.398   .     A
C826   C832    1.400   .     A
C827   C835    1.404   .     A
C827   H847    1.083   .     S
C827   C829    1.391   .     A
C828   H848    1.083   .     S
C828   C830    1.391   .     A
C828   C836    1.404   .     A
C829   H908    1.082   .     S
C831   H844    1.073   .     S
C831   C833    1.407   .     A
C832   H843    1.073   .     S
C832   C834    1.407   .     A
C833   C835    1.418   .     A
C833   C837    1.430   .     A
C834   C836    1.418   .     A
C834   C838    1.430   .     A
C835   C253    1.389   1_556 S
C837   C280    1.427   1_556 S
Cu839  N857    2.019   .     S
Cu839  O863    1.959   .     S
Cu839  O862    1.963   .     S
Cu839  O859    1.966   .     S
Cu839  O866    1.942   .     S
Cu840  O861    1.963   .     S
Cu840  O865    1.942   .     S
Cu840  O860    1.966   .     S
Cu840  O864    1.959   .     S
Cu840  N858    2.019   .     S
Cu840  Cu901   2.687   .     S
H845   C892    1.082   .     S
O861   C869    1.293   .     S
O864   C886    1.301   .     S
C869   C880    1.450   .     S
C869   O921    1.295   .     A
C870   C879    1.450   .     S
C870   O922    1.295   .     A
C870   O800    1.293   1_655 S
C871   H911    1.075   .     S
C871   C900    1.418   .     A
C871   C873    1.385   .     A
C872   H912    1.075   .     S
C872   C874    1.385   .     A
C872   C899    1.418   .     A
C873   H903    1.084   .     S
C874   H904    1.084   .     S
C874   C340    1.389   1_556 S
C875   H913    1.083   .     S
C875   C756    1.402   1_655 S
C876   H914    1.083   .     S
C876   C1064   1.384   .     S
C877   H915    1.083   .     S
C877   C879    1.400   .     A
C877   C1061   1.384   .     S
C878   H916    1.083   .     S
C878   C880    1.400   .     A
C879   C752    1.402   1_655 S
C881   N920    1.361   .     A
C881   H917    1.082   .     S
C881   C883    1.415   .     A
C882   C884    1.415   .     A
C882   H918    1.082   .     S
C882   N919    1.361   .     A
C883   N919    1.378   .     A
C883   Cl929   1.754   .     S
C884   Cl930   1.754   .     S
C884   N920    1.378   .     A
C885   O927    1.296   .     A
C885   C887    1.468   .     S
C885   O801    1.301   1_655 S
C886   C888    1.468   .     S
C886   O928    1.296   .     A
C887   C891    1.398   .     A
C887   C893    1.400   .     A
C888   C892    1.398   .     A
C888   C894    1.400   .     A
C889   C897    1.404   .     A
C889   H909    1.083   .     S
C889   C891    1.391   .     A
C890   H910    1.083   .     S
C890   C892    1.391   .     A
C890   C898    1.404   .     A
C891   H784    1.082   1_655 S
C893   H906    1.073   .     S
C893   C895    1.407   .     A
C894   H905    1.073   .     S
C894   C896    1.407   .     A
C895   C897    1.418   .     A
C895   C899    1.430   .     A
C896   C898    1.418   .     A
C896   C900    1.430   .     A
C897   C315    1.389   1_556 S
C899   C342    1.427   1_556 S
Cu901  N919    2.019   .     S
Cu901  O925    1.959   .     S
Cu901  O924    1.963   .     S
Cu901  O921    1.966   .     S
Cu901  O928    1.942   .     S
Cu902  O923    1.963   .     S
Cu902  O927    1.942   .     S
Cu902  O922    1.966   .     S
Cu902  O926    1.959   .     S
Cu902  N920    2.019   .     S
Cu902  Cu777   2.687   1_655 S
H907   C768    1.082   1_655 S
O923   C745    1.293   1_655 S
O926   C762    1.301   1_655 S
C931   C942    1.450   .     S
C931   O983    1.295   .     A
C931   O1109   1.293   1_455 S
C932   C941    1.450   .     S
C932   O984    1.295   .     A
C932   O1048   1.293   .     S
C933   H973    1.075   .     S
C933   C962    1.418   .     A
C933   C935    1.385   .     A
C934   H974    1.075   .     S
C934   C936    1.385   .     A
C934   C961    1.418   .     A
C935   H965    1.084   .     S
C936   H966    1.084   .     S
C936   C402    1.389   1_556 S
C937   H975    1.083   .     S
C937   C1004   1.402   .     S
C938   H976    1.083   .     S
C938   C568    1.384   1_565 S
C938   C1065   1.402   1_455 S
C939   H977    1.083   .     S
C939   C941    1.400   .     A
C939   C565    1.384   1_565 S
C940   H978    1.083   .     S
C940   C942    1.400   .     A
C941   C1000   1.402   .     S
C942   C1061   1.402   1_455 S
C943   N982    1.361   .     A
C943   H979    1.082   .     S
C943   C945    1.415   .     A
C944   C946    1.415   .     A
C944   H980    1.082   .     S
C944   N981    1.361   .     A
C945   N981    1.378   .     A
C945   Cl991   1.754   .     S
C946   Cl992   1.754   .     S
C946   N982    1.378   .     A
C947   O989    1.296   .     A
C947   C949    1.468   .     S
C947   O1049   1.301   .     S
C948   C950    1.468   .     S
C948   O990    1.296   .     A
C948   O1112   1.301   1_455 S
C949   C953    1.398   .     A
C949   C955    1.400   .     A
C950   C954    1.398   .     A
C950   C956    1.400   .     A
C951   C959    1.404   .     A
C951   H971    1.083   .     S
C951   C953    1.391   .     A
C952   H972    1.083   .     S
C952   C954    1.391   .     A
C952   C960    1.404   .     A
C953   H1032   1.082   .     S
C954   H1093   1.082   1_455 S
C955   H968    1.073   .     S
C955   C957    1.407   .     A
C956   H967    1.073   .     S
C956   C958    1.407   .     A
C957   C959    1.418   .     A
C957   C961    1.430   .     A
C958   C960    1.418   .     A
C958   C962    1.430   .     A
C959   C377    1.389   1_556 S
C961   C404    1.427   1_556 S
Cu963  N981    2.019   .     S
Cu963  O987    1.959   .     S
Cu963  O986    1.963   .     S
Cu963  O983    1.966   .     S
Cu963  O990    1.942   .     S
Cu963  Cu1088  2.687   1_455 S
Cu964  O985    1.963   .     S
Cu964  O989    1.942   .     S
Cu964  O984    1.966   .     S
Cu964  O988    1.959   .     S
Cu964  N982    2.019   .     S
Cu964  Cu1025  2.687   .     S
H969   C1016   1.082   .     S
H970   C1077   1.082   1_455 S
O985   C993    1.293   .     S
O986   C1056   1.293   1_455 S
O987   C1071   1.301   1_455 S
O988   C1010   1.301   .     S
C993   C1004   1.450   .     S
C993   O1045   1.295   .     A
C994   C1003   1.450   .     S
C994   O1046   1.295   .     A
C994   O1110   1.293   .     S
C995   H1035   1.075   .     S
C995   C1024   1.418   .     A
C995   C997    1.385   .     A
C996   H1036   1.075   .     S
C996   C998    1.385   .     A
C996   C1023   1.418   .     A
C997   H1027   1.084   .     S
C998   H1028   1.084   .     S
C998   C464    1.389   1_556 S
C999   H1037   1.083   .     S
C999   C1066   1.402   .     S
C1000  H1038   1.083   .     S
C1000  C630    1.384   1_565 S
C1001  H1039   1.083   .     S
C1001  C1003   1.400   .     A
C1001  C627    1.384   1_565 S
C1002  H1040   1.083   .     S
C1002  C1004   1.400   .     A
C1003  C1062   1.402   .     S
C1005  N1044   1.361   .     A
C1005  H1041   1.082   .     S
C1005  C1007   1.415   .     A
C1006  C1008   1.415   .     A
C1006  H1042   1.082   .     S
C1006  N1043   1.361   .     A
C1007  N1043   1.378   .     A
C1007  Cl1053  1.754   .     S
C1008  Cl1054  1.754   .     S
C1008  N1044   1.378   .     A
C1009  O1051   1.296   .     A
C1009  C1011   1.468   .     S
C1009  O1111   1.301   .     S
C1010  C1012   1.468   .     S
C1010  O1052   1.296   .     A
C1011  C1015   1.398   .     A
C1011  C1017   1.400   .     A
C1012  C1016   1.398   .     A
C1012  C1018   1.400   .     A
C1013  C1021   1.404   .     A
C1013  H1033   1.083   .     S
C1013  C1015   1.391   .     A
C1014  H1034   1.083   .     S
C1014  C1016   1.391   .     A
C1014  C1022   1.404   .     A
C1015  H1094   1.082   .     S
C1017  H1030   1.073   .     S
C1017  C1019   1.407   .     A
C1018  H1029   1.073   .     S
C1018  C1020   1.407   .     A
C1019  C1021   1.418   .     A
C1019  C1023   1.430   .     A
C1020  C1022   1.418   .     A
C1020  C1024   1.430   .     A
C1021  C439    1.389   1_556 S
C1023  C466    1.427   1_556 S
Cu1025 N1043   2.019   .     S
Cu1025 O1049   1.959   .     S
Cu1025 O1048   1.963   .     S
Cu1025 O1045   1.966   .     S
Cu1025 O1052   1.942   .     S
Cu1026 O1047   1.963   .     S
Cu1026 O1051   1.942   .     S
Cu1026 O1046   1.966   .     S
Cu1026 O1050   1.959   .     S
Cu1026 N1044   2.019   .     S
Cu1026 Cu1087  2.687   .     S
H1031  C1078   1.082   .     S
O1047  C1055   1.293   .     S
O1050  C1072   1.301   .     S
C1055  C1066   1.450   .     S
C1055  O1107   1.295   .     A
C1056  C1065   1.450   .     S
C1056  O1108   1.295   .     A
C1056  O986    1.293   1_655 S
C1057  H1097   1.075   .     S
C1057  C1086   1.418   .     A
C1057  C1059   1.385   .     A
C1058  H1098   1.075   .     S
C1058  C1060   1.385   .     A
C1058  C1085   1.418   .     A
C1059  H1089   1.084   .     S
C1060  H1090   1.084   .     S
C1060  C526    1.389   1_556 S
C1061  H1099   1.083   .     S
C1061  C942    1.402   1_655 S
C1062  H1100   1.083   .     S
C1062  C692    1.384   1_565 S
C1063  H1101   1.083   .     S
C1063  C1065   1.400   .     A
C1063  C689    1.384   1_565 S
C1064  H1102   1.083   .     S
C1064  C1066   1.400   .     A
C1065  C938    1.402   1_655 S
C1067  N1106   1.361   .     A
C1067  H1103   1.082   .     S
C1067  C1069   1.415   .     A
C1068  C1070   1.415   .     A
C1068  H1104   1.082   .     S
C1068  N1105   1.361   .     A
C1069  N1105   1.378   .     A
C1069  Cl1115  1.754   .     S
C1070  Cl1116  1.754   .     S
C1070  N1106   1.378   .     A
C1071  O1113   1.296   .     A
C1071  C1073   1.468   .     S
C1071  O987    1.301   1_655 S
C1072  C1074   1.468   .     S
C1072  O1114   1.296   .     A
C1073  C1077   1.398   .     A
C1073  C1079   1.400   .     A
C1074  C1078   1.398   .     A
C1074  C1080   1.400   .     A
C1075  C1083   1.404   .     A
C1075  H1095   1.083   .     S
C1075  C1077   1.391   .     A
C1076  H1096   1.083   .     S
C1076  C1078   1.391   .     A
C1076  C1084   1.404   .     A
C1077  H970    1.082   1_655 S
C1079  H1092   1.073   .     S
C1079  C1081   1.407   .     A
C1080  H1091   1.073   .     S
C1080  C1082   1.407   .     A
C1081  C1083   1.418   .     A
C1081  C1085   1.430   .     A
C1082  C1084   1.418   .     A
C1082  C1086   1.430   .     A
C1083  C501    1.389   1_556 S
C1085  C528    1.427   1_556 S
Cu1087 N1105   2.019   .     S
Cu1087 O1111   1.959   .     S
Cu1087 O1110   1.963   .     S
Cu1087 O1107   1.966   .     S
Cu1087 O1114   1.942   .     S
Cu1088 O1109   1.963   .     S
Cu1088 O1113   1.942   .     S
Cu1088 O1108   1.966   .     S
Cu1088 O1112   1.959   .     S
Cu1088 N1106   2.019   .     S
Cu1088 Cu963   2.687   1_655 S
H1093  C954    1.082   1_655 S
O1109  C931    1.293   1_655 S
O1112  C948    1.301   1_655 S
