data_str_m3_o2_o10_pcu_sym.47
_audit_creation_date              2020-01-03
_audit_creation_method            'Materials Studio'
_symmetry_space_group_name_H-M    'P1'
_symmetry_Int_Tables_number       1
_symmetry_cell_setting            triclinic
loop_
_symmetry_equiv_pos_as_xyz
  x,y,z
_cell_length_a                    25.9191
_cell_length_b                    29.9414
_cell_length_c                    28.3227
_cell_angle_alpha                 89.7778
_cell_angle_beta                  98.6545
_cell_angle_gamma                 90.1011
loop_
_atom_site_label
_atom_site_type_symbol
_atom_site_fract_x
_atom_site_fract_y
_atom_site_fract_z
_atom_site_U_iso_or_equiv
_atom_site_adp_type
_atom_site_occupancy
C1     C     0.16639   0.16381   0.25008   0.00000  Uiso   1.00
C2     C     0.15690   0.21070   0.44628   0.00000  Uiso   1.00
C3     C     0.16637   0.25010   0.02671   0.00000  Uiso   1.00
C4     C     0.16634   0.25008   0.47335   0.00000  Uiso   1.00
C5     C     0.06700   0.24954   0.23759   0.00000  Uiso   1.00
C6     C     0.26629   0.24993   0.26247   0.00000  Uiso   1.00
C7     C     0.01225   0.24323   0.23184   0.00000  Uiso   1.00
C8     C     0.32107   0.25516   0.26866   0.00000  Uiso   1.00
C9     C     0.17728   0.04528   0.29016   0.00000  Uiso   1.00
C10    C     0.17733   0.45476   0.21283   0.00000  Uiso   1.00
C11    C     0.18205   0.09122   0.29084   0.00000  Uiso   1.00
C12    C     0.16642   0.33619   0.24986   0.00000  Uiso   1.00
C13    C     0.18212   0.40883   0.21345   0.00000  Uiso   1.00
C14    C     0.16263   0.11587   0.24984   0.00000  Uiso   1.00
C15    C     0.16270   0.38413   0.24910   0.00000  Uiso   1.00
C16    C     0.13786   0.09454   0.20863   0.00000  Uiso   1.00
C17    C     0.13796   0.40539   0.28352   0.00000  Uiso   1.00
C18    C     0.13279   0.04859   0.20814   0.00000  Uiso   1.00
C19    C     0.13286   0.45133   0.28261   0.00000  Uiso   1.00
C20    C     0.15290   0.02403   0.24886   0.00000  Uiso   1.00
C21    C     0.15293   0.47594   0.24741   0.00000  Uiso   1.00
C22    C     0.32072   0.23475   0.15063   0.00000  Uiso   1.00
C23    C     0.13476   0.22033   0.04845   0.00000  Uiso   1.00
C24    C     0.01658   0.25903   0.34938   0.00000  Uiso   1.00
C25    C     0.17580   0.28944   0.44856   0.00000  Uiso   1.00
C26    C     0.13567   0.22072   0.09820   0.00000  Uiso   1.00
C27    C     0.17601   0.28864   0.39897   0.00000  Uiso   1.00
C28    C     0.19728   0.27949   0.10636   0.00000  Uiso   1.00
C29    C     0.15701   0.21144   0.39667   0.00000  Uiso   1.00
C30    C     0.19802   0.27990   0.05684   0.00000  Uiso   1.00
F31    F     0.20698   0.11128   0.33083   0.00000  Uiso   1.00
F32    F     0.20703   0.38883   0.18031   0.00000  Uiso   1.00
F33    F     0.10852   0.02807   0.16817   0.00000  Uiso   1.00
F34    F     0.10858   0.47178   0.31591   0.00000  Uiso   1.00
H35    H     0.19383   0.02613   0.32132   0.00000  Uiso   1.00
H36    H     0.14944   0.18091   0.37658   0.00000  Uiso   1.00
H37    H     0.22386   0.30304   0.04256   0.00000  Uiso   1.00
H38    H     0.15019   0.17922   0.46323   0.00000  Uiso   1.00
H39    H     0.02286   0.22587   0.13519   0.00000  Uiso   1.00
H40    H     0.31573   0.27172   0.15105   0.00000  Uiso   1.00
H41    H     0.28695   0.22085   0.12642   0.00000  Uiso   1.00
H42    H     0.02643   0.22305   0.34590   0.00000  Uiso   1.00
H43    H     0.31413   0.26247   0.36619   0.00000  Uiso   1.00
H44    H     0.04906   0.27429   0.37408   0.00000  Uiso   1.00
H45    H     0.19386   0.47396   0.18623   0.00000  Uiso   1.00
H46    H     0.12201   0.11344   0.17706   0.00000  Uiso   1.00
H47    H     0.12214   0.38645   0.31072   0.00000  Uiso   1.00
H48    H     0.10884   0.19722   0.02727   0.00000  Uiso   1.00
H49    H     0.18234   0.32096   0.46706   0.00000  Uiso   1.00
H50    H     0.11131   0.19766   0.11443   0.00000  Uiso   1.00
H51    H     0.18350   0.31919   0.38072   0.00000  Uiso   1.00
H52    H     0.22164   0.30259   0.12906   0.00000  Uiso   1.00
N53    N     0.16667   0.24999   0.12624   0.00000  Uiso   1.00
N54    N     0.16667   0.25001   0.37377   0.00000  Uiso   1.00
O55    O     0.16667   0.18454   0.28974   0.00000  Uiso   1.00
O56    O     0.01129   0.28248   0.30549   0.00000  Uiso   1.00
O57    O     0.16666   0.31547   0.21026   0.00000  Uiso   1.00
O58    O     0.16667   0.18453   0.21026   0.00000  Uiso   1.00
O59    O     0.16666   0.31547   0.28974   0.00000  Uiso   1.00
O60    O     0.09058   0.25000   0.28045   0.00000  Uiso   1.00
O61    O     0.24275   0.25000   0.21956   0.00000  Uiso   1.00
O62    O     0.09058   0.25000   0.20097   0.00000  Uiso   1.00
O63    O     0.24275   0.25001   0.29904   0.00000  Uiso   1.00
O64    O     0.32203   0.21474   0.19606   0.00000  Uiso   1.00
Zn65   Zn    0.16667   0.25001   0.30307   0.00000  Uiso   1.00
Zn66   Zn    0.16667   0.25000   0.19693   0.00000  Uiso   1.00
C67    C     0.49972   0.16381   0.25008   0.00000  Uiso   1.00
C68    C     0.49023   0.21070   0.44628   0.00000  Uiso   1.00
C69    C     0.49971   0.25010   0.02671   0.00000  Uiso   1.00
C70    C     0.49967   0.25008   0.47335   0.00000  Uiso   1.00
C71    C     0.40034   0.24954   0.23759   0.00000  Uiso   1.00
C72    C     0.59963   0.24993   0.26247   0.00000  Uiso   1.00
C73    C     0.34558   0.24323   0.23184   0.00000  Uiso   1.00
C74    C     0.65441   0.25516   0.26866   0.00000  Uiso   1.00
C75    C     0.51061   0.04528   0.29016   0.00000  Uiso   1.00
C76    C     0.51066   0.45476   0.21283   0.00000  Uiso   1.00
C77    C     0.51538   0.09122   0.29084   0.00000  Uiso   1.00
C78    C     0.49976   0.33619   0.24986   0.00000  Uiso   1.00
C79    C     0.51545   0.40883   0.21345   0.00000  Uiso   1.00
C80    C     0.49596   0.11587   0.24984   0.00000  Uiso   1.00
C81    C     0.49604   0.38413   0.24910   0.00000  Uiso   1.00
C82    C     0.47120   0.09454   0.20863   0.00000  Uiso   1.00
C83    C     0.47130   0.40539   0.28352   0.00000  Uiso   1.00
C84    C     0.46612   0.04859   0.20814   0.00000  Uiso   1.00
C85    C     0.46619   0.45133   0.28261   0.00000  Uiso   1.00
C86    C     0.48623   0.02403   0.24886   0.00000  Uiso   1.00
C87    C     0.48626   0.47594   0.24741   0.00000  Uiso   1.00
C88    C     0.65405   0.23475   0.15063   0.00000  Uiso   1.00
C89    C     0.46810   0.22033   0.04845   0.00000  Uiso   1.00
C90    C     0.34991   0.25903   0.34938   0.00000  Uiso   1.00
C91    C     0.50914   0.28944   0.44856   0.00000  Uiso   1.00
C92    C     0.46900   0.22072   0.09820   0.00000  Uiso   1.00
C93    C     0.50934   0.28864   0.39897   0.00000  Uiso   1.00
C94    C     0.53061   0.27949   0.10636   0.00000  Uiso   1.00
C95    C     0.49034   0.21144   0.39667   0.00000  Uiso   1.00
C96    C     0.53135   0.27990   0.05684   0.00000  Uiso   1.00
F97    F     0.54031   0.11128   0.33083   0.00000  Uiso   1.00
F98    F     0.54036   0.38883   0.18031   0.00000  Uiso   1.00
F99    F     0.44185   0.02807   0.16817   0.00000  Uiso   1.00
F100   F     0.44192   0.47178   0.31591   0.00000  Uiso   1.00
H101   H     0.52716   0.02613   0.32132   0.00000  Uiso   1.00
H102   H     0.48277   0.18091   0.37658   0.00000  Uiso   1.00
H103   H     0.55719   0.30304   0.04256   0.00000  Uiso   1.00
H104   H     0.48352   0.17922   0.46323   0.00000  Uiso   1.00
H105   H     0.35619   0.22587   0.13519   0.00000  Uiso   1.00
H106   H     0.64906   0.27172   0.15105   0.00000  Uiso   1.00
H107   H     0.62029   0.22085   0.12642   0.00000  Uiso   1.00
H108   H     0.35977   0.22305   0.34590   0.00000  Uiso   1.00
H109   H     0.64746   0.26247   0.36619   0.00000  Uiso   1.00
H110   H     0.38240   0.27429   0.37408   0.00000  Uiso   1.00
H111   H     0.52720   0.47396   0.18623   0.00000  Uiso   1.00
H112   H     0.45534   0.11344   0.17706   0.00000  Uiso   1.00
H113   H     0.45547   0.38645   0.31072   0.00000  Uiso   1.00
H114   H     0.44218   0.19722   0.02727   0.00000  Uiso   1.00
H115   H     0.51567   0.32096   0.46706   0.00000  Uiso   1.00
H116   H     0.44464   0.19766   0.11443   0.00000  Uiso   1.00
H117   H     0.51684   0.31919   0.38072   0.00000  Uiso   1.00
H118   H     0.55497   0.30259   0.12906   0.00000  Uiso   1.00
N119   N     0.50000   0.24999   0.12624   0.00000  Uiso   1.00
N120   N     0.50000   0.25001   0.37377   0.00000  Uiso   1.00
O121   O     0.50000   0.18454   0.28974   0.00000  Uiso   1.00
O122   O     0.34463   0.28248   0.30549   0.00000  Uiso   1.00
O123   O     0.50000   0.31547   0.21026   0.00000  Uiso   1.00
O124   O     0.50000   0.18453   0.21026   0.00000  Uiso   1.00
O125   O     0.50000   0.31547   0.28974   0.00000  Uiso   1.00
O126   O     0.42392   0.25000   0.28045   0.00000  Uiso   1.00
O127   O     0.57608   0.25000   0.21956   0.00000  Uiso   1.00
O128   O     0.42392   0.25000   0.20097   0.00000  Uiso   1.00
O129   O     0.57608   0.25001   0.29904   0.00000  Uiso   1.00
O130   O     0.65537   0.21474   0.19606   0.00000  Uiso   1.00
Zn131  Zn    0.50000   0.25001   0.30307   0.00000  Uiso   1.00
Zn132  Zn    0.50000   0.25000   0.19693   0.00000  Uiso   1.00
C133   C     0.83306   0.16381   0.25008   0.00000  Uiso   1.00
C134   C     0.82357   0.21070   0.44628   0.00000  Uiso   1.00
C135   C     0.83304   0.25010   0.02671   0.00000  Uiso   1.00
C136   C     0.83301   0.25008   0.47335   0.00000  Uiso   1.00
C137   C     0.73367   0.24954   0.23759   0.00000  Uiso   1.00
C138   C     0.93296   0.24993   0.26247   0.00000  Uiso   1.00
C139   C     0.67892   0.24323   0.23184   0.00000  Uiso   1.00
C140   C     0.98774   0.25516   0.26866   0.00000  Uiso   1.00
C141   C     0.84394   0.04528   0.29016   0.00000  Uiso   1.00
C142   C     0.84400   0.45476   0.21283   0.00000  Uiso   1.00
C143   C     0.84871   0.09122   0.29084   0.00000  Uiso   1.00
C144   C     0.83309   0.33619   0.24986   0.00000  Uiso   1.00
C145   C     0.84878   0.40883   0.21345   0.00000  Uiso   1.00
C146   C     0.82930   0.11587   0.24984   0.00000  Uiso   1.00
C147   C     0.82937   0.38413   0.24910   0.00000  Uiso   1.00
C148   C     0.80453   0.09454   0.20863   0.00000  Uiso   1.00
C149   C     0.80463   0.40539   0.28352   0.00000  Uiso   1.00
C150   C     0.79945   0.04859   0.20814   0.00000  Uiso   1.00
C151   C     0.79952   0.45133   0.28261   0.00000  Uiso   1.00
C152   C     0.81957   0.02403   0.24886   0.00000  Uiso   1.00
C153   C     0.81960   0.47594   0.24741   0.00000  Uiso   1.00
C154   C     0.98739   0.23475   0.15063   0.00000  Uiso   1.00
C155   C     0.80143   0.22033   0.04845   0.00000  Uiso   1.00
C156   C     0.68325   0.25903   0.34938   0.00000  Uiso   1.00
C157   C     0.84247   0.28944   0.44856   0.00000  Uiso   1.00
C158   C     0.80233   0.22072   0.09820   0.00000  Uiso   1.00
C159   C     0.84268   0.28864   0.39897   0.00000  Uiso   1.00
C160   C     0.86394   0.27949   0.10636   0.00000  Uiso   1.00
C161   C     0.82367   0.21144   0.39667   0.00000  Uiso   1.00
C162   C     0.86469   0.27990   0.05684   0.00000  Uiso   1.00
F163   F     0.87365   0.11128   0.33083   0.00000  Uiso   1.00
F164   F     0.87369   0.38883   0.18031   0.00000  Uiso   1.00
F165   F     0.77519   0.02807   0.16817   0.00000  Uiso   1.00
F166   F     0.77525   0.47178   0.31591   0.00000  Uiso   1.00
H167   H     0.86050   0.02613   0.32132   0.00000  Uiso   1.00
H168   H     0.81610   0.18091   0.37658   0.00000  Uiso   1.00
H169   H     0.89052   0.30304   0.04256   0.00000  Uiso   1.00
H170   H     0.81686   0.17922   0.46323   0.00000  Uiso   1.00
H171   H     0.68952   0.22587   0.13519   0.00000  Uiso   1.00
H172   H     0.98240   0.27172   0.15105   0.00000  Uiso   1.00
H173   H     0.95362   0.22085   0.12642   0.00000  Uiso   1.00
H174   H     0.69310   0.22305   0.34590   0.00000  Uiso   1.00
H175   H     0.98079   0.26247   0.36619   0.00000  Uiso   1.00
H176   H     0.71573   0.27429   0.37408   0.00000  Uiso   1.00
H177   H     0.86053   0.47396   0.18623   0.00000  Uiso   1.00
H178   H     0.78868   0.11344   0.17706   0.00000  Uiso   1.00
H179   H     0.78881   0.38645   0.31072   0.00000  Uiso   1.00
H180   H     0.77551   0.19722   0.02727   0.00000  Uiso   1.00
H181   H     0.84901   0.32096   0.46706   0.00000  Uiso   1.00
H182   H     0.77797   0.19766   0.11443   0.00000  Uiso   1.00
H183   H     0.85017   0.31919   0.38072   0.00000  Uiso   1.00
H184   H     0.88831   0.30259   0.12906   0.00000  Uiso   1.00
N185   N     0.83333   0.24999   0.12624   0.00000  Uiso   1.00
N186   N     0.83333   0.25001   0.37377   0.00000  Uiso   1.00
O187   O     0.83334   0.18454   0.28974   0.00000  Uiso   1.00
O188   O     0.67796   0.28248   0.30549   0.00000  Uiso   1.00
O189   O     0.83333   0.31547   0.21026   0.00000  Uiso   1.00
O190   O     0.83334   0.18453   0.21026   0.00000  Uiso   1.00
O191   O     0.83333   0.31547   0.28974   0.00000  Uiso   1.00
O192   O     0.75725   0.25000   0.28045   0.00000  Uiso   1.00
O193   O     0.90942   0.25000   0.21956   0.00000  Uiso   1.00
O194   O     0.75725   0.25000   0.20097   0.00000  Uiso   1.00
O195   O     0.90942   0.25001   0.29904   0.00000  Uiso   1.00
O196   O     0.98870   0.21474   0.19606   0.00000  Uiso   1.00
Zn197  Zn    0.83333   0.25001   0.30307   0.00000  Uiso   1.00
Zn198  Zn    0.83333   0.25000   0.19693   0.00000  Uiso   1.00
C199   C     0.16639   0.66381   0.25008   0.00000  Uiso   1.00
C200   C     0.15690   0.71070   0.44628   0.00000  Uiso   1.00
C201   C     0.16637   0.75010   0.02671   0.00000  Uiso   1.00
C202   C     0.16634   0.75008   0.47335   0.00000  Uiso   1.00
C203   C     0.06700   0.74954   0.23759   0.00000  Uiso   1.00
C204   C     0.26629   0.74993   0.26247   0.00000  Uiso   1.00
C205   C     0.01225   0.74323   0.23184   0.00000  Uiso   1.00
C206   C     0.32107   0.75516   0.26866   0.00000  Uiso   1.00
C207   C     0.17728   0.54528   0.29016   0.00000  Uiso   1.00
C208   C     0.17733   0.95476   0.21283   0.00000  Uiso   1.00
C209   C     0.18205   0.59122   0.29084   0.00000  Uiso   1.00
C210   C     0.16642   0.83619   0.24986   0.00000  Uiso   1.00
C211   C     0.18212   0.90883   0.21345   0.00000  Uiso   1.00
C212   C     0.16263   0.61587   0.24984   0.00000  Uiso   1.00
C213   C     0.16270   0.88413   0.24910   0.00000  Uiso   1.00
C214   C     0.13786   0.59454   0.20863   0.00000  Uiso   1.00
C215   C     0.13796   0.90539   0.28352   0.00000  Uiso   1.00
C216   C     0.13279   0.54859   0.20814   0.00000  Uiso   1.00
C217   C     0.13286   0.95133   0.28261   0.00000  Uiso   1.00
C218   C     0.15290   0.52403   0.24886   0.00000  Uiso   1.00
C219   C     0.15293   0.97594   0.24741   0.00000  Uiso   1.00
C220   C     0.32072   0.73475   0.15063   0.00000  Uiso   1.00
C221   C     0.13476   0.72033   0.04845   0.00000  Uiso   1.00
C222   C     0.01658   0.75903   0.34938   0.00000  Uiso   1.00
C223   C     0.17580   0.78944   0.44856   0.00000  Uiso   1.00
C224   C     0.13567   0.72072   0.09820   0.00000  Uiso   1.00
C225   C     0.17601   0.78864   0.39897   0.00000  Uiso   1.00
C226   C     0.19728   0.77949   0.10636   0.00000  Uiso   1.00
C227   C     0.15701   0.71144   0.39667   0.00000  Uiso   1.00
C228   C     0.19802   0.77990   0.05684   0.00000  Uiso   1.00
F229   F     0.20698   0.61128   0.33083   0.00000  Uiso   1.00
F230   F     0.20703   0.88883   0.18031   0.00000  Uiso   1.00
F231   F     0.10852   0.52807   0.16817   0.00000  Uiso   1.00
F232   F     0.10858   0.97178   0.31591   0.00000  Uiso   1.00
H233   H     0.19383   0.52613   0.32132   0.00000  Uiso   1.00
H234   H     0.14944   0.68091   0.37658   0.00000  Uiso   1.00
H235   H     0.22386   0.80304   0.04256   0.00000  Uiso   1.00
H236   H     0.15019   0.67922   0.46323   0.00000  Uiso   1.00
H237   H     0.02286   0.72587   0.13519   0.00000  Uiso   1.00
H238   H     0.31573   0.77172   0.15105   0.00000  Uiso   1.00
H239   H     0.28695   0.72085   0.12642   0.00000  Uiso   1.00
H240   H     0.02643   0.72305   0.34590   0.00000  Uiso   1.00
H241   H     0.31413   0.76247   0.36619   0.00000  Uiso   1.00
H242   H     0.04906   0.77429   0.37408   0.00000  Uiso   1.00
H243   H     0.19386   0.97396   0.18623   0.00000  Uiso   1.00
H244   H     0.12201   0.61344   0.17706   0.00000  Uiso   1.00
H245   H     0.12214   0.88645   0.31072   0.00000  Uiso   1.00
H246   H     0.10884   0.69722   0.02727   0.00000  Uiso   1.00
H247   H     0.18234   0.82096   0.46706   0.00000  Uiso   1.00
H248   H     0.11131   0.69766   0.11443   0.00000  Uiso   1.00
H249   H     0.18350   0.81919   0.38072   0.00000  Uiso   1.00
H250   H     0.22164   0.80259   0.12906   0.00000  Uiso   1.00
N251   N     0.16667   0.74999   0.12624   0.00000  Uiso   1.00
N252   N     0.16667   0.75001   0.37377   0.00000  Uiso   1.00
O253   O     0.16667   0.68454   0.28974   0.00000  Uiso   1.00
O254   O     0.01129   0.78248   0.30549   0.00000  Uiso   1.00
O255   O     0.16666   0.81547   0.21026   0.00000  Uiso   1.00
O256   O     0.16667   0.68453   0.21026   0.00000  Uiso   1.00
O257   O     0.16666   0.81547   0.28974   0.00000  Uiso   1.00
O258   O     0.09058   0.75000   0.28045   0.00000  Uiso   1.00
O259   O     0.24275   0.75000   0.21956   0.00000  Uiso   1.00
O260   O     0.09058   0.75000   0.20097   0.00000  Uiso   1.00
O261   O     0.24275   0.75001   0.29904   0.00000  Uiso   1.00
O262   O     0.32203   0.71474   0.19606   0.00000  Uiso   1.00
Zn263  Zn    0.16667   0.75001   0.30307   0.00000  Uiso   1.00
Zn264  Zn    0.16667   0.75000   0.19693   0.00000  Uiso   1.00
C265   C     0.49972   0.66381   0.25008   0.00000  Uiso   1.00
C266   C     0.49023   0.71070   0.44628   0.00000  Uiso   1.00
C267   C     0.49971   0.75010   0.02671   0.00000  Uiso   1.00
C268   C     0.49967   0.75008   0.47335   0.00000  Uiso   1.00
C269   C     0.40034   0.74954   0.23759   0.00000  Uiso   1.00
C270   C     0.59963   0.74993   0.26247   0.00000  Uiso   1.00
C271   C     0.34558   0.74323   0.23184   0.00000  Uiso   1.00
C272   C     0.65441   0.75516   0.26866   0.00000  Uiso   1.00
C273   C     0.51061   0.54528   0.29016   0.00000  Uiso   1.00
C274   C     0.51066   0.95476   0.21283   0.00000  Uiso   1.00
C275   C     0.51538   0.59122   0.29084   0.00000  Uiso   1.00
C276   C     0.49976   0.83619   0.24986   0.00000  Uiso   1.00
C277   C     0.51545   0.90883   0.21345   0.00000  Uiso   1.00
C278   C     0.49596   0.61587   0.24984   0.00000  Uiso   1.00
C279   C     0.49604   0.88413   0.24910   0.00000  Uiso   1.00
C280   C     0.47120   0.59454   0.20863   0.00000  Uiso   1.00
C281   C     0.47130   0.90539   0.28352   0.00000  Uiso   1.00
C282   C     0.46612   0.54859   0.20814   0.00000  Uiso   1.00
C283   C     0.46619   0.95133   0.28261   0.00000  Uiso   1.00
C284   C     0.48623   0.52403   0.24886   0.00000  Uiso   1.00
C285   C     0.48626   0.97594   0.24741   0.00000  Uiso   1.00
C286   C     0.65405   0.73475   0.15063   0.00000  Uiso   1.00
C287   C     0.46810   0.72033   0.04845   0.00000  Uiso   1.00
C288   C     0.34991   0.75903   0.34938   0.00000  Uiso   1.00
C289   C     0.50914   0.78944   0.44856   0.00000  Uiso   1.00
C290   C     0.46900   0.72072   0.09820   0.00000  Uiso   1.00
C291   C     0.50934   0.78864   0.39897   0.00000  Uiso   1.00
C292   C     0.53061   0.77949   0.10636   0.00000  Uiso   1.00
C293   C     0.49034   0.71144   0.39667   0.00000  Uiso   1.00
C294   C     0.53135   0.77990   0.05684   0.00000  Uiso   1.00
F295   F     0.54031   0.61128   0.33083   0.00000  Uiso   1.00
F296   F     0.54036   0.88883   0.18031   0.00000  Uiso   1.00
F297   F     0.44185   0.52807   0.16817   0.00000  Uiso   1.00
F298   F     0.44192   0.97178   0.31591   0.00000  Uiso   1.00
H299   H     0.52716   0.52613   0.32132   0.00000  Uiso   1.00
H300   H     0.48277   0.68091   0.37658   0.00000  Uiso   1.00
H301   H     0.55719   0.80304   0.04256   0.00000  Uiso   1.00
H302   H     0.48352   0.67922   0.46323   0.00000  Uiso   1.00
H303   H     0.35619   0.72587   0.13519   0.00000  Uiso   1.00
H304   H     0.64906   0.77172   0.15105   0.00000  Uiso   1.00
H305   H     0.62029   0.72085   0.12642   0.00000  Uiso   1.00
H306   H     0.35977   0.72305   0.34590   0.00000  Uiso   1.00
H307   H     0.64746   0.76247   0.36619   0.00000  Uiso   1.00
H308   H     0.38240   0.77429   0.37408   0.00000  Uiso   1.00
H309   H     0.52720   0.97396   0.18623   0.00000  Uiso   1.00
H310   H     0.45534   0.61344   0.17706   0.00000  Uiso   1.00
H311   H     0.45547   0.88645   0.31072   0.00000  Uiso   1.00
H312   H     0.44218   0.69722   0.02727   0.00000  Uiso   1.00
H313   H     0.51567   0.82096   0.46706   0.00000  Uiso   1.00
H314   H     0.44464   0.69766   0.11443   0.00000  Uiso   1.00
H315   H     0.51684   0.81919   0.38072   0.00000  Uiso   1.00
H316   H     0.55497   0.80259   0.12906   0.00000  Uiso   1.00
N317   N     0.50000   0.74999   0.12624   0.00000  Uiso   1.00
N318   N     0.50000   0.75001   0.37377   0.00000  Uiso   1.00
O319   O     0.50000   0.68454   0.28974   0.00000  Uiso   1.00
O320   O     0.34463   0.78248   0.30549   0.00000  Uiso   1.00
O321   O     0.50000   0.81547   0.21026   0.00000  Uiso   1.00
O322   O     0.50000   0.68453   0.21026   0.00000  Uiso   1.00
O323   O     0.50000   0.81547   0.28974   0.00000  Uiso   1.00
O324   O     0.42392   0.75000   0.28045   0.00000  Uiso   1.00
O325   O     0.57608   0.75000   0.21956   0.00000  Uiso   1.00
O326   O     0.42392   0.75000   0.20097   0.00000  Uiso   1.00
O327   O     0.57608   0.75001   0.29904   0.00000  Uiso   1.00
O328   O     0.65537   0.71474   0.19606   0.00000  Uiso   1.00
Zn329  Zn    0.50000   0.75001   0.30307   0.00000  Uiso   1.00
Zn330  Zn    0.50000   0.75000   0.19693   0.00000  Uiso   1.00
C331   C     0.83306   0.66381   0.25008   0.00000  Uiso   1.00
C332   C     0.82357   0.71070   0.44628   0.00000  Uiso   1.00
C333   C     0.83304   0.75010   0.02671   0.00000  Uiso   1.00
C334   C     0.83301   0.75008   0.47335   0.00000  Uiso   1.00
C335   C     0.73367   0.74954   0.23759   0.00000  Uiso   1.00
C336   C     0.93296   0.74993   0.26247   0.00000  Uiso   1.00
C337   C     0.67892   0.74323   0.23184   0.00000  Uiso   1.00
C338   C     0.98774   0.75516   0.26866   0.00000  Uiso   1.00
C339   C     0.84394   0.54528   0.29016   0.00000  Uiso   1.00
C340   C     0.84400   0.95476   0.21283   0.00000  Uiso   1.00
C341   C     0.84871   0.59122   0.29084   0.00000  Uiso   1.00
C342   C     0.83309   0.83619   0.24986   0.00000  Uiso   1.00
C343   C     0.84878   0.90883   0.21345   0.00000  Uiso   1.00
C344   C     0.82930   0.61587   0.24984   0.00000  Uiso   1.00
C345   C     0.82937   0.88413   0.24910   0.00000  Uiso   1.00
C346   C     0.80453   0.59454   0.20863   0.00000  Uiso   1.00
C347   C     0.80463   0.90539   0.28352   0.00000  Uiso   1.00
C348   C     0.79945   0.54859   0.20814   0.00000  Uiso   1.00
C349   C     0.79952   0.95133   0.28261   0.00000  Uiso   1.00
C350   C     0.81957   0.52403   0.24886   0.00000  Uiso   1.00
C351   C     0.81960   0.97594   0.24741   0.00000  Uiso   1.00
C352   C     0.98739   0.73475   0.15063   0.00000  Uiso   1.00
C353   C     0.80143   0.72033   0.04845   0.00000  Uiso   1.00
C354   C     0.68325   0.75903   0.34938   0.00000  Uiso   1.00
C355   C     0.84247   0.78944   0.44856   0.00000  Uiso   1.00
C356   C     0.80233   0.72072   0.09820   0.00000  Uiso   1.00
C357   C     0.84268   0.78864   0.39897   0.00000  Uiso   1.00
C358   C     0.86394   0.77949   0.10636   0.00000  Uiso   1.00
C359   C     0.82367   0.71144   0.39667   0.00000  Uiso   1.00
C360   C     0.86469   0.77990   0.05684   0.00000  Uiso   1.00
F361   F     0.87365   0.61128   0.33083   0.00000  Uiso   1.00
F362   F     0.87369   0.88883   0.18031   0.00000  Uiso   1.00
F363   F     0.77519   0.52807   0.16817   0.00000  Uiso   1.00
F364   F     0.77525   0.97178   0.31591   0.00000  Uiso   1.00
H365   H     0.86050   0.52613   0.32132   0.00000  Uiso   1.00
H366   H     0.81610   0.68091   0.37658   0.00000  Uiso   1.00
H367   H     0.89052   0.80304   0.04256   0.00000  Uiso   1.00
H368   H     0.81686   0.67922   0.46323   0.00000  Uiso   1.00
H369   H     0.68952   0.72587   0.13519   0.00000  Uiso   1.00
H370   H     0.98240   0.77172   0.15105   0.00000  Uiso   1.00
H371   H     0.95362   0.72085   0.12642   0.00000  Uiso   1.00
H372   H     0.69310   0.72305   0.34590   0.00000  Uiso   1.00
H373   H     0.98079   0.76247   0.36619   0.00000  Uiso   1.00
H374   H     0.71573   0.77429   0.37408   0.00000  Uiso   1.00
H375   H     0.86053   0.97396   0.18623   0.00000  Uiso   1.00
H376   H     0.78868   0.61344   0.17706   0.00000  Uiso   1.00
H377   H     0.78881   0.88645   0.31072   0.00000  Uiso   1.00
H378   H     0.77551   0.69722   0.02727   0.00000  Uiso   1.00
H379   H     0.84901   0.82096   0.46706   0.00000  Uiso   1.00
H380   H     0.77797   0.69766   0.11443   0.00000  Uiso   1.00
H381   H     0.85017   0.81919   0.38072   0.00000  Uiso   1.00
H382   H     0.88831   0.80259   0.12906   0.00000  Uiso   1.00
N383   N     0.83333   0.74999   0.12624   0.00000  Uiso   1.00
N384   N     0.83333   0.75001   0.37377   0.00000  Uiso   1.00
O385   O     0.83334   0.68454   0.28974   0.00000  Uiso   1.00
O386   O     0.67796   0.78248   0.30549   0.00000  Uiso   1.00
O387   O     0.83333   0.81547   0.21026   0.00000  Uiso   1.00
O388   O     0.83334   0.68453   0.21026   0.00000  Uiso   1.00
O389   O     0.83333   0.81547   0.28974   0.00000  Uiso   1.00
O390   O     0.75725   0.75000   0.28045   0.00000  Uiso   1.00
O391   O     0.90942   0.75000   0.21956   0.00000  Uiso   1.00
O392   O     0.75725   0.75000   0.20097   0.00000  Uiso   1.00
O393   O     0.90942   0.75001   0.29904   0.00000  Uiso   1.00
O394   O     0.98870   0.71474   0.19606   0.00000  Uiso   1.00
Zn395  Zn    0.83333   0.75001   0.30307   0.00000  Uiso   1.00
Zn396  Zn    0.83333   0.75000   0.19693   0.00000  Uiso   1.00
C397   C     0.16639   0.16381   0.75008   0.00000  Uiso   1.00
C398   C     0.15690   0.21070   0.94628   0.00000  Uiso   1.00
C399   C     0.16637   0.25010   0.52671   0.00000  Uiso   1.00
C400   C     0.16634   0.25008   0.97335   0.00000  Uiso   1.00
C401   C     0.06700   0.24954   0.73759   0.00000  Uiso   1.00
C402   C     0.26629   0.24993   0.76247   0.00000  Uiso   1.00
C403   C     0.01225   0.24323   0.73184   0.00000  Uiso   1.00
C404   C     0.32107   0.25516   0.76866   0.00000  Uiso   1.00
C405   C     0.17728   0.04528   0.79016   0.00000  Uiso   1.00
C406   C     0.17733   0.45476   0.71283   0.00000  Uiso   1.00
C407   C     0.18205   0.09122   0.79084   0.00000  Uiso   1.00
C408   C     0.16642   0.33619   0.74986   0.00000  Uiso   1.00
C409   C     0.18212   0.40883   0.71345   0.00000  Uiso   1.00
C410   C     0.16263   0.11587   0.74984   0.00000  Uiso   1.00
C411   C     0.16270   0.38413   0.74910   0.00000  Uiso   1.00
C412   C     0.13786   0.09454   0.70863   0.00000  Uiso   1.00
C413   C     0.13796   0.40539   0.78352   0.00000  Uiso   1.00
C414   C     0.13279   0.04859   0.70814   0.00000  Uiso   1.00
C415   C     0.13286   0.45133   0.78261   0.00000  Uiso   1.00
C416   C     0.15290   0.02403   0.74886   0.00000  Uiso   1.00
C417   C     0.15293   0.47594   0.74741   0.00000  Uiso   1.00
C418   C     0.32072   0.23475   0.65063   0.00000  Uiso   1.00
C419   C     0.13476   0.22033   0.54845   0.00000  Uiso   1.00
C420   C     0.01658   0.25903   0.84938   0.00000  Uiso   1.00
C421   C     0.17580   0.28944   0.94856   0.00000  Uiso   1.00
C422   C     0.13567   0.22072   0.59820   0.00000  Uiso   1.00
C423   C     0.17601   0.28864   0.89897   0.00000  Uiso   1.00
C424   C     0.19728   0.27949   0.60636   0.00000  Uiso   1.00
C425   C     0.15701   0.21144   0.89667   0.00000  Uiso   1.00
C426   C     0.19802   0.27990   0.55684   0.00000  Uiso   1.00
F427   F     0.20698   0.11128   0.83083   0.00000  Uiso   1.00
F428   F     0.20703   0.38883   0.68031   0.00000  Uiso   1.00
F429   F     0.10852   0.02807   0.66817   0.00000  Uiso   1.00
F430   F     0.10858   0.47178   0.81591   0.00000  Uiso   1.00
H431   H     0.19383   0.02613   0.82132   0.00000  Uiso   1.00
H432   H     0.14944   0.18091   0.87658   0.00000  Uiso   1.00
H433   H     0.22386   0.30304   0.54256   0.00000  Uiso   1.00
H434   H     0.15019   0.17922   0.96323   0.00000  Uiso   1.00
H435   H     0.02286   0.22587   0.63519   0.00000  Uiso   1.00
H436   H     0.31573   0.27172   0.65105   0.00000  Uiso   1.00
H437   H     0.28695   0.22085   0.62642   0.00000  Uiso   1.00
H438   H     0.02643   0.22305   0.84590   0.00000  Uiso   1.00
H439   H     0.31413   0.26247   0.86619   0.00000  Uiso   1.00
H440   H     0.04906   0.27429   0.87408   0.00000  Uiso   1.00
H441   H     0.19386   0.47396   0.68623   0.00000  Uiso   1.00
H442   H     0.12201   0.11344   0.67706   0.00000  Uiso   1.00
H443   H     0.12214   0.38645   0.81072   0.00000  Uiso   1.00
H444   H     0.10884   0.19722   0.52727   0.00000  Uiso   1.00
H445   H     0.18234   0.32096   0.96706   0.00000  Uiso   1.00
H446   H     0.11131   0.19766   0.61443   0.00000  Uiso   1.00
H447   H     0.18350   0.31919   0.88072   0.00000  Uiso   1.00
H448   H     0.22164   0.30259   0.62906   0.00000  Uiso   1.00
N449   N     0.16667   0.24999   0.62624   0.00000  Uiso   1.00
N450   N     0.16667   0.25001   0.87377   0.00000  Uiso   1.00
O451   O     0.16667   0.18454   0.78974   0.00000  Uiso   1.00
O452   O     0.01129   0.28248   0.80549   0.00000  Uiso   1.00
O453   O     0.16666   0.31547   0.71026   0.00000  Uiso   1.00
O454   O     0.16667   0.18453   0.71026   0.00000  Uiso   1.00
O455   O     0.16666   0.31547   0.78974   0.00000  Uiso   1.00
O456   O     0.09058   0.25000   0.78045   0.00000  Uiso   1.00
O457   O     0.24275   0.25000   0.71956   0.00000  Uiso   1.00
O458   O     0.09058   0.25000   0.70097   0.00000  Uiso   1.00
O459   O     0.24275   0.25001   0.79904   0.00000  Uiso   1.00
O460   O     0.32203   0.21474   0.69606   0.00000  Uiso   1.00
Zn461  Zn    0.16667   0.25001   0.80307   0.00000  Uiso   1.00
Zn462  Zn    0.16667   0.25000   0.69693   0.00000  Uiso   1.00
C463   C     0.49972   0.16381   0.75008   0.00000  Uiso   1.00
C464   C     0.49023   0.21070   0.94628   0.00000  Uiso   1.00
C465   C     0.49971   0.25010   0.52671   0.00000  Uiso   1.00
C466   C     0.49967   0.25008   0.97335   0.00000  Uiso   1.00
C467   C     0.40034   0.24954   0.73759   0.00000  Uiso   1.00
C468   C     0.59963   0.24993   0.76247   0.00000  Uiso   1.00
C469   C     0.34558   0.24323   0.73184   0.00000  Uiso   1.00
C470   C     0.65441   0.25516   0.76866   0.00000  Uiso   1.00
C471   C     0.51061   0.04528   0.79016   0.00000  Uiso   1.00
C472   C     0.51066   0.45476   0.71283   0.00000  Uiso   1.00
C473   C     0.51538   0.09122   0.79084   0.00000  Uiso   1.00
C474   C     0.49976   0.33619   0.74986   0.00000  Uiso   1.00
C475   C     0.51545   0.40883   0.71345   0.00000  Uiso   1.00
C476   C     0.49596   0.11587   0.74984   0.00000  Uiso   1.00
C477   C     0.49604   0.38413   0.74910   0.00000  Uiso   1.00
C478   C     0.47120   0.09454   0.70863   0.00000  Uiso   1.00
C479   C     0.47130   0.40539   0.78352   0.00000  Uiso   1.00
C480   C     0.46612   0.04859   0.70814   0.00000  Uiso   1.00
C481   C     0.46619   0.45133   0.78261   0.00000  Uiso   1.00
C482   C     0.48623   0.02403   0.74886   0.00000  Uiso   1.00
C483   C     0.48626   0.47594   0.74741   0.00000  Uiso   1.00
C484   C     0.65405   0.23475   0.65063   0.00000  Uiso   1.00
C485   C     0.46810   0.22033   0.54845   0.00000  Uiso   1.00
C486   C     0.34991   0.25903   0.84938   0.00000  Uiso   1.00
C487   C     0.50914   0.28944   0.94856   0.00000  Uiso   1.00
C488   C     0.46900   0.22072   0.59820   0.00000  Uiso   1.00
C489   C     0.50934   0.28864   0.89897   0.00000  Uiso   1.00
C490   C     0.53061   0.27949   0.60636   0.00000  Uiso   1.00
C491   C     0.49034   0.21144   0.89667   0.00000  Uiso   1.00
C492   C     0.53135   0.27990   0.55684   0.00000  Uiso   1.00
F493   F     0.54031   0.11128   0.83083   0.00000  Uiso   1.00
F494   F     0.54036   0.38883   0.68031   0.00000  Uiso   1.00
F495   F     0.44185   0.02807   0.66817   0.00000  Uiso   1.00
F496   F     0.44192   0.47178   0.81591   0.00000  Uiso   1.00
H497   H     0.52716   0.02613   0.82132   0.00000  Uiso   1.00
H498   H     0.48277   0.18091   0.87658   0.00000  Uiso   1.00
H499   H     0.55719   0.30304   0.54256   0.00000  Uiso   1.00
H500   H     0.48352   0.17922   0.96323   0.00000  Uiso   1.00
H501   H     0.35619   0.22587   0.63519   0.00000  Uiso   1.00
H502   H     0.64906   0.27172   0.65105   0.00000  Uiso   1.00
H503   H     0.62029   0.22085   0.62642   0.00000  Uiso   1.00
H504   H     0.35977   0.22305   0.84590   0.00000  Uiso   1.00
H505   H     0.64746   0.26247   0.86619   0.00000  Uiso   1.00
H506   H     0.38240   0.27429   0.87408   0.00000  Uiso   1.00
H507   H     0.52720   0.47396   0.68623   0.00000  Uiso   1.00
H508   H     0.45534   0.11344   0.67706   0.00000  Uiso   1.00
H509   H     0.45547   0.38645   0.81072   0.00000  Uiso   1.00
H510   H     0.44218   0.19722   0.52727   0.00000  Uiso   1.00
H511   H     0.51567   0.32096   0.96706   0.00000  Uiso   1.00
H512   H     0.44464   0.19766   0.61443   0.00000  Uiso   1.00
H513   H     0.51684   0.31919   0.88072   0.00000  Uiso   1.00
H514   H     0.55497   0.30259   0.62906   0.00000  Uiso   1.00
N515   N     0.50000   0.24999   0.62624   0.00000  Uiso   1.00
N516   N     0.50000   0.25001   0.87377   0.00000  Uiso   1.00
O517   O     0.50000   0.18454   0.78974   0.00000  Uiso   1.00
O518   O     0.34463   0.28248   0.80549   0.00000  Uiso   1.00
O519   O     0.50000   0.31547   0.71026   0.00000  Uiso   1.00
O520   O     0.50000   0.18453   0.71026   0.00000  Uiso   1.00
O521   O     0.50000   0.31547   0.78974   0.00000  Uiso   1.00
O522   O     0.42392   0.25000   0.78045   0.00000  Uiso   1.00
O523   O     0.57608   0.25000   0.71956   0.00000  Uiso   1.00
O524   O     0.42392   0.25000   0.70097   0.00000  Uiso   1.00
O525   O     0.57608   0.25001   0.79904   0.00000  Uiso   1.00
O526   O     0.65537   0.21474   0.69606   0.00000  Uiso   1.00
Zn527  Zn    0.50000   0.25001   0.80307   0.00000  Uiso   1.00
Zn528  Zn    0.50000   0.25000   0.69693   0.00000  Uiso   1.00
C529   C     0.83306   0.16381   0.75008   0.00000  Uiso   1.00
C530   C     0.82357   0.21070   0.94628   0.00000  Uiso   1.00
C531   C     0.83304   0.25010   0.52671   0.00000  Uiso   1.00
C532   C     0.83301   0.25008   0.97335   0.00000  Uiso   1.00
C533   C     0.73367   0.24954   0.73759   0.00000  Uiso   1.00
C534   C     0.93296   0.24993   0.76247   0.00000  Uiso   1.00
C535   C     0.67892   0.24323   0.73184   0.00000  Uiso   1.00
C536   C     0.98774   0.25516   0.76866   0.00000  Uiso   1.00
C537   C     0.84394   0.04528   0.79016   0.00000  Uiso   1.00
C538   C     0.84400   0.45476   0.71283   0.00000  Uiso   1.00
C539   C     0.84871   0.09122   0.79084   0.00000  Uiso   1.00
C540   C     0.83309   0.33619   0.74986   0.00000  Uiso   1.00
C541   C     0.84878   0.40883   0.71345   0.00000  Uiso   1.00
C542   C     0.82930   0.11587   0.74984   0.00000  Uiso   1.00
C543   C     0.82937   0.38413   0.74910   0.00000  Uiso   1.00
C544   C     0.80453   0.09454   0.70863   0.00000  Uiso   1.00
C545   C     0.80463   0.40539   0.78352   0.00000  Uiso   1.00
C546   C     0.79945   0.04859   0.70814   0.00000  Uiso   1.00
C547   C     0.79952   0.45133   0.78261   0.00000  Uiso   1.00
C548   C     0.81957   0.02403   0.74886   0.00000  Uiso   1.00
C549   C     0.81960   0.47594   0.74741   0.00000  Uiso   1.00
C550   C     0.98739   0.23475   0.65063   0.00000  Uiso   1.00
C551   C     0.80143   0.22033   0.54845   0.00000  Uiso   1.00
C552   C     0.68325   0.25903   0.84938   0.00000  Uiso   1.00
C553   C     0.84247   0.28944   0.94856   0.00000  Uiso   1.00
C554   C     0.80233   0.22072   0.59820   0.00000  Uiso   1.00
C555   C     0.84268   0.28864   0.89897   0.00000  Uiso   1.00
C556   C     0.86394   0.27949   0.60636   0.00000  Uiso   1.00
C557   C     0.82367   0.21144   0.89667   0.00000  Uiso   1.00
C558   C     0.86469   0.27990   0.55684   0.00000  Uiso   1.00
F559   F     0.87365   0.11128   0.83083   0.00000  Uiso   1.00
F560   F     0.87369   0.38883   0.68031   0.00000  Uiso   1.00
F561   F     0.77519   0.02807   0.66817   0.00000  Uiso   1.00
F562   F     0.77525   0.47178   0.81591   0.00000  Uiso   1.00
H563   H     0.86050   0.02613   0.82132   0.00000  Uiso   1.00
H564   H     0.81610   0.18091   0.87658   0.00000  Uiso   1.00
H565   H     0.89052   0.30304   0.54256   0.00000  Uiso   1.00
H566   H     0.81686   0.17922   0.96323   0.00000  Uiso   1.00
H567   H     0.68952   0.22587   0.63519   0.00000  Uiso   1.00
H568   H     0.98240   0.27172   0.65105   0.00000  Uiso   1.00
H569   H     0.95362   0.22085   0.62642   0.00000  Uiso   1.00
H570   H     0.69310   0.22305   0.84590   0.00000  Uiso   1.00
H571   H     0.98079   0.26247   0.86619   0.00000  Uiso   1.00
H572   H     0.71573   0.27429   0.87408   0.00000  Uiso   1.00
H573   H     0.86053   0.47396   0.68623   0.00000  Uiso   1.00
H574   H     0.78868   0.11344   0.67706   0.00000  Uiso   1.00
H575   H     0.78881   0.38645   0.81072   0.00000  Uiso   1.00
H576   H     0.77551   0.19722   0.52727   0.00000  Uiso   1.00
H577   H     0.84901   0.32096   0.96706   0.00000  Uiso   1.00
H578   H     0.77797   0.19766   0.61443   0.00000  Uiso   1.00
H579   H     0.85017   0.31919   0.88072   0.00000  Uiso   1.00
H580   H     0.88831   0.30259   0.62906   0.00000  Uiso   1.00
N581   N     0.83333   0.24999   0.62624   0.00000  Uiso   1.00
N582   N     0.83333   0.25001   0.87377   0.00000  Uiso   1.00
O583   O     0.83334   0.18454   0.78974   0.00000  Uiso   1.00
O584   O     0.67796   0.28248   0.80549   0.00000  Uiso   1.00
O585   O     0.83333   0.31547   0.71026   0.00000  Uiso   1.00
O586   O     0.83334   0.18453   0.71026   0.00000  Uiso   1.00
O587   O     0.83333   0.31547   0.78974   0.00000  Uiso   1.00
O588   O     0.75725   0.25000   0.78045   0.00000  Uiso   1.00
O589   O     0.90942   0.25000   0.71956   0.00000  Uiso   1.00
O590   O     0.75725   0.25000   0.70097   0.00000  Uiso   1.00
O591   O     0.90942   0.25001   0.79904   0.00000  Uiso   1.00
O592   O     0.98870   0.21474   0.69606   0.00000  Uiso   1.00
Zn593  Zn    0.83333   0.25001   0.80307   0.00000  Uiso   1.00
Zn594  Zn    0.83333   0.25000   0.69693   0.00000  Uiso   1.00
C595   C     0.16639   0.66381   0.75008   0.00000  Uiso   1.00
C596   C     0.15690   0.71070   0.94628   0.00000  Uiso   1.00
C597   C     0.16637   0.75010   0.52671   0.00000  Uiso   1.00
C598   C     0.16634   0.75008   0.97335   0.00000  Uiso   1.00
C599   C     0.06700   0.74954   0.73759   0.00000  Uiso   1.00
C600   C     0.26629   0.74993   0.76247   0.00000  Uiso   1.00
C601   C     0.01225   0.74323   0.73184   0.00000  Uiso   1.00
C602   C     0.32107   0.75516   0.76866   0.00000  Uiso   1.00
C603   C     0.17728   0.54528   0.79016   0.00000  Uiso   1.00
C604   C     0.17733   0.95476   0.71283   0.00000  Uiso   1.00
C605   C     0.18205   0.59122   0.79084   0.00000  Uiso   1.00
C606   C     0.16642   0.83619   0.74986   0.00000  Uiso   1.00
C607   C     0.18212   0.90883   0.71345   0.00000  Uiso   1.00
C608   C     0.16263   0.61587   0.74984   0.00000  Uiso   1.00
C609   C     0.16270   0.88413   0.74910   0.00000  Uiso   1.00
C610   C     0.13786   0.59454   0.70863   0.00000  Uiso   1.00
C611   C     0.13796   0.90539   0.78352   0.00000  Uiso   1.00
C612   C     0.13279   0.54859   0.70814   0.00000  Uiso   1.00
C613   C     0.13286   0.95133   0.78261   0.00000  Uiso   1.00
C614   C     0.15290   0.52403   0.74886   0.00000  Uiso   1.00
C615   C     0.15293   0.97594   0.74741   0.00000  Uiso   1.00
C616   C     0.32072   0.73475   0.65063   0.00000  Uiso   1.00
C617   C     0.13476   0.72033   0.54845   0.00000  Uiso   1.00
C618   C     0.01658   0.75903   0.84938   0.00000  Uiso   1.00
C619   C     0.17580   0.78944   0.94856   0.00000  Uiso   1.00
C620   C     0.13567   0.72072   0.59820   0.00000  Uiso   1.00
C621   C     0.17601   0.78864   0.89897   0.00000  Uiso   1.00
C622   C     0.19728   0.77949   0.60636   0.00000  Uiso   1.00
C623   C     0.15701   0.71144   0.89667   0.00000  Uiso   1.00
C624   C     0.19802   0.77990   0.55684   0.00000  Uiso   1.00
F625   F     0.20698   0.61128   0.83083   0.00000  Uiso   1.00
F626   F     0.20703   0.88883   0.68031   0.00000  Uiso   1.00
F627   F     0.10852   0.52807   0.66817   0.00000  Uiso   1.00
F628   F     0.10858   0.97178   0.81591   0.00000  Uiso   1.00
H629   H     0.19383   0.52613   0.82132   0.00000  Uiso   1.00
H630   H     0.14944   0.68091   0.87658   0.00000  Uiso   1.00
H631   H     0.22386   0.80304   0.54256   0.00000  Uiso   1.00
H632   H     0.15019   0.67922   0.96323   0.00000  Uiso   1.00
H633   H     0.02286   0.72587   0.63519   0.00000  Uiso   1.00
H634   H     0.31573   0.77172   0.65105   0.00000  Uiso   1.00
H635   H     0.28695   0.72085   0.62642   0.00000  Uiso   1.00
H636   H     0.02643   0.72305   0.84590   0.00000  Uiso   1.00
H637   H     0.31413   0.76247   0.86619   0.00000  Uiso   1.00
H638   H     0.04906   0.77429   0.87408   0.00000  Uiso   1.00
H639   H     0.19386   0.97396   0.68623   0.00000  Uiso   1.00
H640   H     0.12201   0.61344   0.67706   0.00000  Uiso   1.00
H641   H     0.12214   0.88645   0.81072   0.00000  Uiso   1.00
H642   H     0.10884   0.69722   0.52727   0.00000  Uiso   1.00
H643   H     0.18234   0.82096   0.96706   0.00000  Uiso   1.00
H644   H     0.11131   0.69766   0.61443   0.00000  Uiso   1.00
H645   H     0.18350   0.81919   0.88072   0.00000  Uiso   1.00
H646   H     0.22164   0.80259   0.62906   0.00000  Uiso   1.00
N647   N     0.16667   0.74999   0.62624   0.00000  Uiso   1.00
N648   N     0.16667   0.75001   0.87377   0.00000  Uiso   1.00
O649   O     0.16667   0.68454   0.78974   0.00000  Uiso   1.00
O650   O     0.01129   0.78248   0.80549   0.00000  Uiso   1.00
O651   O     0.16666   0.81547   0.71026   0.00000  Uiso   1.00
O652   O     0.16667   0.68453   0.71026   0.00000  Uiso   1.00
O653   O     0.16666   0.81547   0.78974   0.00000  Uiso   1.00
O654   O     0.09058   0.75000   0.78045   0.00000  Uiso   1.00
O655   O     0.24275   0.75000   0.71956   0.00000  Uiso   1.00
O656   O     0.09058   0.75000   0.70097   0.00000  Uiso   1.00
O657   O     0.24275   0.75001   0.79904   0.00000  Uiso   1.00
O658   O     0.32203   0.71474   0.69606   0.00000  Uiso   1.00
Zn659  Zn    0.16667   0.75001   0.80307   0.00000  Uiso   1.00
Zn660  Zn    0.16667   0.75000   0.69693   0.00000  Uiso   1.00
C661   C     0.49972   0.66381   0.75008   0.00000  Uiso   1.00
C662   C     0.49023   0.71070   0.94628   0.00000  Uiso   1.00
C663   C     0.49971   0.75010   0.52671   0.00000  Uiso   1.00
C664   C     0.49967   0.75008   0.97335   0.00000  Uiso   1.00
C665   C     0.40034   0.74954   0.73759   0.00000  Uiso   1.00
C666   C     0.59963   0.74993   0.76247   0.00000  Uiso   1.00
C667   C     0.34558   0.74323   0.73184   0.00000  Uiso   1.00
C668   C     0.65441   0.75516   0.76866   0.00000  Uiso   1.00
C669   C     0.51061   0.54528   0.79016   0.00000  Uiso   1.00
C670   C     0.51066   0.95476   0.71283   0.00000  Uiso   1.00
C671   C     0.51538   0.59122   0.79084   0.00000  Uiso   1.00
C672   C     0.49976   0.83619   0.74986   0.00000  Uiso   1.00
C673   C     0.51545   0.90883   0.71345   0.00000  Uiso   1.00
C674   C     0.49596   0.61587   0.74984   0.00000  Uiso   1.00
C675   C     0.49604   0.88413   0.74910   0.00000  Uiso   1.00
C676   C     0.47120   0.59454   0.70863   0.00000  Uiso   1.00
C677   C     0.47130   0.90539   0.78352   0.00000  Uiso   1.00
C678   C     0.46612   0.54859   0.70814   0.00000  Uiso   1.00
C679   C     0.46619   0.95133   0.78261   0.00000  Uiso   1.00
C680   C     0.48623   0.52403   0.74886   0.00000  Uiso   1.00
C681   C     0.48626   0.97594   0.74741   0.00000  Uiso   1.00
C682   C     0.65405   0.73475   0.65063   0.00000  Uiso   1.00
C683   C     0.46810   0.72033   0.54845   0.00000  Uiso   1.00
C684   C     0.34991   0.75903   0.84938   0.00000  Uiso   1.00
C685   C     0.50914   0.78944   0.94856   0.00000  Uiso   1.00
C686   C     0.46900   0.72072   0.59820   0.00000  Uiso   1.00
C687   C     0.50934   0.78864   0.89897   0.00000  Uiso   1.00
C688   C     0.53061   0.77949   0.60636   0.00000  Uiso   1.00
C689   C     0.49034   0.71144   0.89667   0.00000  Uiso   1.00
C690   C     0.53135   0.77990   0.55684   0.00000  Uiso   1.00
F691   F     0.54031   0.61128   0.83083   0.00000  Uiso   1.00
F692   F     0.54036   0.88883   0.68031   0.00000  Uiso   1.00
F693   F     0.44185   0.52807   0.66817   0.00000  Uiso   1.00
F694   F     0.44192   0.97178   0.81591   0.00000  Uiso   1.00
H695   H     0.52716   0.52613   0.82132   0.00000  Uiso   1.00
H696   H     0.48277   0.68091   0.87658   0.00000  Uiso   1.00
H697   H     0.55719   0.80304   0.54256   0.00000  Uiso   1.00
H698   H     0.48352   0.67922   0.96323   0.00000  Uiso   1.00
H699   H     0.35619   0.72587   0.63519   0.00000  Uiso   1.00
H700   H     0.64906   0.77172   0.65105   0.00000  Uiso   1.00
H701   H     0.62029   0.72085   0.62642   0.00000  Uiso   1.00
H702   H     0.35977   0.72305   0.84590   0.00000  Uiso   1.00
H703   H     0.64746   0.76247   0.86619   0.00000  Uiso   1.00
H704   H     0.38240   0.77429   0.87408   0.00000  Uiso   1.00
H705   H     0.52720   0.97396   0.68623   0.00000  Uiso   1.00
H706   H     0.45534   0.61344   0.67706   0.00000  Uiso   1.00
H707   H     0.45547   0.88645   0.81072   0.00000  Uiso   1.00
H708   H     0.44218   0.69722   0.52727   0.00000  Uiso   1.00
H709   H     0.51567   0.82096   0.96706   0.00000  Uiso   1.00
H710   H     0.44464   0.69766   0.61443   0.00000  Uiso   1.00
H711   H     0.51684   0.81919   0.88072   0.00000  Uiso   1.00
H712   H     0.55497   0.80259   0.62906   0.00000  Uiso   1.00
N713   N     0.50000   0.74999   0.62624   0.00000  Uiso   1.00
N714   N     0.50000   0.75001   0.87377   0.00000  Uiso   1.00
O715   O     0.50000   0.68454   0.78974   0.00000  Uiso   1.00
O716   O     0.34463   0.78248   0.80549   0.00000  Uiso   1.00
O717   O     0.50000   0.81547   0.71026   0.00000  Uiso   1.00
O718   O     0.50000   0.68453   0.71026   0.00000  Uiso   1.00
O719   O     0.50000   0.81547   0.78974   0.00000  Uiso   1.00
O720   O     0.42392   0.75000   0.78045   0.00000  Uiso   1.00
O721   O     0.57608   0.75000   0.71956   0.00000  Uiso   1.00
O722   O     0.42392   0.75000   0.70097   0.00000  Uiso   1.00
O723   O     0.57608   0.75001   0.79904   0.00000  Uiso   1.00
O724   O     0.65537   0.71474   0.69606   0.00000  Uiso   1.00
Zn725  Zn    0.50000   0.75001   0.80307   0.00000  Uiso   1.00
Zn726  Zn    0.50000   0.75000   0.69693   0.00000  Uiso   1.00
C727   C     0.83306   0.66381   0.75008   0.00000  Uiso   1.00
C728   C     0.82357   0.71070   0.94628   0.00000  Uiso   1.00
C729   C     0.83304   0.75010   0.52671   0.00000  Uiso   1.00
C730   C     0.83301   0.75008   0.97335   0.00000  Uiso   1.00
C731   C     0.73367   0.74954   0.73759   0.00000  Uiso   1.00
C732   C     0.93296   0.74993   0.76247   0.00000  Uiso   1.00
C733   C     0.67892   0.74323   0.73184   0.00000  Uiso   1.00
C734   C     0.98774   0.75516   0.76866   0.00000  Uiso   1.00
C735   C     0.84394   0.54528   0.79016   0.00000  Uiso   1.00
C736   C     0.84400   0.95476   0.71283   0.00000  Uiso   1.00
C737   C     0.84871   0.59122   0.79084   0.00000  Uiso   1.00
C738   C     0.83309   0.83619   0.74986   0.00000  Uiso   1.00
C739   C     0.84878   0.90883   0.71345   0.00000  Uiso   1.00
C740   C     0.82930   0.61587   0.74984   0.00000  Uiso   1.00
C741   C     0.82937   0.88413   0.74910   0.00000  Uiso   1.00
C742   C     0.80453   0.59454   0.70863   0.00000  Uiso   1.00
C743   C     0.80463   0.90539   0.78352   0.00000  Uiso   1.00
C744   C     0.79945   0.54859   0.70814   0.00000  Uiso   1.00
C745   C     0.79952   0.95133   0.78261   0.00000  Uiso   1.00
C746   C     0.81957   0.52403   0.74886   0.00000  Uiso   1.00
C747   C     0.81960   0.97594   0.74741   0.00000  Uiso   1.00
C748   C     0.98739   0.73475   0.65063   0.00000  Uiso   1.00
C749   C     0.80143   0.72033   0.54845   0.00000  Uiso   1.00
C750   C     0.68325   0.75903   0.84938   0.00000  Uiso   1.00
C751   C     0.84247   0.78944   0.94856   0.00000  Uiso   1.00
C752   C     0.80233   0.72072   0.59820   0.00000  Uiso   1.00
C753   C     0.84268   0.78864   0.89897   0.00000  Uiso   1.00
C754   C     0.86394   0.77949   0.60636   0.00000  Uiso   1.00
C755   C     0.82367   0.71144   0.89667   0.00000  Uiso   1.00
C756   C     0.86469   0.77990   0.55684   0.00000  Uiso   1.00
F757   F     0.87365   0.61128   0.83083   0.00000  Uiso   1.00
F758   F     0.87369   0.88883   0.68031   0.00000  Uiso   1.00
F759   F     0.77519   0.52807   0.66817   0.00000  Uiso   1.00
F760   F     0.77525   0.97178   0.81591   0.00000  Uiso   1.00
H761   H     0.86050   0.52613   0.82132   0.00000  Uiso   1.00
H762   H     0.81610   0.68091   0.87658   0.00000  Uiso   1.00
H763   H     0.89052   0.80304   0.54256   0.00000  Uiso   1.00
H764   H     0.81686   0.67922   0.96323   0.00000  Uiso   1.00
H765   H     0.68952   0.72587   0.63519   0.00000  Uiso   1.00
H766   H     0.98240   0.77172   0.65105   0.00000  Uiso   1.00
H767   H     0.95362   0.72085   0.62642   0.00000  Uiso   1.00
H768   H     0.69310   0.72305   0.84590   0.00000  Uiso   1.00
H769   H     0.98079   0.76247   0.86619   0.00000  Uiso   1.00
H770   H     0.71573   0.77429   0.87408   0.00000  Uiso   1.00
H771   H     0.86053   0.97396   0.68623   0.00000  Uiso   1.00
H772   H     0.78868   0.61344   0.67706   0.00000  Uiso   1.00
H773   H     0.78881   0.88645   0.81072   0.00000  Uiso   1.00
H774   H     0.77551   0.69722   0.52727   0.00000  Uiso   1.00
H775   H     0.84901   0.82096   0.96706   0.00000  Uiso   1.00
H776   H     0.77797   0.69766   0.61443   0.00000  Uiso   1.00
H777   H     0.85017   0.81919   0.88072   0.00000  Uiso   1.00
H778   H     0.88831   0.80259   0.62906   0.00000  Uiso   1.00
N779   N     0.83333   0.74999   0.62624   0.00000  Uiso   1.00
N780   N     0.83333   0.75001   0.87377   0.00000  Uiso   1.00
O781   O     0.83334   0.68454   0.78974   0.00000  Uiso   1.00
O782   O     0.67796   0.78248   0.80549   0.00000  Uiso   1.00
O783   O     0.83333   0.81547   0.71026   0.00000  Uiso   1.00
O784   O     0.83334   0.68453   0.71026   0.00000  Uiso   1.00
O785   O     0.83333   0.81547   0.78974   0.00000  Uiso   1.00
O786   O     0.75725   0.75000   0.78045   0.00000  Uiso   1.00
O787   O     0.90942   0.75000   0.71956   0.00000  Uiso   1.00
O788   O     0.75725   0.75000   0.70097   0.00000  Uiso   1.00
O789   O     0.90942   0.75001   0.79904   0.00000  Uiso   1.00
O790   O     0.98870   0.71474   0.69606   0.00000  Uiso   1.00
Zn791  Zn    0.83333   0.75001   0.80307   0.00000  Uiso   1.00
Zn792  Zn    0.83333   0.75000   0.69693   0.00000  Uiso   1.00
loop_
_geom_bond_atom_site_label_1
_geom_bond_atom_site_label_2
_geom_bond_distance
_geom_bond_site_symmetry_2
_ccdc_geom_bond_type
C1     O55     1.285   .     A
C1     O58     1.286   .     A
C1     C14     1.439   .     S
C2     C4      1.410   .     A
C2     H38     1.082   .     S
C2     C29     1.406   .     A
C3     C30     1.411   .     A
C3     C23     1.411   .     A
C3     C400    1.511   1_554 S
C4     C25     1.410   .     A
C4     C399    1.511   .     S
C5     O62     1.281   .     A
C5     C7      1.416   .     S
C5     O60     1.274   .     A
C6     O63     1.279   .     A
C6     O61     1.275   .     A
C6     C8      1.413   .     S
C7     C140    1.350   1_455 S
C7     O196    1.395   1_455 S
C8     C73     1.350   .     S
C8     O122    1.394   .     S
C9     C11     1.381   .     A
C9     H35     1.084   .     S
C9     C20     1.398   .     A
C10    H45     1.084   .     S
C10    C13     1.381   .     A
C10    C21     1.398   .     A
C11    F31     1.358   .     S
C11    C14     1.402   .     A
C12    C15     1.439   .     S
C12    O57     1.285   .     A
C12    O59     1.286   .     A
C13    F32     1.358   .     S
C13    C15     1.402   .     A
C14    C16     1.400   .     A
C15    C17     1.400   .     A
C16    C18     1.382   .     A
C16    H46     1.084   .     S
C17    C19     1.382   .     A
C17    H47     1.084   .     S
C18    C20     1.399   .     A
C18    F33     1.358   .     S
C19    F34     1.358   .     S
C19    C21     1.399   .     A
C20    C219    1.441   1_545 S
C21    C218    1.441   .     S
C22    H40     1.115   .     S
C22    H41     1.109   .     S
C22    O64     1.413   .     S
C22    H105    1.109   .     S
C23    C26     1.406   .     A
C23    H48     1.082   .     S
C24    H42     1.115   .     S
C24    H44     1.110   .     S
C24    O56     1.414   .     S
C24    H175    1.110   1_455 S
C25    C27     1.406   .     A
C25    H49     1.082   .     S
C26    H50     1.082   .     S
C26    N53     1.362   .     A
C27    N54     1.364   .     A
C27    H51     1.081   .     S
C28    N53     1.362   .     A
C28    H52     1.082   .     S
C28    C30     1.405   .     A
C29    H36     1.081   .     S
C29    N54     1.363   .     A
C30    H37     1.082   .     S
H39    C154    1.109   1_455 S
H43    C90     1.110   .     S
N53    Zn66    2.002   .     S
N54    Zn65    2.002   .     S
O55    Zn65    1.998   .     S
O56    C140    1.394   1_455 S
O57    Zn66    1.998   .     S
O58    Zn66    1.995   .     S
O59    Zn65    1.995   .     S
O60    Zn65    1.980   .     S
O61    Zn66    1.980   .     S
O62    Zn66    1.992   .     S
O63    Zn65    1.992   .     S
O64    C73     1.395   .     S
C67    O121    1.285   .     A
C67    O124    1.286   .     A
C67    C80     1.439   .     S
C68    C70     1.410   .     A
C68    H104    1.082   .     S
C68    C95     1.406   .     A
C69    C96     1.411   .     A
C69    C89     1.411   .     A
C69    C466    1.511   1_554 S
C70    C91     1.410   .     A
C70    C465    1.511   .     S
C71    O128    1.281   .     A
C71    C73     1.416   .     S
C71    O126    1.274   .     A
C72    O129    1.279   .     A
C72    O127    1.275   .     A
C72    C74     1.413   .     S
C74    C139    1.350   .     S
C74    O188    1.394   .     S
C75    C77     1.381   .     A
C75    H101    1.084   .     S
C75    C86     1.398   .     A
C76    H111    1.084   .     S
C76    C79     1.381   .     A
C76    C87     1.398   .     A
C77    F97     1.358   .     S
C77    C80     1.402   .     A
C78    C81     1.439   .     S
C78    O123    1.285   .     A
C78    O125    1.286   .     A
C79    F98     1.358   .     S
C79    C81     1.402   .     A
C80    C82     1.400   .     A
C81    C83     1.400   .     A
C82    C84     1.382   .     A
C82    H112    1.084   .     S
C83    C85     1.382   .     A
C83    H113    1.084   .     S
C84    C86     1.399   .     A
C84    F99     1.358   .     S
C85    F100    1.358   .     S
C85    C87     1.399   .     A
C86    C285    1.441   1_545 S
C87    C284    1.441   .     S
C88    H106    1.115   .     S
C88    H107    1.109   .     S
C88    O130    1.413   .     S
C88    H171    1.109   .     S
C89    C92     1.406   .     A
C89    H114    1.082   .     S
C90    H108    1.115   .     S
C90    H110    1.110   .     S
C90    O122    1.414   .     S
C91    C93     1.406   .     A
C91    H115    1.082   .     S
C92    H116    1.082   .     S
C92    N119    1.362   .     A
C93    N120    1.364   .     A
C93    H117    1.081   .     S
C94    N119    1.362   .     A
C94    H118    1.082   .     S
C94    C96     1.405   .     A
C95    H102    1.081   .     S
C95    N120    1.363   .     A
C96    H103    1.082   .     S
H109   C156    1.110   .     S
N119   Zn132   2.002   .     S
N120   Zn131   2.002   .     S
O121   Zn131   1.998   .     S
O123   Zn132   1.998   .     S
O124   Zn132   1.995   .     S
O125   Zn131   1.995   .     S
O126   Zn131   1.980   .     S
O127   Zn132   1.980   .     S
O128   Zn132   1.992   .     S
O129   Zn131   1.992   .     S
O130   C139    1.395   .     S
C133   O187    1.285   .     A
C133   O190    1.286   .     A
C133   C146    1.439   .     S
C134   C136    1.410   .     A
C134   H170    1.082   .     S
C134   C161    1.406   .     A
C135   C162    1.411   .     A
C135   C155    1.411   .     A
C135   C532    1.511   1_554 S
C136   C157    1.410   .     A
C136   C531    1.511   .     S
C137   O194    1.281   .     A
C137   C139    1.416   .     S
C137   O192    1.274   .     A
C138   O195    1.279   .     A
C138   O193    1.275   .     A
C138   C140    1.413   .     S
C140   C7      1.350   1_655 S
C140   O56     1.394   1_655 S
C141   C143    1.381   .     A
C141   H167    1.084   .     S
C141   C152    1.398   .     A
C142   H177    1.084   .     S
C142   C145    1.381   .     A
C142   C153    1.398   .     A
C143   F163    1.358   .     S
C143   C146    1.402   .     A
C144   C147    1.439   .     S
C144   O189    1.285   .     A
C144   O191    1.286   .     A
C145   F164    1.358   .     S
C145   C147    1.402   .     A
C146   C148    1.400   .     A
C147   C149    1.400   .     A
C148   C150    1.382   .     A
C148   H178    1.084   .     S
C149   C151    1.382   .     A
C149   H179    1.084   .     S
C150   C152    1.399   .     A
C150   F165    1.358   .     S
C151   F166    1.358   .     S
C151   C153    1.399   .     A
C152   C351    1.441   1_545 S
C153   C350    1.441   .     S
C154   H172    1.115   .     S
C154   H173    1.109   .     S
C154   O196    1.413   .     S
C154   H39     1.109   1_655 S
C155   C158    1.406   .     A
C155   H180    1.082   .     S
C156   H174    1.115   .     S
C156   H176    1.110   .     S
C156   O188    1.414   .     S
C157   C159    1.406   .     A
C157   H181    1.082   .     S
C158   H182    1.082   .     S
C158   N185    1.362   .     A
C159   N186    1.364   .     A
C159   H183    1.081   .     S
C160   N185    1.362   .     A
C160   H184    1.082   .     S
C160   C162    1.405   .     A
C161   H168    1.081   .     S
C161   N186    1.363   .     A
C162   H169    1.082   .     S
H175   C24     1.110   1_655 S
N185   Zn198   2.002   .     S
N186   Zn197   2.002   .     S
O187   Zn197   1.998   .     S
O189   Zn198   1.998   .     S
O190   Zn198   1.995   .     S
O191   Zn197   1.995   .     S
O192   Zn197   1.980   .     S
O193   Zn198   1.980   .     S
O194   Zn198   1.992   .     S
O195   Zn197   1.992   .     S
O196   C7      1.395   1_655 S
C199   O253    1.285   .     A
C199   O256    1.286   .     A
C199   C212    1.439   .     S
C200   C202    1.410   .     A
C200   H236    1.082   .     S
C200   C227    1.406   .     A
C201   C228    1.411   .     A
C201   C221    1.411   .     A
C201   C598    1.511   1_554 S
C202   C223    1.410   .     A
C202   C597    1.511   .     S
C203   O260    1.281   .     A
C203   C205    1.416   .     S
C203   O258    1.274   .     A
C204   O261    1.279   .     A
C204   O259    1.275   .     A
C204   C206    1.413   .     S
C205   C338    1.350   1_455 S
C205   O394    1.395   1_455 S
C206   C271    1.350   .     S
C206   O320    1.394   .     S
C207   C209    1.381   .     A
C207   H233    1.084   .     S
C207   C218    1.398   .     A
C208   H243    1.084   .     S
C208   C211    1.381   .     A
C208   C219    1.398   .     A
C209   F229    1.358   .     S
C209   C212    1.402   .     A
C210   C213    1.439   .     S
C210   O255    1.285   .     A
C210   O257    1.286   .     A
C211   F230    1.358   .     S
C211   C213    1.402   .     A
C212   C214    1.400   .     A
C213   C215    1.400   .     A
C214   C216    1.382   .     A
C214   H244    1.084   .     S
C215   C217    1.382   .     A
C215   H245    1.084   .     S
C216   C218    1.399   .     A
C216   F231    1.358   .     S
C217   F232    1.358   .     S
C217   C219    1.399   .     A
C219   C20     1.441   1_565 S
C220   H238    1.115   .     S
C220   H239    1.109   .     S
C220   O262    1.413   .     S
C220   H303    1.109   .     S
C221   C224    1.406   .     A
C221   H246    1.082   .     S
C222   H240    1.115   .     S
C222   H242    1.110   .     S
C222   O254    1.414   .     S
C222   H373    1.110   1_455 S
C223   C225    1.406   .     A
C223   H247    1.082   .     S
C224   H248    1.082   .     S
C224   N251    1.362   .     A
C225   N252    1.364   .     A
C225   H249    1.081   .     S
C226   N251    1.362   .     A
C226   H250    1.082   .     S
C226   C228    1.405   .     A
C227   H234    1.081   .     S
C227   N252    1.363   .     A
C228   H235    1.082   .     S
H237   C352    1.109   1_455 S
H241   C288    1.110   .     S
N251   Zn264   2.002   .     S
N252   Zn263   2.002   .     S
O253   Zn263   1.998   .     S
O254   C338    1.394   1_455 S
O255   Zn264   1.998   .     S
O256   Zn264   1.995   .     S
O257   Zn263   1.995   .     S
O258   Zn263   1.980   .     S
O259   Zn264   1.980   .     S
O260   Zn264   1.992   .     S
O261   Zn263   1.992   .     S
O262   C271    1.395   .     S
C265   O319    1.285   .     A
C265   O322    1.286   .     A
C265   C278    1.439   .     S
C266   C268    1.410   .     A
C266   H302    1.082   .     S
C266   C293    1.406   .     A
C267   C294    1.411   .     A
C267   C287    1.411   .     A
C267   C664    1.511   1_554 S
C268   C289    1.410   .     A
C268   C663    1.511   .     S
C269   O326    1.281   .     A
C269   C271    1.416   .     S
C269   O324    1.274   .     A
C270   O327    1.279   .     A
C270   O325    1.275   .     A
C270   C272    1.413   .     S
C272   C337    1.350   .     S
C272   O386    1.394   .     S
C273   C275    1.381   .     A
C273   H299    1.084   .     S
C273   C284    1.398   .     A
C274   H309    1.084   .     S
C274   C277    1.381   .     A
C274   C285    1.398   .     A
C275   F295    1.358   .     S
C275   C278    1.402   .     A
C276   C279    1.439   .     S
C276   O321    1.285   .     A
C276   O323    1.286   .     A
C277   F296    1.358   .     S
C277   C279    1.402   .     A
C278   C280    1.400   .     A
C279   C281    1.400   .     A
C280   C282    1.382   .     A
C280   H310    1.084   .     S
C281   C283    1.382   .     A
C281   H311    1.084   .     S
C282   C284    1.399   .     A
C282   F297    1.358   .     S
C283   F298    1.358   .     S
C283   C285    1.399   .     A
C285   C86     1.441   1_565 S
C286   H304    1.115   .     S
C286   H305    1.109   .     S
C286   O328    1.413   .     S
C286   H369    1.109   .     S
C287   C290    1.406   .     A
C287   H312    1.082   .     S
C288   H306    1.115   .     S
C288   H308    1.110   .     S
C288   O320    1.414   .     S
C289   C291    1.406   .     A
C289   H313    1.082   .     S
C290   H314    1.082   .     S
C290   N317    1.362   .     A
C291   N318    1.364   .     A
C291   H315    1.081   .     S
C292   N317    1.362   .     A
C292   H316    1.082   .     S
C292   C294    1.405   .     A
C293   H300    1.081   .     S
C293   N318    1.363   .     A
C294   H301    1.082   .     S
H307   C354    1.110   .     S
N317   Zn330   2.002   .     S
N318   Zn329   2.002   .     S
O319   Zn329   1.998   .     S
O321   Zn330   1.998   .     S
O322   Zn330   1.995   .     S
O323   Zn329   1.995   .     S
O324   Zn329   1.980   .     S
O325   Zn330   1.980   .     S
O326   Zn330   1.992   .     S
O327   Zn329   1.992   .     S
O328   C337    1.395   .     S
C331   O385    1.285   .     A
C331   O388    1.286   .     A
C331   C344    1.439   .     S
C332   C334    1.410   .     A
C332   H368    1.082   .     S
C332   C359    1.406   .     A
C333   C360    1.411   .     A
C333   C353    1.411   .     A
C333   C730    1.511   1_554 S
C334   C355    1.410   .     A
C334   C729    1.511   .     S
C335   O392    1.281   .     A
C335   C337    1.416   .     S
C335   O390    1.274   .     A
C336   O393    1.279   .     A
C336   O391    1.275   .     A
C336   C338    1.413   .     S
C338   C205    1.350   1_655 S
C338   O254    1.394   1_655 S
C339   C341    1.381   .     A
C339   H365    1.084   .     S
C339   C350    1.398   .     A
C340   H375    1.084   .     S
C340   C343    1.381   .     A
C340   C351    1.398   .     A
C341   F361    1.358   .     S
C341   C344    1.402   .     A
C342   C345    1.439   .     S
C342   O387    1.285   .     A
C342   O389    1.286   .     A
C343   F362    1.358   .     S
C343   C345    1.402   .     A
C344   C346    1.400   .     A
C345   C347    1.400   .     A
C346   C348    1.382   .     A
C346   H376    1.084   .     S
C347   C349    1.382   .     A
C347   H377    1.084   .     S
C348   C350    1.399   .     A
C348   F363    1.358   .     S
C349   F364    1.358   .     S
C349   C351    1.399   .     A
C351   C152    1.441   1_565 S
C352   H370    1.115   .     S
C352   H371    1.109   .     S
C352   O394    1.413   .     S
C352   H237    1.109   1_655 S
C353   C356    1.406   .     A
C353   H378    1.082   .     S
C354   H372    1.115   .     S
C354   H374    1.110   .     S
C354   O386    1.414   .     S
C355   C357    1.406   .     A
C355   H379    1.082   .     S
C356   H380    1.082   .     S
C356   N383    1.362   .     A
C357   N384    1.364   .     A
C357   H381    1.081   .     S
C358   N383    1.362   .     A
C358   H382    1.082   .     S
C358   C360    1.405   .     A
C359   H366    1.081   .     S
C359   N384    1.363   .     A
C360   H367    1.082   .     S
H373   C222    1.110   1_655 S
N383   Zn396   2.002   .     S
N384   Zn395   2.002   .     S
O385   Zn395   1.998   .     S
O387   Zn396   1.998   .     S
O388   Zn396   1.995   .     S
O389   Zn395   1.995   .     S
O390   Zn395   1.980   .     S
O391   Zn396   1.980   .     S
O392   Zn396   1.992   .     S
O393   Zn395   1.992   .     S
O394   C205    1.395   1_655 S
C397   O451    1.285   .     A
C397   O454    1.286   .     A
C397   C410    1.439   .     S
C398   C400    1.410   .     A
C398   H434    1.082   .     S
C398   C425    1.406   .     A
C399   C426    1.411   .     A
C399   C419    1.411   .     A
C400   C421    1.410   .     A
C400   C3      1.511   1_556 S
C401   O458    1.281   .     A
C401   C403    1.416   .     S
C401   O456    1.274   .     A
C402   O459    1.279   .     A
C402   O457    1.275   .     A
C402   C404    1.413   .     S
C403   C536    1.350   1_455 S
C403   O592    1.395   1_455 S
C404   C469    1.350   .     S
C404   O518    1.394   .     S
C405   C407    1.381   .     A
C405   H431    1.084   .     S
C405   C416    1.398   .     A
C406   H441    1.084   .     S
C406   C409    1.381   .     A
C406   C417    1.398   .     A
C407   F427    1.358   .     S
C407   C410    1.402   .     A
C408   C411    1.439   .     S
C408   O453    1.285   .     A
C408   O455    1.286   .     A
C409   F428    1.358   .     S
C409   C411    1.402   .     A
C410   C412    1.400   .     A
C411   C413    1.400   .     A
C412   C414    1.382   .     A
C412   H442    1.084   .     S
C413   C415    1.382   .     A
C413   H443    1.084   .     S
C414   C416    1.399   .     A
C414   F429    1.358   .     S
C415   F430    1.358   .     S
C415   C417    1.399   .     A
C416   C615    1.441   1_545 S
C417   C614    1.441   .     S
C418   H436    1.115   .     S
C418   H437    1.109   .     S
C418   O460    1.413   .     S
C418   H501    1.109   .     S
C419   C422    1.406   .     A
C419   H444    1.082   .     S
C420   H438    1.115   .     S
C420   H440    1.110   .     S
C420   O452    1.414   .     S
C420   H571    1.110   1_455 S
C421   C423    1.406   .     A
C421   H445    1.082   .     S
C422   H446    1.082   .     S
C422   N449    1.362   .     A
C423   N450    1.364   .     A
C423   H447    1.081   .     S
C424   N449    1.362   .     A
C424   H448    1.082   .     S
C424   C426    1.405   .     A
C425   H432    1.081   .     S
C425   N450    1.363   .     A
C426   H433    1.082   .     S
H435   C550    1.109   1_455 S
H439   C486    1.110   .     S
N449   Zn462   2.002   .     S
N450   Zn461   2.002   .     S
O451   Zn461   1.998   .     S
O452   C536    1.394   1_455 S
O453   Zn462   1.998   .     S
O454   Zn462   1.995   .     S
O455   Zn461   1.995   .     S
O456   Zn461   1.980   .     S
O457   Zn462   1.980   .     S
O458   Zn462   1.992   .     S
O459   Zn461   1.992   .     S
O460   C469    1.395   .     S
C463   O517    1.285   .     A
C463   O520    1.286   .     A
C463   C476    1.439   .     S
C464   C466    1.410   .     A
C464   H500    1.082   .     S
C464   C491    1.406   .     A
C465   C492    1.411   .     A
C465   C485    1.411   .     A
C466   C487    1.410   .     A
C466   C69     1.511   1_556 S
C467   O524    1.281   .     A
C467   C469    1.416   .     S
C467   O522    1.274   .     A
C468   O525    1.279   .     A
C468   O523    1.275   .     A
C468   C470    1.413   .     S
C470   C535    1.350   .     S
C470   O584    1.394   .     S
C471   C473    1.381   .     A
C471   H497    1.084   .     S
C471   C482    1.398   .     A
C472   H507    1.084   .     S
C472   C475    1.381   .     A
C472   C483    1.398   .     A
C473   F493    1.358   .     S
C473   C476    1.402   .     A
C474   C477    1.439   .     S
C474   O519    1.285   .     A
C474   O521    1.286   .     A
C475   F494    1.358   .     S
C475   C477    1.402   .     A
C476   C478    1.400   .     A
C477   C479    1.400   .     A
C478   C480    1.382   .     A
C478   H508    1.084   .     S
C479   C481    1.382   .     A
C479   H509    1.084   .     S
C480   C482    1.399   .     A
C480   F495    1.358   .     S
C481   F496    1.358   .     S
C481   C483    1.399   .     A
C482   C681    1.441   1_545 S
C483   C680    1.441   .     S
C484   H502    1.115   .     S
C484   H503    1.109   .     S
C484   O526    1.413   .     S
C484   H567    1.109   .     S
C485   C488    1.406   .     A
C485   H510    1.082   .     S
C486   H504    1.115   .     S
C486   H506    1.110   .     S
C486   O518    1.414   .     S
C487   C489    1.406   .     A
C487   H511    1.082   .     S
C488   H512    1.082   .     S
C488   N515    1.362   .     A
C489   N516    1.364   .     A
C489   H513    1.081   .     S
C490   N515    1.362   .     A
C490   H514    1.082   .     S
C490   C492    1.405   .     A
C491   H498    1.081   .     S
C491   N516    1.363   .     A
C492   H499    1.082   .     S
H505   C552    1.110   .     S
N515   Zn528   2.002   .     S
N516   Zn527   2.002   .     S
O517   Zn527   1.998   .     S
O519   Zn528   1.998   .     S
O520   Zn528   1.995   .     S
O521   Zn527   1.995   .     S
O522   Zn527   1.980   .     S
O523   Zn528   1.980   .     S
O524   Zn528   1.992   .     S
O525   Zn527   1.992   .     S
O526   C535    1.395   .     S
C529   O583    1.285   .     A
C529   O586    1.286   .     A
C529   C542    1.439   .     S
C530   C532    1.410   .     A
C530   H566    1.082   .     S
C530   C557    1.406   .     A
C531   C558    1.411   .     A
C531   C551    1.411   .     A
C532   C553    1.410   .     A
C532   C135    1.511   1_556 S
C533   O590    1.281   .     A
C533   C535    1.416   .     S
C533   O588    1.274   .     A
C534   O591    1.279   .     A
C534   O589    1.275   .     A
C534   C536    1.413   .     S
C536   C403    1.350   1_655 S
C536   O452    1.394   1_655 S
C537   C539    1.381   .     A
C537   H563    1.084   .     S
C537   C548    1.398   .     A
C538   H573    1.084   .     S
C538   C541    1.381   .     A
C538   C549    1.398   .     A
C539   F559    1.358   .     S
C539   C542    1.402   .     A
C540   C543    1.439   .     S
C540   O585    1.285   .     A
C540   O587    1.286   .     A
C541   F560    1.358   .     S
C541   C543    1.402   .     A
C542   C544    1.400   .     A
C543   C545    1.400   .     A
C544   C546    1.382   .     A
C544   H574    1.084   .     S
C545   C547    1.382   .     A
C545   H575    1.084   .     S
C546   C548    1.399   .     A
C546   F561    1.358   .     S
C547   F562    1.358   .     S
C547   C549    1.399   .     A
C548   C747    1.441   1_545 S
C549   C746    1.441   .     S
C550   H568    1.115   .     S
C550   H569    1.109   .     S
C550   O592    1.413   .     S
C550   H435    1.109   1_655 S
C551   C554    1.406   .     A
C551   H576    1.082   .     S
C552   H570    1.115   .     S
C552   H572    1.110   .     S
C552   O584    1.414   .     S
C553   C555    1.406   .     A
C553   H577    1.082   .     S
C554   H578    1.082   .     S
C554   N581    1.362   .     A
C555   N582    1.364   .     A
C555   H579    1.081   .     S
C556   N581    1.362   .     A
C556   H580    1.082   .     S
C556   C558    1.405   .     A
C557   H564    1.081   .     S
C557   N582    1.363   .     A
C558   H565    1.082   .     S
H571   C420    1.110   1_655 S
N581   Zn594   2.002   .     S
N582   Zn593   2.002   .     S
O583   Zn593   1.998   .     S
O585   Zn594   1.998   .     S
O586   Zn594   1.995   .     S
O587   Zn593   1.995   .     S
O588   Zn593   1.980   .     S
O589   Zn594   1.980   .     S
O590   Zn594   1.992   .     S
O591   Zn593   1.992   .     S
O592   C403    1.395   1_655 S
C595   O649    1.285   .     A
C595   O652    1.286   .     A
C595   C608    1.439   .     S
C596   C598    1.410   .     A
C596   H632    1.082   .     S
C596   C623    1.406   .     A
C597   C624    1.411   .     A
C597   C617    1.411   .     A
C598   C619    1.410   .     A
C598   C201    1.511   1_556 S
C599   O656    1.281   .     A
C599   C601    1.416   .     S
C599   O654    1.274   .     A
C600   O657    1.279   .     A
C600   O655    1.275   .     A
C600   C602    1.413   .     S
C601   C734    1.350   1_455 S
C601   O790    1.395   1_455 S
C602   C667    1.350   .     S
C602   O716    1.394   .     S
C603   C605    1.381   .     A
C603   H629    1.084   .     S
C603   C614    1.398   .     A
C604   H639    1.084   .     S
C604   C607    1.381   .     A
C604   C615    1.398   .     A
C605   F625    1.358   .     S
C605   C608    1.402   .     A
C606   C609    1.439   .     S
C606   O651    1.285   .     A
C606   O653    1.286   .     A
C607   F626    1.358   .     S
C607   C609    1.402   .     A
C608   C610    1.400   .     A
C609   C611    1.400   .     A
C610   C612    1.382   .     A
C610   H640    1.084   .     S
C611   C613    1.382   .     A
C611   H641    1.084   .     S
C612   C614    1.399   .     A
C612   F627    1.358   .     S
C613   F628    1.358   .     S
C613   C615    1.399   .     A
C615   C416    1.441   1_565 S
C616   H634    1.115   .     S
C616   H635    1.109   .     S
C616   O658    1.413   .     S
C616   H699    1.109   .     S
C617   C620    1.406   .     A
C617   H642    1.082   .     S
C618   H636    1.115   .     S
C618   H638    1.110   .     S
C618   O650    1.414   .     S
C618   H769    1.110   1_455 S
C619   C621    1.406   .     A
C619   H643    1.082   .     S
C620   H644    1.082   .     S
C620   N647    1.362   .     A
C621   N648    1.364   .     A
C621   H645    1.081   .     S
C622   N647    1.362   .     A
C622   H646    1.082   .     S
C622   C624    1.405   .     A
C623   H630    1.081   .     S
C623   N648    1.363   .     A
C624   H631    1.082   .     S
H633   C748    1.109   1_455 S
H637   C684    1.110   .     S
N647   Zn660   2.002   .     S
N648   Zn659   2.002   .     S
O649   Zn659   1.998   .     S
O650   C734    1.394   1_455 S
O651   Zn660   1.998   .     S
O652   Zn660   1.995   .     S
O653   Zn659   1.995   .     S
O654   Zn659   1.980   .     S
O655   Zn660   1.980   .     S
O656   Zn660   1.992   .     S
O657   Zn659   1.992   .     S
O658   C667    1.395   .     S
C661   O715    1.285   .     A
C661   O718    1.286   .     A
C661   C674    1.439   .     S
C662   C664    1.410   .     A
C662   H698    1.082   .     S
C662   C689    1.406   .     A
C663   C690    1.411   .     A
C663   C683    1.411   .     A
C664   C685    1.410   .     A
C664   C267    1.511   1_556 S
C665   O722    1.281   .     A
C665   C667    1.416   .     S
C665   O720    1.274   .     A
C666   O723    1.279   .     A
C666   O721    1.275   .     A
C666   C668    1.413   .     S
C668   C733    1.350   .     S
C668   O782    1.394   .     S
C669   C671    1.381   .     A
C669   H695    1.084   .     S
C669   C680    1.398   .     A
C670   H705    1.084   .     S
C670   C673    1.381   .     A
C670   C681    1.398   .     A
C671   F691    1.358   .     S
C671   C674    1.402   .     A
C672   C675    1.439   .     S
C672   O717    1.285   .     A
C672   O719    1.286   .     A
C673   F692    1.358   .     S
C673   C675    1.402   .     A
C674   C676    1.400   .     A
C675   C677    1.400   .     A
C676   C678    1.382   .     A
C676   H706    1.084   .     S
C677   C679    1.382   .     A
C677   H707    1.084   .     S
C678   C680    1.399   .     A
C678   F693    1.358   .     S
C679   F694    1.358   .     S
C679   C681    1.399   .     A
C681   C482    1.441   1_565 S
C682   H700    1.115   .     S
C682   H701    1.109   .     S
C682   O724    1.413   .     S
C682   H765    1.109   .     S
C683   C686    1.406   .     A
C683   H708    1.082   .     S
C684   H702    1.115   .     S
C684   H704    1.110   .     S
C684   O716    1.414   .     S
C685   C687    1.406   .     A
C685   H709    1.082   .     S
C686   H710    1.082   .     S
C686   N713    1.362   .     A
C687   N714    1.364   .     A
C687   H711    1.081   .     S
C688   N713    1.362   .     A
C688   H712    1.082   .     S
C688   C690    1.405   .     A
C689   H696    1.081   .     S
C689   N714    1.363   .     A
C690   H697    1.082   .     S
H703   C750    1.110   .     S
N713   Zn726   2.002   .     S
N714   Zn725   2.002   .     S
O715   Zn725   1.998   .     S
O717   Zn726   1.998   .     S
O718   Zn726   1.995   .     S
O719   Zn725   1.995   .     S
O720   Zn725   1.980   .     S
O721   Zn726   1.980   .     S
O722   Zn726   1.992   .     S
O723   Zn725   1.992   .     S
O724   C733    1.395   .     S
C727   O781    1.285   .     A
C727   O784    1.286   .     A
C727   C740    1.439   .     S
C728   C730    1.410   .     A
C728   H764    1.082   .     S
C728   C755    1.406   .     A
C729   C756    1.411   .     A
C729   C749    1.411   .     A
C730   C751    1.410   .     A
C730   C333    1.511   1_556 S
C731   O788    1.281   .     A
C731   C733    1.416   .     S
C731   O786    1.274   .     A
C732   O789    1.279   .     A
C732   O787    1.275   .     A
C732   C734    1.413   .     S
C734   C601    1.350   1_655 S
C734   O650    1.394   1_655 S
C735   C737    1.381   .     A
C735   H761    1.084   .     S
C735   C746    1.398   .     A
C736   H771    1.084   .     S
C736   C739    1.381   .     A
C736   C747    1.398   .     A
C737   F757    1.358   .     S
C737   C740    1.402   .     A
C738   C741    1.439   .     S
C738   O783    1.285   .     A
C738   O785    1.286   .     A
C739   F758    1.358   .     S
C739   C741    1.402   .     A
C740   C742    1.400   .     A
C741   C743    1.400   .     A
C742   C744    1.382   .     A
C742   H772    1.084   .     S
C743   C745    1.382   .     A
C743   H773    1.084   .     S
C744   C746    1.399   .     A
C744   F759    1.358   .     S
C745   F760    1.358   .     S
C745   C747    1.399   .     A
C747   C548    1.441   1_565 S
C748   H766    1.115   .     S
C748   H767    1.109   .     S
C748   O790    1.413   .     S
C748   H633    1.109   1_655 S
C749   C752    1.406   .     A
C749   H774    1.082   .     S
C750   H768    1.115   .     S
C750   H770    1.110   .     S
C750   O782    1.414   .     S
C751   C753    1.406   .     A
C751   H775    1.082   .     S
C752   H776    1.082   .     S
C752   N779    1.362   .     A
C753   N780    1.364   .     A
C753   H777    1.081   .     S
C754   N779    1.362   .     A
C754   H778    1.082   .     S
C754   C756    1.405   .     A
C755   H762    1.081   .     S
C755   N780    1.363   .     A
C756   H763    1.082   .     S
H769   C618    1.110   1_655 S
N779   Zn792   2.002   .     S
N780   Zn791   2.002   .     S
O781   Zn791   1.998   .     S
O783   Zn792   1.998   .     S
O784   Zn792   1.995   .     S
O785   Zn791   1.995   .     S
O786   Zn791   1.980   .     S
O787   Zn792   1.980   .     S
O788   Zn792   1.992   .     S
O789   Zn791   1.992   .     S
O790   C601    1.395   1_655 S
