data_str_m1_o10_o18_pcu_sym.162
_audit_creation_date              2020-01-03
_audit_creation_method            'Materials Studio'
_symmetry_space_group_name_H-M    'P1'
_symmetry_Int_Tables_number       1
_symmetry_cell_setting            triclinic
loop_
_symmetry_equiv_pos_as_xyz
  x,y,z
_cell_length_a                    32.5309
_cell_length_b                    32.5499
_cell_length_c                    35.6839
_cell_angle_alpha                 98.1542
_cell_angle_beta                  73.1289
_cell_angle_gamma                 98.7892
loop_
_atom_site_label
_atom_site_type_symbol
_atom_site_fract_x
_atom_site_fract_y
_atom_site_fract_z
_atom_site_U_iso_or_equiv
_atom_site_adp_type
_atom_site_occupancy
C1     C     0.05250   0.15986   0.25867   0.00000  Uiso   1.00
C2     C     0.17620   0.11406   0.46400   0.00000  Uiso   1.00
C3     C     0.19639   0.09429   0.48489   0.00000  Uiso   1.00
C4     C     0.28108   0.17352   0.24115   0.00000  Uiso   1.00
C5     C     0.19623   0.10900   0.02352   0.00000  Uiso   1.00
C6     C     0.17449   0.14395   0.04276   0.00000  Uiso   1.00
C7     C     0.21609   0.08771   0.04366   0.00000  Uiso   1.00
C8     C     0.21405   0.10032   0.08292   0.00000  Uiso   1.00
C9     C     0.17826   0.16013   0.08102   0.00000  Uiso   1.00
C10    C     0.32709   0.17619   0.23753   0.00000  Uiso   1.00
C11    C     0.00711   0.15730   0.26196   0.00000  Uiso   1.00
C12    C     0.10091   0.21900   0.42010   0.00000  Uiso   1.00
C13    C     0.18057   0.32194   0.23616   0.00000  Uiso   1.00
C14    C     0.15257   0.01219   0.26202   0.00000  Uiso   1.00
C15    C     0.15532   0.05624   0.25948   0.00000  Uiso   1.00
C16    C     0.17670   0.27760   0.24087   0.00000  Uiso   1.00
C17    C     0.18819   0.14512   0.14402   0.00000  Uiso   1.00
C18    C     0.14545   0.18777   0.35618   0.00000  Uiso   1.00
C19    C     0.13358   0.19443   0.39949   0.00000  Uiso   1.00
C20    C     0.19535   0.13631   0.10162   0.00000  Uiso   1.00
C21    C     0.08869   0.22465   0.46127   0.00000  Uiso   1.00
C22    C     0.07724   0.26798   0.06921   0.00000  Uiso   1.00
C23    C     0.15353   0.17454   0.42029   0.00000  Uiso   1.00
C24    C     0.21467   0.00598   0.20255   0.00000  Uiso   1.00
C25    C     0.21309   0.32582   0.16379   0.00000  Uiso   1.00
C26    C     0.24479   0.00887   0.13206   0.00000  Uiso   1.00
C27    C     0.27828   0.03877   0.13883   0.00000  Uiso   1.00
C28    C     0.28027   0.05213   0.17733   0.00000  Uiso   1.00
C29    C     0.24873   0.03567   0.20911   0.00000  Uiso   1.00
C30    C     0.19915   0.23472   0.08112   0.00000  Uiso   1.00
C31    C     0.07159   0.29565   0.47789   0.00000  Uiso   1.00
C32    C     0.12982   0.07039   0.42866   0.00000  Uiso   1.00
C33    C     0.13867   0.17522   0.46149   0.00000  Uiso   1.00
C34    C     0.10748   0.20268   0.48268   0.00000  Uiso   1.00
C35    C     0.15569   0.15047   0.48207   0.00000  Uiso   1.00
C36    C     0.14992   0.16121   0.02300   0.00000  Uiso   1.00
C37    C     0.11682   0.18576   0.04363   0.00000  Uiso   1.00
C38    C     0.09573   0.20642   0.02432   0.00000  Uiso   1.00
H39    H     0.23167   0.06022   0.02950   0.00000  Uiso   1.00
H40    H     0.03706   0.21277   0.06504   0.00000  Uiso   1.00
H41    H     0.05019   0.28730   0.08200   0.00000  Uiso   1.00
H42    H     0.10415   0.28672   0.04954   0.00000  Uiso   1.00
H43    H     0.08845   0.25990   0.09356   0.00000  Uiso   1.00
H44    H     0.18711   0.30289   0.15826   0.00000  Uiso   1.00
H45    H     0.24332   0.33188   0.10223   0.00000  Uiso   1.00
H46    H     0.30271   0.05153   0.11424   0.00000  Uiso   1.00
H47    H     0.30629   0.07518   0.18254   0.00000  Uiso   1.00
H48    H     0.25092   0.04595   0.23876   0.00000  Uiso   1.00
H49    H     0.15652   0.20548   0.12788   0.00000  Uiso   1.00
H50    H     0.01684   0.19360   0.21495   0.00000  Uiso   1.00
H51    H     0.18604   0.26497   0.09253   0.00000  Uiso   1.00
H52    H     0.20628   0.23144   0.04852   0.00000  Uiso   1.00
H53    H     0.22950   0.23494   0.08954   0.00000  Uiso   1.00
H54    H     0.02824   0.24314   0.47264   0.00000  Uiso   1.00
H55    H     0.04650   0.31445   0.49760   0.00000  Uiso   1.00
H56    H     0.07764   0.30330   0.44724   0.00000  Uiso   1.00
H57    H     0.10184   0.30424   0.48715   0.00000  Uiso   1.00
H58    H     0.19679   0.07627   0.41181   0.00000  Uiso   1.00
H59    H     0.12870   0.05706   0.39850   0.00000  Uiso   1.00
H60    H     0.10392   0.09119   0.44060   0.00000  Uiso   1.00
H61    H     0.31802   0.13976   0.28477   0.00000  Uiso   1.00
H62    H     0.12376   0.04444   0.44744   0.00000  Uiso   1.00
H63    H     0.12801   0.33268   0.28665   0.00000  Uiso   1.00
H64    H     0.22708   0.08197   0.09884   0.00000  Uiso   1.00
H65    H     0.21133   0.06633   0.47106   0.00000  Uiso   1.00
H66    H     0.08506   0.23461   0.40427   0.00000  Uiso   1.00
H67    H     0.18144   0.15921   0.40383   0.00000  Uiso   1.00
H68    H     0.10506   0.18757   0.07532   0.00000  Uiso   1.00
N69    N     0.06241   0.23047   0.04742   0.00000  Uiso   1.00
N70    N     0.16760   0.20102   0.09763   0.00000  Uiso   1.00
N71    N     0.05669   0.25165   0.48055   0.00000  Uiso   1.00
N72    N     0.17187   0.09351   0.42708   0.00000  Uiso   1.00
O73    O     0.16667   0.16667   0.25000   0.00000  Uiso   1.00
O74    O     0.15693   0.12393   0.16625   0.00000  Uiso   1.00
O75    O     0.12687   0.20646   0.33749   0.00000  Uiso   1.00
O76    O     0.21088   0.17493   0.15877   0.00000  Uiso   1.00
O77    O     0.17198   0.16135   0.33749   0.00000  Uiso   1.00
O78    O     0.17849   0.08101   0.27820   0.00000  Uiso   1.00
O79    O     0.14581   0.26136   0.26767   0.00000  Uiso   1.00
O80    O     0.07452   0.13251   0.23607   0.00000  Uiso   1.00
O81    O     0.26785   0.19179   0.21805   0.00000  Uiso   1.00
O82    O     0.06990   0.18960   0.27820   0.00000  Uiso   1.00
O83    O     0.25440   0.15277   0.26767   0.00000  Uiso   1.00
O84    O     0.13800   0.06903   0.23607   0.00000  Uiso   1.00
O85    O     0.20437   0.25527   0.21805   0.00000  Uiso   1.00
Zn86   Zn    0.19244   0.14090   0.28277   0.00000  Uiso   1.00
Zn87   Zn    0.13459   0.12378   0.22257   0.00000  Uiso   1.00
Zn88   Zn    0.21166   0.19664   0.21188   0.00000  Uiso   1.00
Zn89   Zn    0.12798   0.20535   0.28277   0.00000  Uiso   1.00
C90    C     0.38583   0.15986   0.25867   0.00000  Uiso   1.00
C91    C     0.50953   0.11406   0.46400   0.00000  Uiso   1.00
C92    C     0.52972   0.09429   0.48489   0.00000  Uiso   1.00
C93    C     0.61441   0.17352   0.24115   0.00000  Uiso   1.00
C94    C     0.52957   0.10900   0.02352   0.00000  Uiso   1.00
C95    C     0.50782   0.14395   0.04276   0.00000  Uiso   1.00
C96    C     0.54942   0.08771   0.04366   0.00000  Uiso   1.00
C97    C     0.54738   0.10032   0.08292   0.00000  Uiso   1.00
C98    C     0.51159   0.16013   0.08102   0.00000  Uiso   1.00
C99    C     0.66042   0.17619   0.23753   0.00000  Uiso   1.00
C100   C     0.34045   0.15730   0.26196   0.00000  Uiso   1.00
C101   C     0.43424   0.21900   0.42010   0.00000  Uiso   1.00
C102   C     0.51390   0.32194   0.23616   0.00000  Uiso   1.00
C103   C     0.48590   0.01219   0.26202   0.00000  Uiso   1.00
C104   C     0.48865   0.05624   0.25948   0.00000  Uiso   1.00
C105   C     0.51004   0.27760   0.24087   0.00000  Uiso   1.00
C106   C     0.52152   0.14512   0.14402   0.00000  Uiso   1.00
C107   C     0.47878   0.18777   0.35618   0.00000  Uiso   1.00
C108   C     0.46691   0.19443   0.39949   0.00000  Uiso   1.00
C109   C     0.52869   0.13631   0.10162   0.00000  Uiso   1.00
C110   C     0.42203   0.22465   0.46127   0.00000  Uiso   1.00
C111   C     0.41057   0.26798   0.06921   0.00000  Uiso   1.00
C112   C     0.48687   0.17454   0.42029   0.00000  Uiso   1.00
C113   C     0.54800   0.00598   0.20255   0.00000  Uiso   1.00
C114   C     0.54642   0.32582   0.16379   0.00000  Uiso   1.00
C115   C     0.57813   0.00887   0.13206   0.00000  Uiso   1.00
C116   C     0.61162   0.03877   0.13883   0.00000  Uiso   1.00
C117   C     0.61360   0.05213   0.17733   0.00000  Uiso   1.00
C118   C     0.58207   0.03567   0.20911   0.00000  Uiso   1.00
C119   C     0.53248   0.23472   0.08112   0.00000  Uiso   1.00
C120   C     0.40493   0.29565   0.47789   0.00000  Uiso   1.00
C121   C     0.46315   0.07039   0.42866   0.00000  Uiso   1.00
C122   C     0.47201   0.17522   0.46149   0.00000  Uiso   1.00
C123   C     0.44081   0.20268   0.48268   0.00000  Uiso   1.00
C124   C     0.48903   0.15047   0.48207   0.00000  Uiso   1.00
C125   C     0.48325   0.16121   0.02300   0.00000  Uiso   1.00
C126   C     0.45015   0.18576   0.04363   0.00000  Uiso   1.00
C127   C     0.42906   0.20642   0.02432   0.00000  Uiso   1.00
H128   H     0.56501   0.06022   0.02950   0.00000  Uiso   1.00
H129   H     0.37040   0.21277   0.06504   0.00000  Uiso   1.00
H130   H     0.38352   0.28730   0.08200   0.00000  Uiso   1.00
H131   H     0.43749   0.28672   0.04954   0.00000  Uiso   1.00
H132   H     0.42178   0.25990   0.09356   0.00000  Uiso   1.00
H133   H     0.52044   0.30289   0.15826   0.00000  Uiso   1.00
H134   H     0.57665   0.33188   0.10223   0.00000  Uiso   1.00
H135   H     0.63604   0.05153   0.11424   0.00000  Uiso   1.00
H136   H     0.63963   0.07518   0.18254   0.00000  Uiso   1.00
H137   H     0.58426   0.04595   0.23876   0.00000  Uiso   1.00
H138   H     0.48986   0.20548   0.12788   0.00000  Uiso   1.00
H139   H     0.35017   0.19360   0.21495   0.00000  Uiso   1.00
H140   H     0.51937   0.26497   0.09253   0.00000  Uiso   1.00
H141   H     0.53961   0.23144   0.04852   0.00000  Uiso   1.00
H142   H     0.56284   0.23494   0.08954   0.00000  Uiso   1.00
H143   H     0.36157   0.24314   0.47264   0.00000  Uiso   1.00
H144   H     0.37984   0.31445   0.49760   0.00000  Uiso   1.00
H145   H     0.41097   0.30330   0.44724   0.00000  Uiso   1.00
H146   H     0.43517   0.30424   0.48715   0.00000  Uiso   1.00
H147   H     0.53013   0.07627   0.41181   0.00000  Uiso   1.00
H148   H     0.46203   0.05706   0.39850   0.00000  Uiso   1.00
H149   H     0.43725   0.09119   0.44060   0.00000  Uiso   1.00
H150   H     0.65135   0.13976   0.28477   0.00000  Uiso   1.00
H151   H     0.45710   0.04444   0.44744   0.00000  Uiso   1.00
H152   H     0.46134   0.33268   0.28665   0.00000  Uiso   1.00
H153   H     0.56041   0.08197   0.09884   0.00000  Uiso   1.00
H154   H     0.54466   0.06633   0.47106   0.00000  Uiso   1.00
H155   H     0.41839   0.23461   0.40427   0.00000  Uiso   1.00
H156   H     0.51477   0.15921   0.40383   0.00000  Uiso   1.00
H157   H     0.43839   0.18757   0.07532   0.00000  Uiso   1.00
N158   N     0.39574   0.23047   0.04742   0.00000  Uiso   1.00
N159   N     0.50093   0.20102   0.09763   0.00000  Uiso   1.00
N160   N     0.39002   0.25165   0.48055   0.00000  Uiso   1.00
N161   N     0.50520   0.09351   0.42708   0.00000  Uiso   1.00
O162   O     0.50000   0.16667   0.25000   0.00000  Uiso   1.00
O163   O     0.49027   0.12393   0.16625   0.00000  Uiso   1.00
O164   O     0.46020   0.20646   0.33749   0.00000  Uiso   1.00
O165   O     0.54421   0.17493   0.15877   0.00000  Uiso   1.00
O166   O     0.50532   0.16135   0.33749   0.00000  Uiso   1.00
O167   O     0.51182   0.08101   0.27820   0.00000  Uiso   1.00
O168   O     0.47914   0.26136   0.26767   0.00000  Uiso   1.00
O169   O     0.40785   0.13251   0.23607   0.00000  Uiso   1.00
O170   O     0.60119   0.19179   0.21805   0.00000  Uiso   1.00
O171   O     0.40323   0.18960   0.27820   0.00000  Uiso   1.00
O172   O     0.58773   0.15277   0.26767   0.00000  Uiso   1.00
O173   O     0.47133   0.06903   0.23607   0.00000  Uiso   1.00
O174   O     0.53771   0.25527   0.21805   0.00000  Uiso   1.00
Zn175  Zn    0.52577   0.14090   0.28277   0.00000  Uiso   1.00
Zn176  Zn    0.46792   0.12378   0.22257   0.00000  Uiso   1.00
Zn177  Zn    0.54500   0.19664   0.21188   0.00000  Uiso   1.00
Zn178  Zn    0.46131   0.20535   0.28277   0.00000  Uiso   1.00
C179   C     0.71916   0.15986   0.25867   0.00000  Uiso   1.00
C180   C     0.84287   0.11406   0.46400   0.00000  Uiso   1.00
C181   C     0.86305   0.09429   0.48489   0.00000  Uiso   1.00
C182   C     0.94775   0.17352   0.24115   0.00000  Uiso   1.00
C183   C     0.86290   0.10900   0.02352   0.00000  Uiso   1.00
C184   C     0.84115   0.14395   0.04276   0.00000  Uiso   1.00
C185   C     0.88276   0.08771   0.04366   0.00000  Uiso   1.00
C186   C     0.88072   0.10032   0.08292   0.00000  Uiso   1.00
C187   C     0.84492   0.16013   0.08102   0.00000  Uiso   1.00
C188   C     0.99375   0.17619   0.23753   0.00000  Uiso   1.00
C189   C     0.67378   0.15730   0.26196   0.00000  Uiso   1.00
C190   C     0.76757   0.21900   0.42010   0.00000  Uiso   1.00
C191   C     0.84724   0.32194   0.23616   0.00000  Uiso   1.00
C192   C     0.81923   0.01219   0.26202   0.00000  Uiso   1.00
C193   C     0.82199   0.05624   0.25948   0.00000  Uiso   1.00
C194   C     0.84337   0.27760   0.24087   0.00000  Uiso   1.00
C195   C     0.85485   0.14512   0.14402   0.00000  Uiso   1.00
C196   C     0.81211   0.18777   0.35618   0.00000  Uiso   1.00
C197   C     0.80024   0.19443   0.39949   0.00000  Uiso   1.00
C198   C     0.86202   0.13631   0.10162   0.00000  Uiso   1.00
C199   C     0.75536   0.22465   0.46127   0.00000  Uiso   1.00
C200   C     0.74390   0.26798   0.06921   0.00000  Uiso   1.00
C201   C     0.82020   0.17454   0.42029   0.00000  Uiso   1.00
C202   C     0.88133   0.00598   0.20255   0.00000  Uiso   1.00
C203   C     0.87975   0.32582   0.16379   0.00000  Uiso   1.00
C204   C     0.91146   0.00887   0.13206   0.00000  Uiso   1.00
C205   C     0.94495   0.03877   0.13883   0.00000  Uiso   1.00
C206   C     0.94694   0.05213   0.17733   0.00000  Uiso   1.00
C207   C     0.91540   0.03567   0.20911   0.00000  Uiso   1.00
C208   C     0.86581   0.23472   0.08112   0.00000  Uiso   1.00
C209   C     0.73826   0.29565   0.47789   0.00000  Uiso   1.00
C210   C     0.79649   0.07039   0.42866   0.00000  Uiso   1.00
C211   C     0.80534   0.17522   0.46149   0.00000  Uiso   1.00
C212   C     0.77414   0.20268   0.48268   0.00000  Uiso   1.00
C213   C     0.82236   0.15047   0.48207   0.00000  Uiso   1.00
C214   C     0.81658   0.16121   0.02300   0.00000  Uiso   1.00
C215   C     0.78349   0.18576   0.04363   0.00000  Uiso   1.00
C216   C     0.76240   0.20642   0.02432   0.00000  Uiso   1.00
H217   H     0.89834   0.06022   0.02950   0.00000  Uiso   1.00
H218   H     0.70373   0.21277   0.06504   0.00000  Uiso   1.00
H219   H     0.71686   0.28730   0.08200   0.00000  Uiso   1.00
H220   H     0.77082   0.28672   0.04954   0.00000  Uiso   1.00
H221   H     0.75511   0.25990   0.09356   0.00000  Uiso   1.00
H222   H     0.85377   0.30289   0.15826   0.00000  Uiso   1.00
H223   H     0.90998   0.33188   0.10223   0.00000  Uiso   1.00
H224   H     0.96937   0.05153   0.11424   0.00000  Uiso   1.00
H225   H     0.97296   0.07518   0.18254   0.00000  Uiso   1.00
H226   H     0.91759   0.04595   0.23876   0.00000  Uiso   1.00
H227   H     0.82319   0.20548   0.12788   0.00000  Uiso   1.00
H228   H     0.68351   0.19360   0.21495   0.00000  Uiso   1.00
H229   H     0.85271   0.26497   0.09253   0.00000  Uiso   1.00
H230   H     0.87294   0.23144   0.04852   0.00000  Uiso   1.00
H231   H     0.89617   0.23494   0.08954   0.00000  Uiso   1.00
H232   H     0.69491   0.24314   0.47264   0.00000  Uiso   1.00
H233   H     0.71317   0.31445   0.49760   0.00000  Uiso   1.00
H234   H     0.74430   0.30330   0.44724   0.00000  Uiso   1.00
H235   H     0.76850   0.30424   0.48715   0.00000  Uiso   1.00
H236   H     0.86346   0.07627   0.41181   0.00000  Uiso   1.00
H237   H     0.79536   0.05706   0.39850   0.00000  Uiso   1.00
H238   H     0.77059   0.09119   0.44060   0.00000  Uiso   1.00
H239   H     0.98469   0.13976   0.28477   0.00000  Uiso   1.00
H240   H     0.79043   0.04444   0.44744   0.00000  Uiso   1.00
H241   H     0.79468   0.33268   0.28665   0.00000  Uiso   1.00
H242   H     0.89375   0.08197   0.09884   0.00000  Uiso   1.00
H243   H     0.87799   0.06633   0.47106   0.00000  Uiso   1.00
H244   H     0.75172   0.23461   0.40427   0.00000  Uiso   1.00
H245   H     0.84811   0.15921   0.40383   0.00000  Uiso   1.00
H246   H     0.77172   0.18757   0.07532   0.00000  Uiso   1.00
N247   N     0.72908   0.23047   0.04742   0.00000  Uiso   1.00
N248   N     0.83427   0.20102   0.09763   0.00000  Uiso   1.00
N249   N     0.72335   0.25165   0.48055   0.00000  Uiso   1.00
N250   N     0.83854   0.09351   0.42708   0.00000  Uiso   1.00
O251   O     0.83333   0.16667   0.25000   0.00000  Uiso   1.00
O252   O     0.82360   0.12393   0.16625   0.00000  Uiso   1.00
O253   O     0.79354   0.20646   0.33749   0.00000  Uiso   1.00
O254   O     0.87755   0.17493   0.15877   0.00000  Uiso   1.00
O255   O     0.83865   0.16135   0.33749   0.00000  Uiso   1.00
O256   O     0.84515   0.08101   0.27820   0.00000  Uiso   1.00
O257   O     0.81247   0.26136   0.26767   0.00000  Uiso   1.00
O258   O     0.74119   0.13251   0.23607   0.00000  Uiso   1.00
O259   O     0.93452   0.19179   0.21805   0.00000  Uiso   1.00
O260   O     0.73656   0.18960   0.27820   0.00000  Uiso   1.00
O261   O     0.92106   0.15277   0.26767   0.00000  Uiso   1.00
O262   O     0.80467   0.06903   0.23607   0.00000  Uiso   1.00
O263   O     0.87104   0.25527   0.21805   0.00000  Uiso   1.00
Zn264  Zn    0.85910   0.14090   0.28277   0.00000  Uiso   1.00
Zn265  Zn    0.80125   0.12378   0.22257   0.00000  Uiso   1.00
Zn266  Zn    0.87833   0.19664   0.21188   0.00000  Uiso   1.00
Zn267  Zn    0.79465   0.20535   0.28277   0.00000  Uiso   1.00
C268   C     0.05250   0.49319   0.25867   0.00000  Uiso   1.00
C269   C     0.17620   0.44739   0.46400   0.00000  Uiso   1.00
C270   C     0.19639   0.42763   0.48489   0.00000  Uiso   1.00
C271   C     0.28108   0.50686   0.24115   0.00000  Uiso   1.00
C272   C     0.19623   0.44233   0.02352   0.00000  Uiso   1.00
C273   C     0.17449   0.47728   0.04276   0.00000  Uiso   1.00
C274   C     0.21609   0.42105   0.04366   0.00000  Uiso   1.00
C275   C     0.21405   0.43366   0.08292   0.00000  Uiso   1.00
C276   C     0.17826   0.49346   0.08102   0.00000  Uiso   1.00
C277   C     0.32709   0.50952   0.23753   0.00000  Uiso   1.00
C278   C     0.00711   0.49063   0.26196   0.00000  Uiso   1.00
C279   C     0.10091   0.55234   0.42010   0.00000  Uiso   1.00
C280   C     0.18057   0.65527   0.23616   0.00000  Uiso   1.00
C281   C     0.15257   0.34552   0.26202   0.00000  Uiso   1.00
C282   C     0.15532   0.38957   0.25948   0.00000  Uiso   1.00
C283   C     0.17670   0.61094   0.24087   0.00000  Uiso   1.00
C284   C     0.18819   0.47846   0.14402   0.00000  Uiso   1.00
C285   C     0.14545   0.52111   0.35618   0.00000  Uiso   1.00
C286   C     0.13358   0.52776   0.39949   0.00000  Uiso   1.00
C287   C     0.19535   0.46964   0.10162   0.00000  Uiso   1.00
C288   C     0.08869   0.55798   0.46127   0.00000  Uiso   1.00
C289   C     0.07724   0.60131   0.06921   0.00000  Uiso   1.00
C290   C     0.15353   0.50787   0.42029   0.00000  Uiso   1.00
C291   C     0.21467   0.33932   0.20255   0.00000  Uiso   1.00
C292   C     0.21309   0.65915   0.16379   0.00000  Uiso   1.00
C293   C     0.24479   0.34221   0.13206   0.00000  Uiso   1.00
C294   C     0.27828   0.37210   0.13883   0.00000  Uiso   1.00
C295   C     0.28027   0.38547   0.17733   0.00000  Uiso   1.00
C296   C     0.24873   0.36901   0.20911   0.00000  Uiso   1.00
C297   C     0.19915   0.56805   0.08112   0.00000  Uiso   1.00
C298   C     0.07159   0.62898   0.47789   0.00000  Uiso   1.00
C299   C     0.12982   0.40372   0.42866   0.00000  Uiso   1.00
C300   C     0.13867   0.50855   0.46149   0.00000  Uiso   1.00
C301   C     0.10748   0.53601   0.48268   0.00000  Uiso   1.00
C302   C     0.15569   0.48380   0.48207   0.00000  Uiso   1.00
C303   C     0.14992   0.49455   0.02300   0.00000  Uiso   1.00
C304   C     0.11682   0.51910   0.04363   0.00000  Uiso   1.00
C305   C     0.09573   0.53975   0.02432   0.00000  Uiso   1.00
H306   H     0.23167   0.39355   0.02950   0.00000  Uiso   1.00
H307   H     0.03706   0.54611   0.06504   0.00000  Uiso   1.00
H308   H     0.05019   0.62063   0.08200   0.00000  Uiso   1.00
H309   H     0.10415   0.62005   0.04954   0.00000  Uiso   1.00
H310   H     0.08845   0.59323   0.09356   0.00000  Uiso   1.00
H311   H     0.18711   0.63622   0.15826   0.00000  Uiso   1.00
H312   H     0.24332   0.66521   0.10223   0.00000  Uiso   1.00
H313   H     0.30271   0.38487   0.11424   0.00000  Uiso   1.00
H314   H     0.30629   0.40852   0.18254   0.00000  Uiso   1.00
H315   H     0.25092   0.37929   0.23876   0.00000  Uiso   1.00
H316   H     0.15652   0.53882   0.12788   0.00000  Uiso   1.00
H317   H     0.01684   0.52694   0.21495   0.00000  Uiso   1.00
H318   H     0.18604   0.59831   0.09253   0.00000  Uiso   1.00
H319   H     0.20628   0.56477   0.04852   0.00000  Uiso   1.00
H320   H     0.22950   0.56827   0.08954   0.00000  Uiso   1.00
H321   H     0.02824   0.57648   0.47264   0.00000  Uiso   1.00
H322   H     0.04650   0.64778   0.49760   0.00000  Uiso   1.00
H323   H     0.07764   0.63664   0.44724   0.00000  Uiso   1.00
H324   H     0.10184   0.63758   0.48715   0.00000  Uiso   1.00
H325   H     0.19679   0.40961   0.41181   0.00000  Uiso   1.00
H326   H     0.12870   0.39040   0.39850   0.00000  Uiso   1.00
H327   H     0.10392   0.42452   0.44060   0.00000  Uiso   1.00
H328   H     0.31802   0.47310   0.28477   0.00000  Uiso   1.00
H329   H     0.12376   0.37777   0.44744   0.00000  Uiso   1.00
H330   H     0.12801   0.66601   0.28665   0.00000  Uiso   1.00
H331   H     0.22708   0.41530   0.09884   0.00000  Uiso   1.00
H332   H     0.21133   0.39966   0.47106   0.00000  Uiso   1.00
H333   H     0.08506   0.56795   0.40427   0.00000  Uiso   1.00
H334   H     0.18144   0.49254   0.40383   0.00000  Uiso   1.00
H335   H     0.10506   0.52090   0.07532   0.00000  Uiso   1.00
N336   N     0.06241   0.56380   0.04742   0.00000  Uiso   1.00
N337   N     0.16760   0.53435   0.09763   0.00000  Uiso   1.00
N338   N     0.05669   0.58499   0.48055   0.00000  Uiso   1.00
N339   N     0.17187   0.42684   0.42708   0.00000  Uiso   1.00
O340   O     0.16667   0.50000   0.25000   0.00000  Uiso   1.00
O341   O     0.15693   0.45726   0.16625   0.00000  Uiso   1.00
O342   O     0.12687   0.53979   0.33749   0.00000  Uiso   1.00
O343   O     0.21088   0.50826   0.15877   0.00000  Uiso   1.00
O344   O     0.17198   0.49468   0.33749   0.00000  Uiso   1.00
O345   O     0.17849   0.41434   0.27820   0.00000  Uiso   1.00
O346   O     0.14581   0.59469   0.26767   0.00000  Uiso   1.00
O347   O     0.07452   0.46584   0.23607   0.00000  Uiso   1.00
O348   O     0.26785   0.52512   0.21805   0.00000  Uiso   1.00
O349   O     0.06990   0.52293   0.27820   0.00000  Uiso   1.00
O350   O     0.25440   0.48610   0.26767   0.00000  Uiso   1.00
O351   O     0.13800   0.40236   0.23607   0.00000  Uiso   1.00
O352   O     0.20437   0.58860   0.21805   0.00000  Uiso   1.00
Zn353  Zn    0.19244   0.47423   0.28277   0.00000  Uiso   1.00
Zn354  Zn    0.13459   0.45711   0.22257   0.00000  Uiso   1.00
Zn355  Zn    0.21166   0.52997   0.21188   0.00000  Uiso   1.00
Zn356  Zn    0.12798   0.53868   0.28277   0.00000  Uiso   1.00
C357   C     0.38583   0.49319   0.25867   0.00000  Uiso   1.00
C358   C     0.50953   0.44739   0.46400   0.00000  Uiso   1.00
C359   C     0.52972   0.42763   0.48489   0.00000  Uiso   1.00
C360   C     0.61441   0.50686   0.24115   0.00000  Uiso   1.00
C361   C     0.52957   0.44233   0.02352   0.00000  Uiso   1.00
C362   C     0.50782   0.47728   0.04276   0.00000  Uiso   1.00
C363   C     0.54942   0.42105   0.04366   0.00000  Uiso   1.00
C364   C     0.54738   0.43366   0.08292   0.00000  Uiso   1.00
C365   C     0.51159   0.49346   0.08102   0.00000  Uiso   1.00
C366   C     0.66042   0.50952   0.23753   0.00000  Uiso   1.00
C367   C     0.34045   0.49063   0.26196   0.00000  Uiso   1.00
C368   C     0.43424   0.55234   0.42010   0.00000  Uiso   1.00
C369   C     0.51390   0.65527   0.23616   0.00000  Uiso   1.00
C370   C     0.48590   0.34552   0.26202   0.00000  Uiso   1.00
C371   C     0.48865   0.38957   0.25948   0.00000  Uiso   1.00
C372   C     0.51004   0.61094   0.24087   0.00000  Uiso   1.00
C373   C     0.52152   0.47846   0.14402   0.00000  Uiso   1.00
C374   C     0.47878   0.52111   0.35618   0.00000  Uiso   1.00
C375   C     0.46691   0.52776   0.39949   0.00000  Uiso   1.00
C376   C     0.52869   0.46964   0.10162   0.00000  Uiso   1.00
C377   C     0.42203   0.55798   0.46127   0.00000  Uiso   1.00
C378   C     0.41057   0.60131   0.06921   0.00000  Uiso   1.00
C379   C     0.48687   0.50787   0.42029   0.00000  Uiso   1.00
C380   C     0.54800   0.33932   0.20255   0.00000  Uiso   1.00
C381   C     0.54642   0.65915   0.16379   0.00000  Uiso   1.00
C382   C     0.57813   0.34221   0.13206   0.00000  Uiso   1.00
C383   C     0.61162   0.37210   0.13883   0.00000  Uiso   1.00
C384   C     0.61360   0.38547   0.17733   0.00000  Uiso   1.00
C385   C     0.58207   0.36901   0.20911   0.00000  Uiso   1.00
C386   C     0.53248   0.56805   0.08112   0.00000  Uiso   1.00
C387   C     0.40493   0.62898   0.47789   0.00000  Uiso   1.00
C388   C     0.46315   0.40372   0.42866   0.00000  Uiso   1.00
C389   C     0.47201   0.50855   0.46149   0.00000  Uiso   1.00
C390   C     0.44081   0.53601   0.48268   0.00000  Uiso   1.00
C391   C     0.48903   0.48380   0.48207   0.00000  Uiso   1.00
C392   C     0.48325   0.49455   0.02300   0.00000  Uiso   1.00
C393   C     0.45015   0.51910   0.04363   0.00000  Uiso   1.00
C394   C     0.42906   0.53975   0.02432   0.00000  Uiso   1.00
H395   H     0.56501   0.39355   0.02950   0.00000  Uiso   1.00
H396   H     0.37040   0.54611   0.06504   0.00000  Uiso   1.00
H397   H     0.38352   0.62063   0.08200   0.00000  Uiso   1.00
H398   H     0.43749   0.62005   0.04954   0.00000  Uiso   1.00
H399   H     0.42178   0.59323   0.09356   0.00000  Uiso   1.00
H400   H     0.52044   0.63622   0.15826   0.00000  Uiso   1.00
H401   H     0.57665   0.66521   0.10223   0.00000  Uiso   1.00
H402   H     0.63604   0.38487   0.11424   0.00000  Uiso   1.00
H403   H     0.63963   0.40852   0.18254   0.00000  Uiso   1.00
H404   H     0.58426   0.37929   0.23876   0.00000  Uiso   1.00
H405   H     0.48986   0.53882   0.12788   0.00000  Uiso   1.00
H406   H     0.35017   0.52694   0.21495   0.00000  Uiso   1.00
H407   H     0.51937   0.59831   0.09253   0.00000  Uiso   1.00
H408   H     0.53961   0.56477   0.04852   0.00000  Uiso   1.00
H409   H     0.56284   0.56827   0.08954   0.00000  Uiso   1.00
H410   H     0.36157   0.57648   0.47264   0.00000  Uiso   1.00
H411   H     0.37984   0.64778   0.49760   0.00000  Uiso   1.00
H412   H     0.41097   0.63664   0.44724   0.00000  Uiso   1.00
H413   H     0.43517   0.63758   0.48715   0.00000  Uiso   1.00
H414   H     0.53013   0.40961   0.41181   0.00000  Uiso   1.00
H415   H     0.46203   0.39040   0.39850   0.00000  Uiso   1.00
H416   H     0.43725   0.42452   0.44060   0.00000  Uiso   1.00
H417   H     0.65135   0.47310   0.28477   0.00000  Uiso   1.00
H418   H     0.45710   0.37777   0.44744   0.00000  Uiso   1.00
H419   H     0.46134   0.66601   0.28665   0.00000  Uiso   1.00
H420   H     0.56041   0.41530   0.09884   0.00000  Uiso   1.00
H421   H     0.54466   0.39966   0.47106   0.00000  Uiso   1.00
H422   H     0.41839   0.56795   0.40427   0.00000  Uiso   1.00
H423   H     0.51477   0.49254   0.40383   0.00000  Uiso   1.00
H424   H     0.43839   0.52090   0.07532   0.00000  Uiso   1.00
N425   N     0.39574   0.56380   0.04742   0.00000  Uiso   1.00
N426   N     0.50093   0.53435   0.09763   0.00000  Uiso   1.00
N427   N     0.39002   0.58499   0.48055   0.00000  Uiso   1.00
N428   N     0.50520   0.42684   0.42708   0.00000  Uiso   1.00
O429   O     0.50000   0.50000   0.25000   0.00000  Uiso   1.00
O430   O     0.49027   0.45726   0.16625   0.00000  Uiso   1.00
O431   O     0.46020   0.53979   0.33749   0.00000  Uiso   1.00
O432   O     0.54421   0.50826   0.15877   0.00000  Uiso   1.00
O433   O     0.50532   0.49468   0.33749   0.00000  Uiso   1.00
O434   O     0.51182   0.41434   0.27820   0.00000  Uiso   1.00
O435   O     0.47914   0.59469   0.26767   0.00000  Uiso   1.00
O436   O     0.40785   0.46584   0.23607   0.00000  Uiso   1.00
O437   O     0.60119   0.52512   0.21805   0.00000  Uiso   1.00
O438   O     0.40323   0.52293   0.27820   0.00000  Uiso   1.00
O439   O     0.58773   0.48610   0.26767   0.00000  Uiso   1.00
O440   O     0.47133   0.40236   0.23607   0.00000  Uiso   1.00
O441   O     0.53771   0.58860   0.21805   0.00000  Uiso   1.00
Zn442  Zn    0.52577   0.47423   0.28277   0.00000  Uiso   1.00
Zn443  Zn    0.46792   0.45711   0.22257   0.00000  Uiso   1.00
Zn444  Zn    0.54500   0.52997   0.21188   0.00000  Uiso   1.00
Zn445  Zn    0.46131   0.53868   0.28277   0.00000  Uiso   1.00
C446   C     0.71916   0.49319   0.25867   0.00000  Uiso   1.00
C447   C     0.84287   0.44739   0.46400   0.00000  Uiso   1.00
C448   C     0.86305   0.42763   0.48489   0.00000  Uiso   1.00
C449   C     0.94775   0.50686   0.24115   0.00000  Uiso   1.00
C450   C     0.86290   0.44233   0.02352   0.00000  Uiso   1.00
C451   C     0.84115   0.47728   0.04276   0.00000  Uiso   1.00
C452   C     0.88276   0.42105   0.04366   0.00000  Uiso   1.00
C453   C     0.88072   0.43366   0.08292   0.00000  Uiso   1.00
C454   C     0.84492   0.49346   0.08102   0.00000  Uiso   1.00
C455   C     0.99375   0.50952   0.23753   0.00000  Uiso   1.00
C456   C     0.67378   0.49063   0.26196   0.00000  Uiso   1.00
C457   C     0.76757   0.55234   0.42010   0.00000  Uiso   1.00
C458   C     0.84724   0.65527   0.23616   0.00000  Uiso   1.00
C459   C     0.81923   0.34552   0.26202   0.00000  Uiso   1.00
C460   C     0.82199   0.38957   0.25948   0.00000  Uiso   1.00
C461   C     0.84337   0.61094   0.24087   0.00000  Uiso   1.00
C462   C     0.85485   0.47846   0.14402   0.00000  Uiso   1.00
C463   C     0.81211   0.52111   0.35618   0.00000  Uiso   1.00
C464   C     0.80024   0.52776   0.39949   0.00000  Uiso   1.00
C465   C     0.86202   0.46964   0.10162   0.00000  Uiso   1.00
C466   C     0.75536   0.55798   0.46127   0.00000  Uiso   1.00
C467   C     0.74390   0.60131   0.06921   0.00000  Uiso   1.00
C468   C     0.82020   0.50787   0.42029   0.00000  Uiso   1.00
C469   C     0.88133   0.33932   0.20255   0.00000  Uiso   1.00
C470   C     0.87975   0.65915   0.16379   0.00000  Uiso   1.00
C471   C     0.91146   0.34221   0.13206   0.00000  Uiso   1.00
C472   C     0.94495   0.37210   0.13883   0.00000  Uiso   1.00
C473   C     0.94694   0.38547   0.17733   0.00000  Uiso   1.00
C474   C     0.91540   0.36901   0.20911   0.00000  Uiso   1.00
C475   C     0.86581   0.56805   0.08112   0.00000  Uiso   1.00
C476   C     0.73826   0.62898   0.47789   0.00000  Uiso   1.00
C477   C     0.79649   0.40372   0.42866   0.00000  Uiso   1.00
C478   C     0.80534   0.50855   0.46149   0.00000  Uiso   1.00
C479   C     0.77414   0.53601   0.48268   0.00000  Uiso   1.00
C480   C     0.82236   0.48380   0.48207   0.00000  Uiso   1.00
C481   C     0.81658   0.49455   0.02300   0.00000  Uiso   1.00
C482   C     0.78349   0.51910   0.04363   0.00000  Uiso   1.00
C483   C     0.76240   0.53975   0.02432   0.00000  Uiso   1.00
H484   H     0.89834   0.39355   0.02950   0.00000  Uiso   1.00
H485   H     0.70373   0.54611   0.06504   0.00000  Uiso   1.00
H486   H     0.71686   0.62063   0.08200   0.00000  Uiso   1.00
H487   H     0.77082   0.62005   0.04954   0.00000  Uiso   1.00
H488   H     0.75511   0.59323   0.09356   0.00000  Uiso   1.00
H489   H     0.85377   0.63622   0.15826   0.00000  Uiso   1.00
H490   H     0.90998   0.66521   0.10223   0.00000  Uiso   1.00
H491   H     0.96937   0.38487   0.11424   0.00000  Uiso   1.00
H492   H     0.97296   0.40852   0.18254   0.00000  Uiso   1.00
H493   H     0.91759   0.37929   0.23876   0.00000  Uiso   1.00
H494   H     0.82319   0.53882   0.12788   0.00000  Uiso   1.00
H495   H     0.68351   0.52694   0.21495   0.00000  Uiso   1.00
H496   H     0.85271   0.59831   0.09253   0.00000  Uiso   1.00
H497   H     0.87294   0.56477   0.04852   0.00000  Uiso   1.00
H498   H     0.89617   0.56827   0.08954   0.00000  Uiso   1.00
H499   H     0.69491   0.57648   0.47264   0.00000  Uiso   1.00
H500   H     0.71317   0.64778   0.49760   0.00000  Uiso   1.00
H501   H     0.74430   0.63664   0.44724   0.00000  Uiso   1.00
H502   H     0.76850   0.63758   0.48715   0.00000  Uiso   1.00
H503   H     0.86346   0.40961   0.41181   0.00000  Uiso   1.00
H504   H     0.79536   0.39040   0.39850   0.00000  Uiso   1.00
H505   H     0.77059   0.42452   0.44060   0.00000  Uiso   1.00
H506   H     0.98469   0.47310   0.28477   0.00000  Uiso   1.00
H507   H     0.79043   0.37777   0.44744   0.00000  Uiso   1.00
H508   H     0.79468   0.66601   0.28665   0.00000  Uiso   1.00
H509   H     0.89375   0.41530   0.09884   0.00000  Uiso   1.00
H510   H     0.87799   0.39966   0.47106   0.00000  Uiso   1.00
H511   H     0.75172   0.56795   0.40427   0.00000  Uiso   1.00
H512   H     0.84811   0.49254   0.40383   0.00000  Uiso   1.00
H513   H     0.77172   0.52090   0.07532   0.00000  Uiso   1.00
N514   N     0.72908   0.56380   0.04742   0.00000  Uiso   1.00
N515   N     0.83427   0.53435   0.09763   0.00000  Uiso   1.00
N516   N     0.72335   0.58499   0.48055   0.00000  Uiso   1.00
N517   N     0.83854   0.42684   0.42708   0.00000  Uiso   1.00
O518   O     0.83333   0.50000   0.25000   0.00000  Uiso   1.00
O519   O     0.82360   0.45726   0.16625   0.00000  Uiso   1.00
O520   O     0.79354   0.53979   0.33749   0.00000  Uiso   1.00
O521   O     0.87755   0.50826   0.15877   0.00000  Uiso   1.00
O522   O     0.83865   0.49468   0.33749   0.00000  Uiso   1.00
O523   O     0.84515   0.41434   0.27820   0.00000  Uiso   1.00
O524   O     0.81247   0.59469   0.26767   0.00000  Uiso   1.00
O525   O     0.74119   0.46584   0.23607   0.00000  Uiso   1.00
O526   O     0.93452   0.52512   0.21805   0.00000  Uiso   1.00
O527   O     0.73656   0.52293   0.27820   0.00000  Uiso   1.00
O528   O     0.92106   0.48610   0.26767   0.00000  Uiso   1.00
O529   O     0.80467   0.40236   0.23607   0.00000  Uiso   1.00
O530   O     0.87104   0.58860   0.21805   0.00000  Uiso   1.00
Zn531  Zn    0.85910   0.47423   0.28277   0.00000  Uiso   1.00
Zn532  Zn    0.80125   0.45711   0.22257   0.00000  Uiso   1.00
Zn533  Zn    0.87833   0.52997   0.21188   0.00000  Uiso   1.00
Zn534  Zn    0.79465   0.53868   0.28277   0.00000  Uiso   1.00
C535   C     0.05250   0.82653   0.25867   0.00000  Uiso   1.00
C536   C     0.17620   0.78073   0.46400   0.00000  Uiso   1.00
C537   C     0.19639   0.76096   0.48489   0.00000  Uiso   1.00
C538   C     0.28108   0.84019   0.24115   0.00000  Uiso   1.00
C539   C     0.19623   0.77566   0.02352   0.00000  Uiso   1.00
C540   C     0.17449   0.81062   0.04276   0.00000  Uiso   1.00
C541   C     0.21609   0.75438   0.04366   0.00000  Uiso   1.00
C542   C     0.21405   0.76699   0.08292   0.00000  Uiso   1.00
C543   C     0.17826   0.82680   0.08102   0.00000  Uiso   1.00
C544   C     0.32709   0.84285   0.23753   0.00000  Uiso   1.00
C545   C     0.00711   0.82397   0.26196   0.00000  Uiso   1.00
C546   C     0.10091   0.88567   0.42010   0.00000  Uiso   1.00
C547   C     0.18057   0.98861   0.23616   0.00000  Uiso   1.00
C548   C     0.15257   0.67885   0.26202   0.00000  Uiso   1.00
C549   C     0.15532   0.72290   0.25948   0.00000  Uiso   1.00
C550   C     0.17670   0.94427   0.24087   0.00000  Uiso   1.00
C551   C     0.18819   0.81179   0.14402   0.00000  Uiso   1.00
C552   C     0.14545   0.85444   0.35618   0.00000  Uiso   1.00
C553   C     0.13358   0.86109   0.39949   0.00000  Uiso   1.00
C554   C     0.19535   0.80297   0.10162   0.00000  Uiso   1.00
C555   C     0.08869   0.89132   0.46127   0.00000  Uiso   1.00
C556   C     0.07724   0.93464   0.06921   0.00000  Uiso   1.00
C557   C     0.15353   0.84120   0.42029   0.00000  Uiso   1.00
C558   C     0.21467   0.67265   0.20255   0.00000  Uiso   1.00
C559   C     0.21309   0.99249   0.16379   0.00000  Uiso   1.00
C560   C     0.24479   0.67554   0.13206   0.00000  Uiso   1.00
C561   C     0.27828   0.70543   0.13883   0.00000  Uiso   1.00
C562   C     0.28027   0.71880   0.17733   0.00000  Uiso   1.00
C563   C     0.24873   0.70234   0.20911   0.00000  Uiso   1.00
C564   C     0.19915   0.90138   0.08112   0.00000  Uiso   1.00
C565   C     0.07159   0.96232   0.47789   0.00000  Uiso   1.00
C566   C     0.12982   0.73706   0.42866   0.00000  Uiso   1.00
C567   C     0.13867   0.84188   0.46149   0.00000  Uiso   1.00
C568   C     0.10748   0.86935   0.48268   0.00000  Uiso   1.00
C569   C     0.15569   0.81714   0.48207   0.00000  Uiso   1.00
C570   C     0.14992   0.82788   0.02300   0.00000  Uiso   1.00
C571   C     0.11682   0.85243   0.04363   0.00000  Uiso   1.00
C572   C     0.09573   0.87308   0.02432   0.00000  Uiso   1.00
H573   H     0.23167   0.72689   0.02950   0.00000  Uiso   1.00
H574   H     0.03706   0.87944   0.06504   0.00000  Uiso   1.00
H575   H     0.05019   0.95397   0.08200   0.00000  Uiso   1.00
H576   H     0.10415   0.95338   0.04954   0.00000  Uiso   1.00
H577   H     0.08845   0.92656   0.09356   0.00000  Uiso   1.00
H578   H     0.18711   0.96956   0.15826   0.00000  Uiso   1.00
H579   H     0.24332   0.99854   0.10223   0.00000  Uiso   1.00
H580   H     0.30271   0.71820   0.11424   0.00000  Uiso   1.00
H581   H     0.30629   0.74185   0.18254   0.00000  Uiso   1.00
H582   H     0.25092   0.71262   0.23876   0.00000  Uiso   1.00
H583   H     0.15652   0.87215   0.12788   0.00000  Uiso   1.00
H584   H     0.01684   0.86027   0.21495   0.00000  Uiso   1.00
H585   H     0.18604   0.93164   0.09253   0.00000  Uiso   1.00
H586   H     0.20628   0.89811   0.04852   0.00000  Uiso   1.00
H587   H     0.22950   0.90161   0.08954   0.00000  Uiso   1.00
H588   H     0.02824   0.90981   0.47264   0.00000  Uiso   1.00
H589   H     0.04650   0.98112   0.49760   0.00000  Uiso   1.00
H590   H     0.07764   0.96997   0.44724   0.00000  Uiso   1.00
H591   H     0.10184   0.97091   0.48715   0.00000  Uiso   1.00
H592   H     0.19679   0.74294   0.41181   0.00000  Uiso   1.00
H593   H     0.12870   0.72373   0.39850   0.00000  Uiso   1.00
H594   H     0.10392   0.75785   0.44060   0.00000  Uiso   1.00
H595   H     0.31802   0.80643   0.28477   0.00000  Uiso   1.00
H596   H     0.12376   0.71111   0.44744   0.00000  Uiso   1.00
H597   H     0.12801   0.99935   0.28665   0.00000  Uiso   1.00
H598   H     0.22708   0.74863   0.09884   0.00000  Uiso   1.00
H599   H     0.21133   0.73300   0.47106   0.00000  Uiso   1.00
H600   H     0.08506   0.90128   0.40427   0.00000  Uiso   1.00
H601   H     0.18144   0.82587   0.40383   0.00000  Uiso   1.00
H602   H     0.10506   0.85424   0.07532   0.00000  Uiso   1.00
N603   N     0.06241   0.89714   0.04742   0.00000  Uiso   1.00
N604   N     0.16760   0.86769   0.09763   0.00000  Uiso   1.00
N605   N     0.05669   0.91832   0.48055   0.00000  Uiso   1.00
N606   N     0.17187   0.76018   0.42708   0.00000  Uiso   1.00
O607   O     0.16667   0.83333   0.25000   0.00000  Uiso   1.00
O608   O     0.15693   0.79060   0.16625   0.00000  Uiso   1.00
O609   O     0.12687   0.87313   0.33749   0.00000  Uiso   1.00
O610   O     0.21088   0.84159   0.15877   0.00000  Uiso   1.00
O611   O     0.17198   0.82802   0.33749   0.00000  Uiso   1.00
O612   O     0.17849   0.74768   0.27820   0.00000  Uiso   1.00
O613   O     0.14581   0.92803   0.26767   0.00000  Uiso   1.00
O614   O     0.07452   0.79917   0.23607   0.00000  Uiso   1.00
O615   O     0.26785   0.85845   0.21805   0.00000  Uiso   1.00
O616   O     0.06990   0.85627   0.27820   0.00000  Uiso   1.00
O617   O     0.25440   0.81944   0.26767   0.00000  Uiso   1.00
O618   O     0.13800   0.73570   0.23607   0.00000  Uiso   1.00
O619   O     0.20437   0.92193   0.21805   0.00000  Uiso   1.00
Zn620  Zn    0.19244   0.80756   0.28277   0.00000  Uiso   1.00
Zn621  Zn    0.13459   0.79044   0.22257   0.00000  Uiso   1.00
Zn622  Zn    0.21166   0.86331   0.21188   0.00000  Uiso   1.00
Zn623  Zn    0.12798   0.87202   0.28277   0.00000  Uiso   1.00
C624   C     0.38583   0.82653   0.25867   0.00000  Uiso   1.00
C625   C     0.50953   0.78073   0.46400   0.00000  Uiso   1.00
C626   C     0.52972   0.76096   0.48489   0.00000  Uiso   1.00
C627   C     0.61441   0.84019   0.24115   0.00000  Uiso   1.00
C628   C     0.52957   0.77566   0.02352   0.00000  Uiso   1.00
C629   C     0.50782   0.81062   0.04276   0.00000  Uiso   1.00
C630   C     0.54942   0.75438   0.04366   0.00000  Uiso   1.00
C631   C     0.54738   0.76699   0.08292   0.00000  Uiso   1.00
C632   C     0.51159   0.82680   0.08102   0.00000  Uiso   1.00
C633   C     0.66042   0.84285   0.23753   0.00000  Uiso   1.00
C634   C     0.34045   0.82397   0.26196   0.00000  Uiso   1.00
C635   C     0.43424   0.88567   0.42010   0.00000  Uiso   1.00
C636   C     0.51390   0.98861   0.23616   0.00000  Uiso   1.00
C637   C     0.48590   0.67885   0.26202   0.00000  Uiso   1.00
C638   C     0.48865   0.72290   0.25948   0.00000  Uiso   1.00
C639   C     0.51004   0.94427   0.24087   0.00000  Uiso   1.00
C640   C     0.52152   0.81179   0.14402   0.00000  Uiso   1.00
C641   C     0.47878   0.85444   0.35618   0.00000  Uiso   1.00
C642   C     0.46691   0.86109   0.39949   0.00000  Uiso   1.00
C643   C     0.52869   0.80297   0.10162   0.00000  Uiso   1.00
C644   C     0.42203   0.89132   0.46127   0.00000  Uiso   1.00
C645   C     0.41057   0.93464   0.06921   0.00000  Uiso   1.00
C646   C     0.48687   0.84120   0.42029   0.00000  Uiso   1.00
C647   C     0.54800   0.67265   0.20255   0.00000  Uiso   1.00
C648   C     0.54642   0.99249   0.16379   0.00000  Uiso   1.00
C649   C     0.57813   0.67554   0.13206   0.00000  Uiso   1.00
C650   C     0.61162   0.70543   0.13883   0.00000  Uiso   1.00
C651   C     0.61360   0.71880   0.17733   0.00000  Uiso   1.00
C652   C     0.58207   0.70234   0.20911   0.00000  Uiso   1.00
C653   C     0.53248   0.90138   0.08112   0.00000  Uiso   1.00
C654   C     0.40493   0.96232   0.47789   0.00000  Uiso   1.00
C655   C     0.46315   0.73706   0.42866   0.00000  Uiso   1.00
C656   C     0.47201   0.84188   0.46149   0.00000  Uiso   1.00
C657   C     0.44081   0.86935   0.48268   0.00000  Uiso   1.00
C658   C     0.48903   0.81714   0.48207   0.00000  Uiso   1.00
C659   C     0.48325   0.82788   0.02300   0.00000  Uiso   1.00
C660   C     0.45015   0.85243   0.04363   0.00000  Uiso   1.00
C661   C     0.42906   0.87308   0.02432   0.00000  Uiso   1.00
H662   H     0.56501   0.72689   0.02950   0.00000  Uiso   1.00
H663   H     0.37040   0.87944   0.06504   0.00000  Uiso   1.00
H664   H     0.38352   0.95397   0.08200   0.00000  Uiso   1.00
H665   H     0.43749   0.95338   0.04954   0.00000  Uiso   1.00
H666   H     0.42178   0.92656   0.09356   0.00000  Uiso   1.00
H667   H     0.52044   0.96956   0.15826   0.00000  Uiso   1.00
H668   H     0.57665   0.99854   0.10223   0.00000  Uiso   1.00
H669   H     0.63604   0.71820   0.11424   0.00000  Uiso   1.00
H670   H     0.63963   0.74185   0.18254   0.00000  Uiso   1.00
H671   H     0.58426   0.71262   0.23876   0.00000  Uiso   1.00
H672   H     0.48986   0.87215   0.12788   0.00000  Uiso   1.00
H673   H     0.35017   0.86027   0.21495   0.00000  Uiso   1.00
H674   H     0.51937   0.93164   0.09253   0.00000  Uiso   1.00
H675   H     0.53961   0.89811   0.04852   0.00000  Uiso   1.00
H676   H     0.56284   0.90161   0.08954   0.00000  Uiso   1.00
H677   H     0.36157   0.90981   0.47264   0.00000  Uiso   1.00
H678   H     0.37984   0.98112   0.49760   0.00000  Uiso   1.00
H679   H     0.41097   0.96997   0.44724   0.00000  Uiso   1.00
H680   H     0.43517   0.97091   0.48715   0.00000  Uiso   1.00
H681   H     0.53013   0.74294   0.41181   0.00000  Uiso   1.00
H682   H     0.46203   0.72373   0.39850   0.00000  Uiso   1.00
H683   H     0.43725   0.75785   0.44060   0.00000  Uiso   1.00
H684   H     0.65135   0.80643   0.28477   0.00000  Uiso   1.00
H685   H     0.45710   0.71111   0.44744   0.00000  Uiso   1.00
H686   H     0.46134   0.99935   0.28665   0.00000  Uiso   1.00
H687   H     0.56041   0.74863   0.09884   0.00000  Uiso   1.00
H688   H     0.54466   0.73300   0.47106   0.00000  Uiso   1.00
H689   H     0.41839   0.90128   0.40427   0.00000  Uiso   1.00
H690   H     0.51477   0.82587   0.40383   0.00000  Uiso   1.00
H691   H     0.43839   0.85424   0.07532   0.00000  Uiso   1.00
N692   N     0.39574   0.89714   0.04742   0.00000  Uiso   1.00
N693   N     0.50093   0.86769   0.09763   0.00000  Uiso   1.00
N694   N     0.39002   0.91832   0.48055   0.00000  Uiso   1.00
N695   N     0.50520   0.76018   0.42708   0.00000  Uiso   1.00
O696   O     0.50000   0.83333   0.25000   0.00000  Uiso   1.00
O697   O     0.49027   0.79060   0.16625   0.00000  Uiso   1.00
O698   O     0.46020   0.87313   0.33749   0.00000  Uiso   1.00
O699   O     0.54421   0.84159   0.15877   0.00000  Uiso   1.00
O700   O     0.50532   0.82802   0.33749   0.00000  Uiso   1.00
O701   O     0.51182   0.74768   0.27820   0.00000  Uiso   1.00
O702   O     0.47914   0.92803   0.26767   0.00000  Uiso   1.00
O703   O     0.40785   0.79917   0.23607   0.00000  Uiso   1.00
O704   O     0.60119   0.85845   0.21805   0.00000  Uiso   1.00
O705   O     0.40323   0.85627   0.27820   0.00000  Uiso   1.00
O706   O     0.58773   0.81944   0.26767   0.00000  Uiso   1.00
O707   O     0.47133   0.73570   0.23607   0.00000  Uiso   1.00
O708   O     0.53771   0.92193   0.21805   0.00000  Uiso   1.00
Zn709  Zn    0.52577   0.80756   0.28277   0.00000  Uiso   1.00
Zn710  Zn    0.46792   0.79044   0.22257   0.00000  Uiso   1.00
Zn711  Zn    0.54500   0.86331   0.21188   0.00000  Uiso   1.00
Zn712  Zn    0.46131   0.87202   0.28277   0.00000  Uiso   1.00
C713   C     0.71916   0.82653   0.25867   0.00000  Uiso   1.00
C714   C     0.84287   0.78073   0.46400   0.00000  Uiso   1.00
C715   C     0.86305   0.76096   0.48489   0.00000  Uiso   1.00
C716   C     0.94775   0.84019   0.24115   0.00000  Uiso   1.00
C717   C     0.86290   0.77566   0.02352   0.00000  Uiso   1.00
C718   C     0.84115   0.81062   0.04276   0.00000  Uiso   1.00
C719   C     0.88276   0.75438   0.04366   0.00000  Uiso   1.00
C720   C     0.88072   0.76699   0.08292   0.00000  Uiso   1.00
C721   C     0.84492   0.82680   0.08102   0.00000  Uiso   1.00
C722   C     0.99375   0.84285   0.23753   0.00000  Uiso   1.00
C723   C     0.67378   0.82397   0.26196   0.00000  Uiso   1.00
C724   C     0.76757   0.88567   0.42010   0.00000  Uiso   1.00
C725   C     0.84724   0.98861   0.23616   0.00000  Uiso   1.00
C726   C     0.81923   0.67885   0.26202   0.00000  Uiso   1.00
C727   C     0.82199   0.72290   0.25948   0.00000  Uiso   1.00
C728   C     0.84337   0.94427   0.24087   0.00000  Uiso   1.00
C729   C     0.85485   0.81179   0.14402   0.00000  Uiso   1.00
C730   C     0.81211   0.85444   0.35618   0.00000  Uiso   1.00
C731   C     0.80024   0.86109   0.39949   0.00000  Uiso   1.00
C732   C     0.86202   0.80297   0.10162   0.00000  Uiso   1.00
C733   C     0.75536   0.89132   0.46127   0.00000  Uiso   1.00
C734   C     0.74390   0.93464   0.06921   0.00000  Uiso   1.00
C735   C     0.82020   0.84120   0.42029   0.00000  Uiso   1.00
C736   C     0.88133   0.67265   0.20255   0.00000  Uiso   1.00
C737   C     0.87975   0.99249   0.16379   0.00000  Uiso   1.00
C738   C     0.91146   0.67554   0.13206   0.00000  Uiso   1.00
C739   C     0.94495   0.70543   0.13883   0.00000  Uiso   1.00
C740   C     0.94694   0.71880   0.17733   0.00000  Uiso   1.00
C741   C     0.91540   0.70234   0.20911   0.00000  Uiso   1.00
C742   C     0.86581   0.90138   0.08112   0.00000  Uiso   1.00
C743   C     0.73826   0.96232   0.47789   0.00000  Uiso   1.00
C744   C     0.79649   0.73706   0.42866   0.00000  Uiso   1.00
C745   C     0.80534   0.84188   0.46149   0.00000  Uiso   1.00
C746   C     0.77414   0.86935   0.48268   0.00000  Uiso   1.00
C747   C     0.82236   0.81714   0.48207   0.00000  Uiso   1.00
C748   C     0.81658   0.82788   0.02300   0.00000  Uiso   1.00
C749   C     0.78349   0.85243   0.04363   0.00000  Uiso   1.00
C750   C     0.76240   0.87308   0.02432   0.00000  Uiso   1.00
H751   H     0.89834   0.72689   0.02950   0.00000  Uiso   1.00
H752   H     0.70373   0.87944   0.06504   0.00000  Uiso   1.00
H753   H     0.71686   0.95397   0.08200   0.00000  Uiso   1.00
H754   H     0.77082   0.95338   0.04954   0.00000  Uiso   1.00
H755   H     0.75511   0.92656   0.09356   0.00000  Uiso   1.00
H756   H     0.85377   0.96956   0.15826   0.00000  Uiso   1.00
H757   H     0.90998   0.99854   0.10223   0.00000  Uiso   1.00
H758   H     0.96937   0.71820   0.11424   0.00000  Uiso   1.00
H759   H     0.97296   0.74185   0.18254   0.00000  Uiso   1.00
H760   H     0.91759   0.71262   0.23876   0.00000  Uiso   1.00
H761   H     0.82319   0.87215   0.12788   0.00000  Uiso   1.00
H762   H     0.68351   0.86027   0.21495   0.00000  Uiso   1.00
H763   H     0.85271   0.93164   0.09253   0.00000  Uiso   1.00
H764   H     0.87294   0.89811   0.04852   0.00000  Uiso   1.00
H765   H     0.89617   0.90161   0.08954   0.00000  Uiso   1.00
H766   H     0.69491   0.90981   0.47264   0.00000  Uiso   1.00
H767   H     0.71317   0.98112   0.49760   0.00000  Uiso   1.00
H768   H     0.74430   0.96997   0.44724   0.00000  Uiso   1.00
H769   H     0.76850   0.97091   0.48715   0.00000  Uiso   1.00
H770   H     0.86346   0.74294   0.41181   0.00000  Uiso   1.00
H771   H     0.79536   0.72373   0.39850   0.00000  Uiso   1.00
H772   H     0.77059   0.75785   0.44060   0.00000  Uiso   1.00
H773   H     0.98469   0.80643   0.28477   0.00000  Uiso   1.00
H774   H     0.79043   0.71111   0.44744   0.00000  Uiso   1.00
H775   H     0.79468   0.99935   0.28665   0.00000  Uiso   1.00
H776   H     0.89375   0.74863   0.09884   0.00000  Uiso   1.00
H777   H     0.87799   0.73300   0.47106   0.00000  Uiso   1.00
H778   H     0.75172   0.90128   0.40427   0.00000  Uiso   1.00
H779   H     0.84811   0.82587   0.40383   0.00000  Uiso   1.00
H780   H     0.77172   0.85424   0.07532   0.00000  Uiso   1.00
N781   N     0.72908   0.89714   0.04742   0.00000  Uiso   1.00
N782   N     0.83427   0.86769   0.09763   0.00000  Uiso   1.00
N783   N     0.72335   0.91832   0.48055   0.00000  Uiso   1.00
N784   N     0.83854   0.76018   0.42708   0.00000  Uiso   1.00
O785   O     0.83333   0.83333   0.25000   0.00000  Uiso   1.00
O786   O     0.82360   0.79060   0.16625   0.00000  Uiso   1.00
O787   O     0.79354   0.87313   0.33749   0.00000  Uiso   1.00
O788   O     0.87755   0.84159   0.15877   0.00000  Uiso   1.00
O789   O     0.83865   0.82802   0.33749   0.00000  Uiso   1.00
O790   O     0.84515   0.74768   0.27820   0.00000  Uiso   1.00
O791   O     0.81247   0.92803   0.26767   0.00000  Uiso   1.00
O792   O     0.74119   0.79917   0.23607   0.00000  Uiso   1.00
O793   O     0.93452   0.85845   0.21805   0.00000  Uiso   1.00
O794   O     0.73656   0.85627   0.27820   0.00000  Uiso   1.00
O795   O     0.92106   0.81944   0.26767   0.00000  Uiso   1.00
O796   O     0.80467   0.73570   0.23607   0.00000  Uiso   1.00
O797   O     0.87104   0.92193   0.21805   0.00000  Uiso   1.00
Zn798  Zn    0.85910   0.80756   0.28277   0.00000  Uiso   1.00
Zn799  Zn    0.80125   0.79044   0.22257   0.00000  Uiso   1.00
Zn800  Zn    0.87833   0.86331   0.21188   0.00000  Uiso   1.00
Zn801  Zn    0.79465   0.87202   0.28277   0.00000  Uiso   1.00
C802   C     0.05250   0.15986   0.75867   0.00000  Uiso   1.00
C803   C     0.17620   0.11406   0.96400   0.00000  Uiso   1.00
C804   C     0.19639   0.09429   0.98489   0.00000  Uiso   1.00
C805   C     0.28108   0.17352   0.74115   0.00000  Uiso   1.00
C806   C     0.19623   0.10900   0.52352   0.00000  Uiso   1.00
C807   C     0.17449   0.14395   0.54276   0.00000  Uiso   1.00
C808   C     0.21609   0.08771   0.54366   0.00000  Uiso   1.00
C809   C     0.21405   0.10032   0.58292   0.00000  Uiso   1.00
C810   C     0.17826   0.16013   0.58102   0.00000  Uiso   1.00
C811   C     0.32709   0.17619   0.73753   0.00000  Uiso   1.00
C812   C     0.00711   0.15730   0.76196   0.00000  Uiso   1.00
C813   C     0.10091   0.21900   0.92010   0.00000  Uiso   1.00
C814   C     0.18057   0.32194   0.73616   0.00000  Uiso   1.00
C815   C     0.15257   0.01219   0.76202   0.00000  Uiso   1.00
C816   C     0.15532   0.05624   0.75948   0.00000  Uiso   1.00
C817   C     0.17670   0.27760   0.74087   0.00000  Uiso   1.00
C818   C     0.18819   0.14512   0.64402   0.00000  Uiso   1.00
C819   C     0.14545   0.18777   0.85618   0.00000  Uiso   1.00
C820   C     0.13358   0.19443   0.89949   0.00000  Uiso   1.00
C821   C     0.19535   0.13631   0.60162   0.00000  Uiso   1.00
C822   C     0.08869   0.22465   0.96127   0.00000  Uiso   1.00
C823   C     0.07724   0.26798   0.56921   0.00000  Uiso   1.00
C824   C     0.15353   0.17454   0.92029   0.00000  Uiso   1.00
C825   C     0.21467   0.00598   0.70255   0.00000  Uiso   1.00
C826   C     0.21309   0.32582   0.66379   0.00000  Uiso   1.00
C827   C     0.24479   0.00887   0.63206   0.00000  Uiso   1.00
C828   C     0.27828   0.03877   0.63883   0.00000  Uiso   1.00
C829   C     0.28027   0.05213   0.67733   0.00000  Uiso   1.00
C830   C     0.24873   0.03567   0.70911   0.00000  Uiso   1.00
C831   C     0.19915   0.23472   0.58112   0.00000  Uiso   1.00
C832   C     0.07159   0.29565   0.97789   0.00000  Uiso   1.00
C833   C     0.12982   0.07039   0.92866   0.00000  Uiso   1.00
C834   C     0.13867   0.17522   0.96149   0.00000  Uiso   1.00
C835   C     0.10748   0.20268   0.98268   0.00000  Uiso   1.00
C836   C     0.15569   0.15047   0.98207   0.00000  Uiso   1.00
C837   C     0.14992   0.16121   0.52300   0.00000  Uiso   1.00
C838   C     0.11682   0.18576   0.54363   0.00000  Uiso   1.00
C839   C     0.09573   0.20642   0.52432   0.00000  Uiso   1.00
H840   H     0.23167   0.06022   0.52950   0.00000  Uiso   1.00
H841   H     0.03706   0.21277   0.56504   0.00000  Uiso   1.00
H842   H     0.05019   0.28730   0.58200   0.00000  Uiso   1.00
H843   H     0.10415   0.28672   0.54954   0.00000  Uiso   1.00
H844   H     0.08845   0.25990   0.59356   0.00000  Uiso   1.00
H845   H     0.18711   0.30289   0.65826   0.00000  Uiso   1.00
H846   H     0.24332   0.33188   0.60223   0.00000  Uiso   1.00
H847   H     0.30271   0.05153   0.61424   0.00000  Uiso   1.00
H848   H     0.30629   0.07518   0.68254   0.00000  Uiso   1.00
H849   H     0.25092   0.04595   0.73876   0.00000  Uiso   1.00
H850   H     0.15652   0.20548   0.62788   0.00000  Uiso   1.00
H851   H     0.01684   0.19360   0.71495   0.00000  Uiso   1.00
H852   H     0.18604   0.26497   0.59253   0.00000  Uiso   1.00
H853   H     0.20628   0.23144   0.54852   0.00000  Uiso   1.00
H854   H     0.22950   0.23494   0.58954   0.00000  Uiso   1.00
H855   H     0.02824   0.24314   0.97264   0.00000  Uiso   1.00
H856   H     0.04650   0.31445   0.99760   0.00000  Uiso   1.00
H857   H     0.07764   0.30330   0.94724   0.00000  Uiso   1.00
H858   H     0.10184   0.30424   0.98715   0.00000  Uiso   1.00
H859   H     0.19679   0.07627   0.91181   0.00000  Uiso   1.00
H860   H     0.12870   0.05706   0.89850   0.00000  Uiso   1.00
H861   H     0.10392   0.09119   0.94060   0.00000  Uiso   1.00
H862   H     0.31802   0.13976   0.78477   0.00000  Uiso   1.00
H863   H     0.12376   0.04444   0.94744   0.00000  Uiso   1.00
H864   H     0.12801   0.33268   0.78665   0.00000  Uiso   1.00
H865   H     0.22708   0.08197   0.59884   0.00000  Uiso   1.00
H866   H     0.21133   0.06633   0.97106   0.00000  Uiso   1.00
H867   H     0.08506   0.23461   0.90427   0.00000  Uiso   1.00
H868   H     0.18144   0.15921   0.90383   0.00000  Uiso   1.00
H869   H     0.10506   0.18757   0.57532   0.00000  Uiso   1.00
N870   N     0.06241   0.23047   0.54742   0.00000  Uiso   1.00
N871   N     0.16760   0.20102   0.59763   0.00000  Uiso   1.00
N872   N     0.05669   0.25165   0.98055   0.00000  Uiso   1.00
N873   N     0.17187   0.09351   0.92708   0.00000  Uiso   1.00
O874   O     0.16667   0.16667   0.75000   0.00000  Uiso   1.00
O875   O     0.15693   0.12393   0.66625   0.00000  Uiso   1.00
O876   O     0.12687   0.20646   0.83749   0.00000  Uiso   1.00
O877   O     0.21088   0.17493   0.65877   0.00000  Uiso   1.00
O878   O     0.17198   0.16135   0.83749   0.00000  Uiso   1.00
O879   O     0.17849   0.08101   0.77820   0.00000  Uiso   1.00
O880   O     0.14581   0.26136   0.76767   0.00000  Uiso   1.00
O881   O     0.07452   0.13251   0.73607   0.00000  Uiso   1.00
O882   O     0.26785   0.19179   0.71805   0.00000  Uiso   1.00
O883   O     0.06990   0.18960   0.77820   0.00000  Uiso   1.00
O884   O     0.25440   0.15277   0.76767   0.00000  Uiso   1.00
O885   O     0.13800   0.06903   0.73607   0.00000  Uiso   1.00
O886   O     0.20437   0.25527   0.71805   0.00000  Uiso   1.00
Zn887  Zn    0.19244   0.14090   0.78277   0.00000  Uiso   1.00
Zn888  Zn    0.13459   0.12378   0.72257   0.00000  Uiso   1.00
Zn889  Zn    0.21166   0.19664   0.71188   0.00000  Uiso   1.00
Zn890  Zn    0.12798   0.20535   0.78277   0.00000  Uiso   1.00
C891   C     0.38583   0.15986   0.75867   0.00000  Uiso   1.00
C892   C     0.50953   0.11406   0.96400   0.00000  Uiso   1.00
C893   C     0.52972   0.09429   0.98489   0.00000  Uiso   1.00
C894   C     0.61441   0.17352   0.74115   0.00000  Uiso   1.00
C895   C     0.52957   0.10900   0.52352   0.00000  Uiso   1.00
C896   C     0.50782   0.14395   0.54276   0.00000  Uiso   1.00
C897   C     0.54942   0.08771   0.54366   0.00000  Uiso   1.00
C898   C     0.54738   0.10032   0.58292   0.00000  Uiso   1.00
C899   C     0.51159   0.16013   0.58102   0.00000  Uiso   1.00
C900   C     0.66042   0.17619   0.73753   0.00000  Uiso   1.00
C901   C     0.34045   0.15730   0.76196   0.00000  Uiso   1.00
C902   C     0.43424   0.21900   0.92010   0.00000  Uiso   1.00
C903   C     0.51390   0.32194   0.73616   0.00000  Uiso   1.00
C904   C     0.48590   0.01219   0.76202   0.00000  Uiso   1.00
C905   C     0.48865   0.05624   0.75948   0.00000  Uiso   1.00
C906   C     0.51004   0.27760   0.74087   0.00000  Uiso   1.00
C907   C     0.52152   0.14512   0.64402   0.00000  Uiso   1.00
C908   C     0.47878   0.18777   0.85618   0.00000  Uiso   1.00
C909   C     0.46691   0.19443   0.89949   0.00000  Uiso   1.00
C910   C     0.52869   0.13631   0.60162   0.00000  Uiso   1.00
C911   C     0.42203   0.22465   0.96127   0.00000  Uiso   1.00
C912   C     0.41057   0.26798   0.56921   0.00000  Uiso   1.00
C913   C     0.48687   0.17454   0.92029   0.00000  Uiso   1.00
C914   C     0.54800   0.00598   0.70255   0.00000  Uiso   1.00
C915   C     0.54642   0.32582   0.66379   0.00000  Uiso   1.00
C916   C     0.57813   0.00887   0.63206   0.00000  Uiso   1.00
C917   C     0.61162   0.03877   0.63883   0.00000  Uiso   1.00
C918   C     0.61360   0.05213   0.67733   0.00000  Uiso   1.00
C919   C     0.58207   0.03567   0.70911   0.00000  Uiso   1.00
C920   C     0.53248   0.23472   0.58112   0.00000  Uiso   1.00
C921   C     0.40493   0.29565   0.97789   0.00000  Uiso   1.00
C922   C     0.46315   0.07039   0.92866   0.00000  Uiso   1.00
C923   C     0.47201   0.17522   0.96149   0.00000  Uiso   1.00
C924   C     0.44081   0.20268   0.98268   0.00000  Uiso   1.00
C925   C     0.48903   0.15047   0.98207   0.00000  Uiso   1.00
C926   C     0.48325   0.16121   0.52300   0.00000  Uiso   1.00
C927   C     0.45015   0.18576   0.54363   0.00000  Uiso   1.00
C928   C     0.42906   0.20642   0.52432   0.00000  Uiso   1.00
H929   H     0.56501   0.06022   0.52950   0.00000  Uiso   1.00
H930   H     0.37040   0.21277   0.56504   0.00000  Uiso   1.00
H931   H     0.38352   0.28730   0.58200   0.00000  Uiso   1.00
H932   H     0.43749   0.28672   0.54954   0.00000  Uiso   1.00
H933   H     0.42178   0.25990   0.59356   0.00000  Uiso   1.00
H934   H     0.52044   0.30289   0.65826   0.00000  Uiso   1.00
H935   H     0.57665   0.33188   0.60223   0.00000  Uiso   1.00
H936   H     0.63604   0.05153   0.61424   0.00000  Uiso   1.00
H937   H     0.63963   0.07518   0.68254   0.00000  Uiso   1.00
H938   H     0.58426   0.04595   0.73876   0.00000  Uiso   1.00
H939   H     0.48986   0.20548   0.62788   0.00000  Uiso   1.00
H940   H     0.35017   0.19360   0.71495   0.00000  Uiso   1.00
H941   H     0.51937   0.26497   0.59253   0.00000  Uiso   1.00
H942   H     0.53961   0.23144   0.54852   0.00000  Uiso   1.00
H943   H     0.56284   0.23494   0.58954   0.00000  Uiso   1.00
H944   H     0.36157   0.24314   0.97264   0.00000  Uiso   1.00
H945   H     0.37984   0.31445   0.99760   0.00000  Uiso   1.00
H946   H     0.41097   0.30330   0.94724   0.00000  Uiso   1.00
H947   H     0.43517   0.30424   0.98715   0.00000  Uiso   1.00
H948   H     0.53013   0.07627   0.91181   0.00000  Uiso   1.00
H949   H     0.46203   0.05706   0.89850   0.00000  Uiso   1.00
H950   H     0.43725   0.09119   0.94060   0.00000  Uiso   1.00
H951   H     0.65135   0.13976   0.78477   0.00000  Uiso   1.00
H952   H     0.45710   0.04444   0.94744   0.00000  Uiso   1.00
H953   H     0.46134   0.33268   0.78665   0.00000  Uiso   1.00
H954   H     0.56041   0.08197   0.59884   0.00000  Uiso   1.00
H955   H     0.54466   0.06633   0.97106   0.00000  Uiso   1.00
H956   H     0.41839   0.23461   0.90427   0.00000  Uiso   1.00
H957   H     0.51477   0.15921   0.90383   0.00000  Uiso   1.00
H958   H     0.43839   0.18757   0.57532   0.00000  Uiso   1.00
N959   N     0.39574   0.23047   0.54742   0.00000  Uiso   1.00
N960   N     0.50093   0.20102   0.59763   0.00000  Uiso   1.00
N961   N     0.39002   0.25165   0.98055   0.00000  Uiso   1.00
N962   N     0.50520   0.09351   0.92708   0.00000  Uiso   1.00
O963   O     0.50000   0.16667   0.75000   0.00000  Uiso   1.00
O964   O     0.49027   0.12393   0.66625   0.00000  Uiso   1.00
O965   O     0.46020   0.20646   0.83749   0.00000  Uiso   1.00
O966   O     0.54421   0.17493   0.65877   0.00000  Uiso   1.00
O967   O     0.50532   0.16135   0.83749   0.00000  Uiso   1.00
O968   O     0.51182   0.08101   0.77820   0.00000  Uiso   1.00
O969   O     0.47914   0.26136   0.76767   0.00000  Uiso   1.00
O970   O     0.40785   0.13251   0.73607   0.00000  Uiso   1.00
O971   O     0.60119   0.19179   0.71805   0.00000  Uiso   1.00
O972   O     0.40323   0.18960   0.77820   0.00000  Uiso   1.00
O973   O     0.58773   0.15277   0.76767   0.00000  Uiso   1.00
O974   O     0.47133   0.06903   0.73607   0.00000  Uiso   1.00
O975   O     0.53771   0.25527   0.71805   0.00000  Uiso   1.00
Zn976  Zn    0.52577   0.14090   0.78277   0.00000  Uiso   1.00
Zn977  Zn    0.46792   0.12378   0.72257   0.00000  Uiso   1.00
Zn978  Zn    0.54500   0.19664   0.71188   0.00000  Uiso   1.00
Zn979  Zn    0.46131   0.20535   0.78277   0.00000  Uiso   1.00
C980   C     0.71916   0.15986   0.75867   0.00000  Uiso   1.00
C981   C     0.84287   0.11406   0.96400   0.00000  Uiso   1.00
C982   C     0.86305   0.09429   0.98489   0.00000  Uiso   1.00
C983   C     0.94775   0.17352   0.74115   0.00000  Uiso   1.00
C984   C     0.86290   0.10900   0.52352   0.00000  Uiso   1.00
C985   C     0.84115   0.14395   0.54276   0.00000  Uiso   1.00
C986   C     0.88276   0.08771   0.54366   0.00000  Uiso   1.00
C987   C     0.88072   0.10032   0.58292   0.00000  Uiso   1.00
C988   C     0.84492   0.16013   0.58102   0.00000  Uiso   1.00
C989   C     0.99375   0.17619   0.73753   0.00000  Uiso   1.00
C990   C     0.67378   0.15730   0.76196   0.00000  Uiso   1.00
C991   C     0.76757   0.21900   0.92010   0.00000  Uiso   1.00
C992   C     0.84724   0.32194   0.73616   0.00000  Uiso   1.00
C993   C     0.81923   0.01219   0.76202   0.00000  Uiso   1.00
C994   C     0.82199   0.05624   0.75948   0.00000  Uiso   1.00
C995   C     0.84337   0.27760   0.74087   0.00000  Uiso   1.00
C996   C     0.85485   0.14512   0.64402   0.00000  Uiso   1.00
C997   C     0.81211   0.18777   0.85618   0.00000  Uiso   1.00
C998   C     0.80024   0.19443   0.89949   0.00000  Uiso   1.00
C999   C     0.86202   0.13631   0.60162   0.00000  Uiso   1.00
C1000  C     0.75536   0.22465   0.96127   0.00000  Uiso   1.00
C1001  C     0.74390   0.26798   0.56921   0.00000  Uiso   1.00
C1002  C     0.82020   0.17454   0.92029   0.00000  Uiso   1.00
C1003  C     0.88133   0.00598   0.70255   0.00000  Uiso   1.00
C1004  C     0.87975   0.32582   0.66379   0.00000  Uiso   1.00
C1005  C     0.91146   0.00887   0.63206   0.00000  Uiso   1.00
C1006  C     0.94495   0.03877   0.63883   0.00000  Uiso   1.00
C1007  C     0.94694   0.05213   0.67733   0.00000  Uiso   1.00
C1008  C     0.91540   0.03567   0.70911   0.00000  Uiso   1.00
C1009  C     0.86581   0.23472   0.58112   0.00000  Uiso   1.00
C1010  C     0.73826   0.29565   0.97789   0.00000  Uiso   1.00
C1011  C     0.79649   0.07039   0.92866   0.00000  Uiso   1.00
C1012  C     0.80534   0.17522   0.96149   0.00000  Uiso   1.00
C1013  C     0.77414   0.20268   0.98268   0.00000  Uiso   1.00
C1014  C     0.82236   0.15047   0.98207   0.00000  Uiso   1.00
C1015  C     0.81658   0.16121   0.52300   0.00000  Uiso   1.00
C1016  C     0.78349   0.18576   0.54363   0.00000  Uiso   1.00
C1017  C     0.76240   0.20642   0.52432   0.00000  Uiso   1.00
H1018  H     0.89834   0.06022   0.52950   0.00000  Uiso   1.00
H1019  H     0.70373   0.21277   0.56504   0.00000  Uiso   1.00
H1020  H     0.71686   0.28730   0.58200   0.00000  Uiso   1.00
H1021  H     0.77082   0.28672   0.54954   0.00000  Uiso   1.00
H1022  H     0.75511   0.25990   0.59356   0.00000  Uiso   1.00
H1023  H     0.85377   0.30289   0.65826   0.00000  Uiso   1.00
H1024  H     0.90998   0.33188   0.60223   0.00000  Uiso   1.00
H1025  H     0.96937   0.05153   0.61424   0.00000  Uiso   1.00
H1026  H     0.97296   0.07518   0.68254   0.00000  Uiso   1.00
H1027  H     0.91759   0.04595   0.73876   0.00000  Uiso   1.00
H1028  H     0.82319   0.20548   0.62788   0.00000  Uiso   1.00
H1029  H     0.68351   0.19360   0.71495   0.00000  Uiso   1.00
H1030  H     0.85271   0.26497   0.59253   0.00000  Uiso   1.00
H1031  H     0.87294   0.23144   0.54852   0.00000  Uiso   1.00
H1032  H     0.89617   0.23494   0.58954   0.00000  Uiso   1.00
H1033  H     0.69491   0.24314   0.97264   0.00000  Uiso   1.00
H1034  H     0.71317   0.31445   0.99760   0.00000  Uiso   1.00
H1035  H     0.74430   0.30330   0.94724   0.00000  Uiso   1.00
H1036  H     0.76850   0.30424   0.98715   0.00000  Uiso   1.00
H1037  H     0.86346   0.07627   0.91181   0.00000  Uiso   1.00
H1038  H     0.79536   0.05706   0.89850   0.00000  Uiso   1.00
H1039  H     0.77059   0.09119   0.94060   0.00000  Uiso   1.00
H1040  H     0.98469   0.13976   0.78477   0.00000  Uiso   1.00
H1041  H     0.79043   0.04444   0.94744   0.00000  Uiso   1.00
H1042  H     0.79468   0.33268   0.78665   0.00000  Uiso   1.00
H1043  H     0.89375   0.08197   0.59884   0.00000  Uiso   1.00
H1044  H     0.87799   0.06633   0.97106   0.00000  Uiso   1.00
H1045  H     0.75172   0.23461   0.90427   0.00000  Uiso   1.00
H1046  H     0.84811   0.15921   0.90383   0.00000  Uiso   1.00
H1047  H     0.77172   0.18757   0.57532   0.00000  Uiso   1.00
N1048  N     0.72908   0.23047   0.54742   0.00000  Uiso   1.00
N1049  N     0.83427   0.20102   0.59763   0.00000  Uiso   1.00
N1050  N     0.72335   0.25165   0.98055   0.00000  Uiso   1.00
N1051  N     0.83854   0.09351   0.92708   0.00000  Uiso   1.00
O1052  O     0.83333   0.16667   0.75000   0.00000  Uiso   1.00
O1053  O     0.82360   0.12393   0.66625   0.00000  Uiso   1.00
O1054  O     0.79354   0.20646   0.83749   0.00000  Uiso   1.00
O1055  O     0.87755   0.17493   0.65877   0.00000  Uiso   1.00
O1056  O     0.83865   0.16135   0.83749   0.00000  Uiso   1.00
O1057  O     0.84515   0.08101   0.77820   0.00000  Uiso   1.00
O1058  O     0.81247   0.26136   0.76767   0.00000  Uiso   1.00
O1059  O     0.74119   0.13251   0.73607   0.00000  Uiso   1.00
O1060  O     0.93452   0.19179   0.71805   0.00000  Uiso   1.00
O1061  O     0.73656   0.18960   0.77820   0.00000  Uiso   1.00
O1062  O     0.92106   0.15277   0.76767   0.00000  Uiso   1.00
O1063  O     0.80467   0.06903   0.73607   0.00000  Uiso   1.00
O1064  O     0.87104   0.25527   0.71805   0.00000  Uiso   1.00
Zn1065 Zn    0.85910   0.14090   0.78277   0.00000  Uiso   1.00
Zn1066 Zn    0.80125   0.12378   0.72257   0.00000  Uiso   1.00
Zn1067 Zn    0.87833   0.19664   0.71188   0.00000  Uiso   1.00
Zn1068 Zn    0.79465   0.20535   0.78277   0.00000  Uiso   1.00
C1069  C     0.05250   0.49319   0.75867   0.00000  Uiso   1.00
C1070  C     0.17620   0.44739   0.96400   0.00000  Uiso   1.00
C1071  C     0.19639   0.42763   0.98489   0.00000  Uiso   1.00
C1072  C     0.28108   0.50686   0.74115   0.00000  Uiso   1.00
C1073  C     0.19623   0.44233   0.52352   0.00000  Uiso   1.00
C1074  C     0.17449   0.47728   0.54276   0.00000  Uiso   1.00
C1075  C     0.21609   0.42105   0.54366   0.00000  Uiso   1.00
C1076  C     0.21405   0.43366   0.58292   0.00000  Uiso   1.00
C1077  C     0.17826   0.49346   0.58102   0.00000  Uiso   1.00
C1078  C     0.32709   0.50952   0.73753   0.00000  Uiso   1.00
C1079  C     0.00711   0.49063   0.76196   0.00000  Uiso   1.00
C1080  C     0.10091   0.55234   0.92010   0.00000  Uiso   1.00
C1081  C     0.18057   0.65527   0.73616   0.00000  Uiso   1.00
C1082  C     0.15257   0.34552   0.76202   0.00000  Uiso   1.00
C1083  C     0.15532   0.38957   0.75948   0.00000  Uiso   1.00
C1084  C     0.17670   0.61094   0.74087   0.00000  Uiso   1.00
C1085  C     0.18819   0.47846   0.64402   0.00000  Uiso   1.00
C1086  C     0.14545   0.52111   0.85618   0.00000  Uiso   1.00
C1087  C     0.13358   0.52776   0.89949   0.00000  Uiso   1.00
C1088  C     0.19535   0.46964   0.60162   0.00000  Uiso   1.00
C1089  C     0.08869   0.55798   0.96127   0.00000  Uiso   1.00
C1090  C     0.07724   0.60131   0.56921   0.00000  Uiso   1.00
C1091  C     0.15353   0.50787   0.92029   0.00000  Uiso   1.00
C1092  C     0.21467   0.33932   0.70255   0.00000  Uiso   1.00
C1093  C     0.21309   0.65915   0.66379   0.00000  Uiso   1.00
C1094  C     0.24479   0.34221   0.63206   0.00000  Uiso   1.00
C1095  C     0.27828   0.37210   0.63883   0.00000  Uiso   1.00
C1096  C     0.28027   0.38547   0.67733   0.00000  Uiso   1.00
C1097  C     0.24873   0.36901   0.70911   0.00000  Uiso   1.00
C1098  C     0.19915   0.56805   0.58112   0.00000  Uiso   1.00
C1099  C     0.07159   0.62898   0.97789   0.00000  Uiso   1.00
C1100  C     0.12982   0.40372   0.92866   0.00000  Uiso   1.00
C1101  C     0.13867   0.50855   0.96149   0.00000  Uiso   1.00
C1102  C     0.10748   0.53601   0.98268   0.00000  Uiso   1.00
C1103  C     0.15569   0.48380   0.98207   0.00000  Uiso   1.00
C1104  C     0.14992   0.49455   0.52300   0.00000  Uiso   1.00
C1105  C     0.11682   0.51910   0.54363   0.00000  Uiso   1.00
C1106  C     0.09573   0.53975   0.52432   0.00000  Uiso   1.00
H1107  H     0.23167   0.39355   0.52950   0.00000  Uiso   1.00
H1108  H     0.03706   0.54611   0.56504   0.00000  Uiso   1.00
H1109  H     0.05019   0.62063   0.58200   0.00000  Uiso   1.00
H1110  H     0.10415   0.62005   0.54954   0.00000  Uiso   1.00
H1111  H     0.08845   0.59323   0.59356   0.00000  Uiso   1.00
H1112  H     0.18711   0.63622   0.65826   0.00000  Uiso   1.00
H1113  H     0.24332   0.66521   0.60223   0.00000  Uiso   1.00
H1114  H     0.30271   0.38487   0.61424   0.00000  Uiso   1.00
H1115  H     0.30629   0.40852   0.68254   0.00000  Uiso   1.00
H1116  H     0.25092   0.37929   0.73876   0.00000  Uiso   1.00
H1117  H     0.15652   0.53882   0.62788   0.00000  Uiso   1.00
H1118  H     0.01684   0.52694   0.71495   0.00000  Uiso   1.00
H1119  H     0.18604   0.59831   0.59253   0.00000  Uiso   1.00
H1120  H     0.20628   0.56477   0.54852   0.00000  Uiso   1.00
H1121  H     0.22950   0.56827   0.58954   0.00000  Uiso   1.00
H1122  H     0.02824   0.57648   0.97264   0.00000  Uiso   1.00
H1123  H     0.04650   0.64778   0.99760   0.00000  Uiso   1.00
H1124  H     0.07764   0.63664   0.94724   0.00000  Uiso   1.00
H1125  H     0.10184   0.63758   0.98715   0.00000  Uiso   1.00
H1126  H     0.19679   0.40961   0.91181   0.00000  Uiso   1.00
H1127  H     0.12870   0.39040   0.89850   0.00000  Uiso   1.00
H1128  H     0.10392   0.42452   0.94060   0.00000  Uiso   1.00
H1129  H     0.31802   0.47310   0.78477   0.00000  Uiso   1.00
H1130  H     0.12376   0.37777   0.94744   0.00000  Uiso   1.00
H1131  H     0.12801   0.66601   0.78665   0.00000  Uiso   1.00
H1132  H     0.22708   0.41530   0.59884   0.00000  Uiso   1.00
H1133  H     0.21133   0.39966   0.97106   0.00000  Uiso   1.00
H1134  H     0.08506   0.56795   0.90427   0.00000  Uiso   1.00
H1135  H     0.18144   0.49254   0.90383   0.00000  Uiso   1.00
H1136  H     0.10506   0.52090   0.57532   0.00000  Uiso   1.00
N1137  N     0.06241   0.56380   0.54742   0.00000  Uiso   1.00
N1138  N     0.16760   0.53435   0.59763   0.00000  Uiso   1.00
N1139  N     0.05669   0.58499   0.98055   0.00000  Uiso   1.00
N1140  N     0.17187   0.42684   0.92708   0.00000  Uiso   1.00
O1141  O     0.16667   0.50000   0.75000   0.00000  Uiso   1.00
O1142  O     0.15693   0.45726   0.66625   0.00000  Uiso   1.00
O1143  O     0.12687   0.53979   0.83749   0.00000  Uiso   1.00
O1144  O     0.21088   0.50826   0.65877   0.00000  Uiso   1.00
O1145  O     0.17198   0.49468   0.83749   0.00000  Uiso   1.00
O1146  O     0.17849   0.41434   0.77820   0.00000  Uiso   1.00
O1147  O     0.14581   0.59469   0.76767   0.00000  Uiso   1.00
O1148  O     0.07452   0.46584   0.73607   0.00000  Uiso   1.00
O1149  O     0.26785   0.52512   0.71805   0.00000  Uiso   1.00
O1150  O     0.06990   0.52293   0.77820   0.00000  Uiso   1.00
O1151  O     0.25440   0.48610   0.76767   0.00000  Uiso   1.00
O1152  O     0.13800   0.40236   0.73607   0.00000  Uiso   1.00
O1153  O     0.20437   0.58860   0.71805   0.00000  Uiso   1.00
Zn1154 Zn    0.19244   0.47423   0.78277   0.00000  Uiso   1.00
Zn1155 Zn    0.13459   0.45711   0.72257   0.00000  Uiso   1.00
Zn1156 Zn    0.21166   0.52997   0.71188   0.00000  Uiso   1.00
Zn1157 Zn    0.12798   0.53868   0.78277   0.00000  Uiso   1.00
C1158  C     0.38583   0.49319   0.75867   0.00000  Uiso   1.00
C1159  C     0.50953   0.44739   0.96400   0.00000  Uiso   1.00
C1160  C     0.52972   0.42763   0.98489   0.00000  Uiso   1.00
C1161  C     0.61441   0.50686   0.74115   0.00000  Uiso   1.00
C1162  C     0.52957   0.44233   0.52352   0.00000  Uiso   1.00
C1163  C     0.50782   0.47728   0.54276   0.00000  Uiso   1.00
C1164  C     0.54942   0.42105   0.54366   0.00000  Uiso   1.00
C1165  C     0.54738   0.43366   0.58292   0.00000  Uiso   1.00
C1166  C     0.51159   0.49346   0.58102   0.00000  Uiso   1.00
C1167  C     0.66042   0.50952   0.73753   0.00000  Uiso   1.00
C1168  C     0.34045   0.49063   0.76196   0.00000  Uiso   1.00
C1169  C     0.43424   0.55234   0.92010   0.00000  Uiso   1.00
C1170  C     0.51390   0.65527   0.73616   0.00000  Uiso   1.00
C1171  C     0.48590   0.34552   0.76202   0.00000  Uiso   1.00
C1172  C     0.48865   0.38957   0.75948   0.00000  Uiso   1.00
C1173  C     0.51004   0.61094   0.74087   0.00000  Uiso   1.00
C1174  C     0.52152   0.47846   0.64402   0.00000  Uiso   1.00
C1175  C     0.47878   0.52111   0.85618   0.00000  Uiso   1.00
C1176  C     0.46691   0.52776   0.89949   0.00000  Uiso   1.00
C1177  C     0.52869   0.46964   0.60162   0.00000  Uiso   1.00
C1178  C     0.42203   0.55798   0.96127   0.00000  Uiso   1.00
C1179  C     0.41057   0.60131   0.56921   0.00000  Uiso   1.00
C1180  C     0.48687   0.50787   0.92029   0.00000  Uiso   1.00
C1181  C     0.54800   0.33932   0.70255   0.00000  Uiso   1.00
C1182  C     0.54642   0.65915   0.66379   0.00000  Uiso   1.00
C1183  C     0.57813   0.34221   0.63206   0.00000  Uiso   1.00
C1184  C     0.61162   0.37210   0.63883   0.00000  Uiso   1.00
C1185  C     0.61360   0.38547   0.67733   0.00000  Uiso   1.00
C1186  C     0.58207   0.36901   0.70911   0.00000  Uiso   1.00
C1187  C     0.53248   0.56805   0.58112   0.00000  Uiso   1.00
C1188  C     0.40493   0.62898   0.97789   0.00000  Uiso   1.00
C1189  C     0.46315   0.40372   0.92866   0.00000  Uiso   1.00
C1190  C     0.47201   0.50855   0.96149   0.00000  Uiso   1.00
C1191  C     0.44081   0.53601   0.98268   0.00000  Uiso   1.00
C1192  C     0.48903   0.48380   0.98207   0.00000  Uiso   1.00
C1193  C     0.48325   0.49455   0.52300   0.00000  Uiso   1.00
C1194  C     0.45015   0.51910   0.54363   0.00000  Uiso   1.00
C1195  C     0.42906   0.53975   0.52432   0.00000  Uiso   1.00
H1196  H     0.56501   0.39355   0.52950   0.00000  Uiso   1.00
H1197  H     0.37040   0.54611   0.56504   0.00000  Uiso   1.00
H1198  H     0.38352   0.62063   0.58200   0.00000  Uiso   1.00
H1199  H     0.43749   0.62005   0.54954   0.00000  Uiso   1.00
H1200  H     0.42178   0.59323   0.59356   0.00000  Uiso   1.00
H1201  H     0.52044   0.63622   0.65826   0.00000  Uiso   1.00
H1202  H     0.57665   0.66521   0.60223   0.00000  Uiso   1.00
H1203  H     0.63604   0.38487   0.61424   0.00000  Uiso   1.00
H1204  H     0.63963   0.40852   0.68254   0.00000  Uiso   1.00
H1205  H     0.58426   0.37929   0.73876   0.00000  Uiso   1.00
H1206  H     0.48986   0.53882   0.62788   0.00000  Uiso   1.00
H1207  H     0.35017   0.52694   0.71495   0.00000  Uiso   1.00
H1208  H     0.51937   0.59831   0.59253   0.00000  Uiso   1.00
H1209  H     0.53961   0.56477   0.54852   0.00000  Uiso   1.00
H1210  H     0.56284   0.56827   0.58954   0.00000  Uiso   1.00
H1211  H     0.36157   0.57648   0.97264   0.00000  Uiso   1.00
H1212  H     0.37984   0.64778   0.99760   0.00000  Uiso   1.00
H1213  H     0.41097   0.63664   0.94724   0.00000  Uiso   1.00
H1214  H     0.43517   0.63758   0.98715   0.00000  Uiso   1.00
H1215  H     0.53013   0.40961   0.91181   0.00000  Uiso   1.00
H1216  H     0.46203   0.39040   0.89850   0.00000  Uiso   1.00
H1217  H     0.43725   0.42452   0.94060   0.00000  Uiso   1.00
H1218  H     0.65135   0.47310   0.78477   0.00000  Uiso   1.00
H1219  H     0.45710   0.37777   0.94744   0.00000  Uiso   1.00
H1220  H     0.46134   0.66601   0.78665   0.00000  Uiso   1.00
H1221  H     0.56041   0.41530   0.59884   0.00000  Uiso   1.00
H1222  H     0.54466   0.39966   0.97106   0.00000  Uiso   1.00
H1223  H     0.41839   0.56795   0.90427   0.00000  Uiso   1.00
H1224  H     0.51477   0.49254   0.90383   0.00000  Uiso   1.00
H1225  H     0.43839   0.52090   0.57532   0.00000  Uiso   1.00
N1226  N     0.39574   0.56380   0.54742   0.00000  Uiso   1.00
N1227  N     0.50093   0.53435   0.59763   0.00000  Uiso   1.00
N1228  N     0.39002   0.58499   0.98055   0.00000  Uiso   1.00
N1229  N     0.50520   0.42684   0.92708   0.00000  Uiso   1.00
O1230  O     0.50000   0.50000   0.75000   0.00000  Uiso   1.00
O1231  O     0.49027   0.45726   0.66625   0.00000  Uiso   1.00
O1232  O     0.46020   0.53979   0.83749   0.00000  Uiso   1.00
O1233  O     0.54421   0.50826   0.65877   0.00000  Uiso   1.00
O1234  O     0.50532   0.49468   0.83749   0.00000  Uiso   1.00
O1235  O     0.51182   0.41434   0.77820   0.00000  Uiso   1.00
O1236  O     0.47914   0.59469   0.76767   0.00000  Uiso   1.00
O1237  O     0.40785   0.46584   0.73607   0.00000  Uiso   1.00
O1238  O     0.60119   0.52512   0.71805   0.00000  Uiso   1.00
O1239  O     0.40323   0.52293   0.77820   0.00000  Uiso   1.00
O1240  O     0.58773   0.48610   0.76767   0.00000  Uiso   1.00
O1241  O     0.47133   0.40236   0.73607   0.00000  Uiso   1.00
O1242  O     0.53771   0.58860   0.71805   0.00000  Uiso   1.00
Zn1243 Zn    0.52577   0.47423   0.78277   0.00000  Uiso   1.00
Zn1244 Zn    0.46792   0.45711   0.72257   0.00000  Uiso   1.00
Zn1245 Zn    0.54500   0.52997   0.71188   0.00000  Uiso   1.00
Zn1246 Zn    0.46131   0.53868   0.78277   0.00000  Uiso   1.00
C1247  C     0.71916   0.49319   0.75867   0.00000  Uiso   1.00
C1248  C     0.84287   0.44739   0.96400   0.00000  Uiso   1.00
C1249  C     0.86305   0.42763   0.98489   0.00000  Uiso   1.00
C1250  C     0.94775   0.50686   0.74115   0.00000  Uiso   1.00
C1251  C     0.86290   0.44233   0.52352   0.00000  Uiso   1.00
C1252  C     0.84115   0.47728   0.54276   0.00000  Uiso   1.00
C1253  C     0.88276   0.42105   0.54366   0.00000  Uiso   1.00
C1254  C     0.88072   0.43366   0.58292   0.00000  Uiso   1.00
C1255  C     0.84492   0.49346   0.58102   0.00000  Uiso   1.00
C1256  C     0.99375   0.50952   0.73753   0.00000  Uiso   1.00
C1257  C     0.67378   0.49063   0.76196   0.00000  Uiso   1.00
C1258  C     0.76757   0.55234   0.92010   0.00000  Uiso   1.00
C1259  C     0.84724   0.65527   0.73616   0.00000  Uiso   1.00
C1260  C     0.81923   0.34552   0.76202   0.00000  Uiso   1.00
C1261  C     0.82199   0.38957   0.75948   0.00000  Uiso   1.00
C1262  C     0.84337   0.61094   0.74087   0.00000  Uiso   1.00
C1263  C     0.85485   0.47846   0.64402   0.00000  Uiso   1.00
C1264  C     0.81211   0.52111   0.85618   0.00000  Uiso   1.00
C1265  C     0.80024   0.52776   0.89949   0.00000  Uiso   1.00
C1266  C     0.86202   0.46964   0.60162   0.00000  Uiso   1.00
C1267  C     0.75536   0.55798   0.96127   0.00000  Uiso   1.00
C1268  C     0.74390   0.60131   0.56921   0.00000  Uiso   1.00
C1269  C     0.82020   0.50787   0.92029   0.00000  Uiso   1.00
C1270  C     0.88133   0.33932   0.70255   0.00000  Uiso   1.00
C1271  C     0.87975   0.65915   0.66379   0.00000  Uiso   1.00
C1272  C     0.91146   0.34221   0.63206   0.00000  Uiso   1.00
C1273  C     0.94495   0.37210   0.63883   0.00000  Uiso   1.00
C1274  C     0.94694   0.38547   0.67733   0.00000  Uiso   1.00
C1275  C     0.91540   0.36901   0.70911   0.00000  Uiso   1.00
C1276  C     0.86581   0.56805   0.58112   0.00000  Uiso   1.00
C1277  C     0.73826   0.62898   0.97789   0.00000  Uiso   1.00
C1278  C     0.79649   0.40372   0.92866   0.00000  Uiso   1.00
C1279  C     0.80534   0.50855   0.96149   0.00000  Uiso   1.00
C1280  C     0.77414   0.53601   0.98268   0.00000  Uiso   1.00
C1281  C     0.82236   0.48380   0.98207   0.00000  Uiso   1.00
C1282  C     0.81658   0.49455   0.52300   0.00000  Uiso   1.00
C1283  C     0.78349   0.51910   0.54363   0.00000  Uiso   1.00
C1284  C     0.76240   0.53975   0.52432   0.00000  Uiso   1.00
H1285  H     0.89834   0.39355   0.52950   0.00000  Uiso   1.00
H1286  H     0.70373   0.54611   0.56504   0.00000  Uiso   1.00
H1287  H     0.71686   0.62063   0.58200   0.00000  Uiso   1.00
H1288  H     0.77082   0.62005   0.54954   0.00000  Uiso   1.00
H1289  H     0.75511   0.59323   0.59356   0.00000  Uiso   1.00
H1290  H     0.85377   0.63622   0.65826   0.00000  Uiso   1.00
H1291  H     0.90998   0.66521   0.60223   0.00000  Uiso   1.00
H1292  H     0.96937   0.38487   0.61424   0.00000  Uiso   1.00
H1293  H     0.97296   0.40852   0.68254   0.00000  Uiso   1.00
H1294  H     0.91759   0.37929   0.73876   0.00000  Uiso   1.00
H1295  H     0.82319   0.53882   0.62788   0.00000  Uiso   1.00
H1296  H     0.68351   0.52694   0.71495   0.00000  Uiso   1.00
H1297  H     0.85271   0.59831   0.59253   0.00000  Uiso   1.00
H1298  H     0.87294   0.56477   0.54852   0.00000  Uiso   1.00
H1299  H     0.89617   0.56827   0.58954   0.00000  Uiso   1.00
H1300  H     0.69491   0.57648   0.97264   0.00000  Uiso   1.00
H1301  H     0.71317   0.64778   0.99760   0.00000  Uiso   1.00
H1302  H     0.74430   0.63664   0.94724   0.00000  Uiso   1.00
H1303  H     0.76850   0.63758   0.98715   0.00000  Uiso   1.00
H1304  H     0.86346   0.40961   0.91181   0.00000  Uiso   1.00
H1305  H     0.79536   0.39040   0.89850   0.00000  Uiso   1.00
H1306  H     0.77059   0.42452   0.94060   0.00000  Uiso   1.00
H1307  H     0.98469   0.47310   0.78477   0.00000  Uiso   1.00
H1308  H     0.79043   0.37777   0.94744   0.00000  Uiso   1.00
H1309  H     0.79468   0.66601   0.78665   0.00000  Uiso   1.00
H1310  H     0.89375   0.41530   0.59884   0.00000  Uiso   1.00
H1311  H     0.87799   0.39966   0.97106   0.00000  Uiso   1.00
H1312  H     0.75172   0.56795   0.90427   0.00000  Uiso   1.00
H1313  H     0.84811   0.49254   0.90383   0.00000  Uiso   1.00
H1314  H     0.77172   0.52090   0.57532   0.00000  Uiso   1.00
N1315  N     0.72908   0.56380   0.54742   0.00000  Uiso   1.00
N1316  N     0.83427   0.53435   0.59763   0.00000  Uiso   1.00
N1317  N     0.72335   0.58499   0.98055   0.00000  Uiso   1.00
N1318  N     0.83854   0.42684   0.92708   0.00000  Uiso   1.00
O1319  O     0.83333   0.50000   0.75000   0.00000  Uiso   1.00
O1320  O     0.82360   0.45726   0.66625   0.00000  Uiso   1.00
O1321  O     0.79354   0.53979   0.83749   0.00000  Uiso   1.00
O1322  O     0.87755   0.50826   0.65877   0.00000  Uiso   1.00
O1323  O     0.83865   0.49468   0.83749   0.00000  Uiso   1.00
O1324  O     0.84515   0.41434   0.77820   0.00000  Uiso   1.00
O1325  O     0.81247   0.59469   0.76767   0.00000  Uiso   1.00
O1326  O     0.74119   0.46584   0.73607   0.00000  Uiso   1.00
O1327  O     0.93452   0.52512   0.71805   0.00000  Uiso   1.00
O1328  O     0.73656   0.52293   0.77820   0.00000  Uiso   1.00
O1329  O     0.92106   0.48610   0.76767   0.00000  Uiso   1.00
O1330  O     0.80467   0.40236   0.73607   0.00000  Uiso   1.00
O1331  O     0.87104   0.58860   0.71805   0.00000  Uiso   1.00
Zn1332 Zn    0.85910   0.47423   0.78277   0.00000  Uiso   1.00
Zn1333 Zn    0.80125   0.45711   0.72257   0.00000  Uiso   1.00
Zn1334 Zn    0.87833   0.52997   0.71188   0.00000  Uiso   1.00
Zn1335 Zn    0.79465   0.53868   0.78277   0.00000  Uiso   1.00
C1336  C     0.05250   0.82653   0.75867   0.00000  Uiso   1.00
C1337  C     0.17620   0.78073   0.96400   0.00000  Uiso   1.00
C1338  C     0.19639   0.76096   0.98489   0.00000  Uiso   1.00
C1339  C     0.28108   0.84019   0.74115   0.00000  Uiso   1.00
C1340  C     0.19623   0.77566   0.52352   0.00000  Uiso   1.00
C1341  C     0.17449   0.81062   0.54276   0.00000  Uiso   1.00
C1342  C     0.21609   0.75438   0.54366   0.00000  Uiso   1.00
C1343  C     0.21405   0.76699   0.58292   0.00000  Uiso   1.00
C1344  C     0.17826   0.82680   0.58102   0.00000  Uiso   1.00
C1345  C     0.32709   0.84285   0.73753   0.00000  Uiso   1.00
C1346  C     0.00711   0.82397   0.76196   0.00000  Uiso   1.00
C1347  C     0.10091   0.88567   0.92010   0.00000  Uiso   1.00
C1348  C     0.18057   0.98861   0.73616   0.00000  Uiso   1.00
C1349  C     0.15257   0.67885   0.76202   0.00000  Uiso   1.00
C1350  C     0.15532   0.72290   0.75948   0.00000  Uiso   1.00
C1351  C     0.17670   0.94427   0.74087   0.00000  Uiso   1.00
C1352  C     0.18819   0.81179   0.64402   0.00000  Uiso   1.00
C1353  C     0.14545   0.85444   0.85618   0.00000  Uiso   1.00
C1354  C     0.13358   0.86109   0.89949   0.00000  Uiso   1.00
C1355  C     0.19535   0.80297   0.60162   0.00000  Uiso   1.00
C1356  C     0.08869   0.89132   0.96127   0.00000  Uiso   1.00
C1357  C     0.07724   0.93464   0.56921   0.00000  Uiso   1.00
C1358  C     0.15353   0.84120   0.92029   0.00000  Uiso   1.00
C1359  C     0.21467   0.67265   0.70255   0.00000  Uiso   1.00
C1360  C     0.21309   0.99249   0.66379   0.00000  Uiso   1.00
C1361  C     0.24479   0.67554   0.63206   0.00000  Uiso   1.00
C1362  C     0.27828   0.70543   0.63883   0.00000  Uiso   1.00
C1363  C     0.28027   0.71880   0.67733   0.00000  Uiso   1.00
C1364  C     0.24873   0.70234   0.70911   0.00000  Uiso   1.00
C1365  C     0.19915   0.90138   0.58112   0.00000  Uiso   1.00
C1366  C     0.07159   0.96232   0.97789   0.00000  Uiso   1.00
C1367  C     0.12982   0.73706   0.92866   0.00000  Uiso   1.00
C1368  C     0.13867   0.84188   0.96149   0.00000  Uiso   1.00
C1369  C     0.10748   0.86935   0.98268   0.00000  Uiso   1.00
C1370  C     0.15569   0.81714   0.98207   0.00000  Uiso   1.00
C1371  C     0.14992   0.82788   0.52300   0.00000  Uiso   1.00
C1372  C     0.11682   0.85243   0.54363   0.00000  Uiso   1.00
C1373  C     0.09573   0.87308   0.52432   0.00000  Uiso   1.00
H1374  H     0.23167   0.72689   0.52950   0.00000  Uiso   1.00
H1375  H     0.03706   0.87944   0.56504   0.00000  Uiso   1.00
H1376  H     0.05019   0.95397   0.58200   0.00000  Uiso   1.00
H1377  H     0.10415   0.95338   0.54954   0.00000  Uiso   1.00
H1378  H     0.08845   0.92656   0.59356   0.00000  Uiso   1.00
H1379  H     0.18711   0.96956   0.65826   0.00000  Uiso   1.00
H1380  H     0.24332   0.99854   0.60223   0.00000  Uiso   1.00
H1381  H     0.30271   0.71820   0.61424   0.00000  Uiso   1.00
H1382  H     0.30629   0.74185   0.68254   0.00000  Uiso   1.00
H1383  H     0.25092   0.71262   0.73876   0.00000  Uiso   1.00
H1384  H     0.15652   0.87215   0.62788   0.00000  Uiso   1.00
H1385  H     0.01684   0.86027   0.71495   0.00000  Uiso   1.00
H1386  H     0.18604   0.93164   0.59253   0.00000  Uiso   1.00
H1387  H     0.20628   0.89811   0.54852   0.00000  Uiso   1.00
H1388  H     0.22950   0.90161   0.58954   0.00000  Uiso   1.00
H1389  H     0.02824   0.90981   0.97264   0.00000  Uiso   1.00
H1390  H     0.04650   0.98112   0.99760   0.00000  Uiso   1.00
H1391  H     0.07764   0.96997   0.94724   0.00000  Uiso   1.00
H1392  H     0.10184   0.97091   0.98715   0.00000  Uiso   1.00
H1393  H     0.19679   0.74294   0.91181   0.00000  Uiso   1.00
H1394  H     0.12870   0.72373   0.89850   0.00000  Uiso   1.00
H1395  H     0.10392   0.75785   0.94060   0.00000  Uiso   1.00
H1396  H     0.31802   0.80643   0.78477   0.00000  Uiso   1.00
H1397  H     0.12376   0.71111   0.94744   0.00000  Uiso   1.00
H1398  H     0.12801   0.99935   0.78665   0.00000  Uiso   1.00
H1399  H     0.22708   0.74863   0.59884   0.00000  Uiso   1.00
H1400  H     0.21133   0.73300   0.97106   0.00000  Uiso   1.00
H1401  H     0.08506   0.90128   0.90427   0.00000  Uiso   1.00
H1402  H     0.18144   0.82587   0.90383   0.00000  Uiso   1.00
H1403  H     0.10506   0.85424   0.57532   0.00000  Uiso   1.00
N1404  N     0.06241   0.89714   0.54742   0.00000  Uiso   1.00
N1405  N     0.16760   0.86769   0.59763   0.00000  Uiso   1.00
N1406  N     0.05669   0.91832   0.98055   0.00000  Uiso   1.00
N1407  N     0.17187   0.76018   0.92708   0.00000  Uiso   1.00
O1408  O     0.16667   0.83333   0.75000   0.00000  Uiso   1.00
O1409  O     0.15693   0.79060   0.66625   0.00000  Uiso   1.00
O1410  O     0.12687   0.87313   0.83749   0.00000  Uiso   1.00
O1411  O     0.21088   0.84159   0.65877   0.00000  Uiso   1.00
O1412  O     0.17198   0.82802   0.83749   0.00000  Uiso   1.00
O1413  O     0.17849   0.74768   0.77820   0.00000  Uiso   1.00
O1414  O     0.14581   0.92803   0.76767   0.00000  Uiso   1.00
O1415  O     0.07452   0.79917   0.73607   0.00000  Uiso   1.00
O1416  O     0.26785   0.85845   0.71805   0.00000  Uiso   1.00
O1417  O     0.06990   0.85627   0.77820   0.00000  Uiso   1.00
O1418  O     0.25440   0.81944   0.76767   0.00000  Uiso   1.00
O1419  O     0.13800   0.73570   0.73607   0.00000  Uiso   1.00
O1420  O     0.20437   0.92193   0.71805   0.00000  Uiso   1.00
Zn1421 Zn    0.19244   0.80756   0.78277   0.00000  Uiso   1.00
Zn1422 Zn    0.13459   0.79044   0.72257   0.00000  Uiso   1.00
Zn1423 Zn    0.21166   0.86331   0.71188   0.00000  Uiso   1.00
Zn1424 Zn    0.12798   0.87202   0.78277   0.00000  Uiso   1.00
C1425  C     0.38583   0.82653   0.75867   0.00000  Uiso   1.00
C1426  C     0.50953   0.78073   0.96400   0.00000  Uiso   1.00
C1427  C     0.52972   0.76096   0.98489   0.00000  Uiso   1.00
C1428  C     0.61441   0.84019   0.74115   0.00000  Uiso   1.00
C1429  C     0.52957   0.77566   0.52352   0.00000  Uiso   1.00
C1430  C     0.50782   0.81062   0.54276   0.00000  Uiso   1.00
C1431  C     0.54942   0.75438   0.54366   0.00000  Uiso   1.00
C1432  C     0.54738   0.76699   0.58292   0.00000  Uiso   1.00
C1433  C     0.51159   0.82680   0.58102   0.00000  Uiso   1.00
C1434  C     0.66042   0.84285   0.73753   0.00000  Uiso   1.00
C1435  C     0.34045   0.82397   0.76196   0.00000  Uiso   1.00
C1436  C     0.43424   0.88567   0.92010   0.00000  Uiso   1.00
C1437  C     0.51390   0.98861   0.73616   0.00000  Uiso   1.00
C1438  C     0.48590   0.67885   0.76202   0.00000  Uiso   1.00
C1439  C     0.48865   0.72290   0.75948   0.00000  Uiso   1.00
C1440  C     0.51004   0.94427   0.74087   0.00000  Uiso   1.00
C1441  C     0.52152   0.81179   0.64402   0.00000  Uiso   1.00
C1442  C     0.47878   0.85444   0.85618   0.00000  Uiso   1.00
C1443  C     0.46691   0.86109   0.89949   0.00000  Uiso   1.00
C1444  C     0.52869   0.80297   0.60162   0.00000  Uiso   1.00
C1445  C     0.42203   0.89132   0.96127   0.00000  Uiso   1.00
C1446  C     0.41057   0.93464   0.56921   0.00000  Uiso   1.00
C1447  C     0.48687   0.84120   0.92029   0.00000  Uiso   1.00
C1448  C     0.54800   0.67265   0.70255   0.00000  Uiso   1.00
C1449  C     0.54642   0.99249   0.66379   0.00000  Uiso   1.00
C1450  C     0.57813   0.67554   0.63206   0.00000  Uiso   1.00
C1451  C     0.61162   0.70543   0.63883   0.00000  Uiso   1.00
C1452  C     0.61360   0.71880   0.67733   0.00000  Uiso   1.00
C1453  C     0.58207   0.70234   0.70911   0.00000  Uiso   1.00
C1454  C     0.53248   0.90138   0.58112   0.00000  Uiso   1.00
C1455  C     0.40493   0.96232   0.97789   0.00000  Uiso   1.00
C1456  C     0.46315   0.73706   0.92866   0.00000  Uiso   1.00
C1457  C     0.47201   0.84188   0.96149   0.00000  Uiso   1.00
C1458  C     0.44081   0.86935   0.98268   0.00000  Uiso   1.00
C1459  C     0.48903   0.81714   0.98207   0.00000  Uiso   1.00
C1460  C     0.48325   0.82788   0.52300   0.00000  Uiso   1.00
C1461  C     0.45015   0.85243   0.54363   0.00000  Uiso   1.00
C1462  C     0.42906   0.87308   0.52432   0.00000  Uiso   1.00
H1463  H     0.56501   0.72689   0.52950   0.00000  Uiso   1.00
H1464  H     0.37040   0.87944   0.56504   0.00000  Uiso   1.00
H1465  H     0.38352   0.95397   0.58200   0.00000  Uiso   1.00
H1466  H     0.43749   0.95338   0.54954   0.00000  Uiso   1.00
H1467  H     0.42178   0.92656   0.59356   0.00000  Uiso   1.00
H1468  H     0.52044   0.96956   0.65826   0.00000  Uiso   1.00
H1469  H     0.57665   0.99854   0.60223   0.00000  Uiso   1.00
H1470  H     0.63604   0.71820   0.61424   0.00000  Uiso   1.00
H1471  H     0.63963   0.74185   0.68254   0.00000  Uiso   1.00
H1472  H     0.58426   0.71262   0.73876   0.00000  Uiso   1.00
H1473  H     0.48986   0.87215   0.62788   0.00000  Uiso   1.00
H1474  H     0.35017   0.86027   0.71495   0.00000  Uiso   1.00
H1475  H     0.51937   0.93164   0.59253   0.00000  Uiso   1.00
H1476  H     0.53961   0.89811   0.54852   0.00000  Uiso   1.00
H1477  H     0.56284   0.90161   0.58954   0.00000  Uiso   1.00
H1478  H     0.36157   0.90981   0.97264   0.00000  Uiso   1.00
H1479  H     0.37984   0.98112   0.99760   0.00000  Uiso   1.00
H1480  H     0.41097   0.96997   0.94724   0.00000  Uiso   1.00
H1481  H     0.43517   0.97091   0.98715   0.00000  Uiso   1.00
H1482  H     0.53013   0.74294   0.91181   0.00000  Uiso   1.00
H1483  H     0.46203   0.72373   0.89850   0.00000  Uiso   1.00
H1484  H     0.43725   0.75785   0.94060   0.00000  Uiso   1.00
H1485  H     0.65135   0.80643   0.78477   0.00000  Uiso   1.00
H1486  H     0.45710   0.71111   0.94744   0.00000  Uiso   1.00
H1487  H     0.46134   0.99935   0.78665   0.00000  Uiso   1.00
H1488  H     0.56041   0.74863   0.59884   0.00000  Uiso   1.00
H1489  H     0.54466   0.73300   0.97106   0.00000  Uiso   1.00
H1490  H     0.41839   0.90128   0.90427   0.00000  Uiso   1.00
H1491  H     0.51477   0.82587   0.90383   0.00000  Uiso   1.00
H1492  H     0.43839   0.85424   0.57532   0.00000  Uiso   1.00
N1493  N     0.39574   0.89714   0.54742   0.00000  Uiso   1.00
N1494  N     0.50093   0.86769   0.59763   0.00000  Uiso   1.00
N1495  N     0.39002   0.91832   0.98055   0.00000  Uiso   1.00
N1496  N     0.50520   0.76018   0.92708   0.00000  Uiso   1.00
O1497  O     0.50000   0.83333   0.75000   0.00000  Uiso   1.00
O1498  O     0.49027   0.79060   0.66625   0.00000  Uiso   1.00
O1499  O     0.46020   0.87313   0.83749   0.00000  Uiso   1.00
O1500  O     0.54421   0.84159   0.65877   0.00000  Uiso   1.00
O1501  O     0.50532   0.82802   0.83749   0.00000  Uiso   1.00
O1502  O     0.51182   0.74768   0.77820   0.00000  Uiso   1.00
O1503  O     0.47914   0.92803   0.76767   0.00000  Uiso   1.00
O1504  O     0.40785   0.79917   0.73607   0.00000  Uiso   1.00
O1505  O     0.60119   0.85845   0.71805   0.00000  Uiso   1.00
O1506  O     0.40323   0.85627   0.77820   0.00000  Uiso   1.00
O1507  O     0.58773   0.81944   0.76767   0.00000  Uiso   1.00
O1508  O     0.47133   0.73570   0.73607   0.00000  Uiso   1.00
O1509  O     0.53771   0.92193   0.71805   0.00000  Uiso   1.00
Zn1510 Zn    0.52577   0.80756   0.78277   0.00000  Uiso   1.00
Zn1511 Zn    0.46792   0.79044   0.72257   0.00000  Uiso   1.00
Zn1512 Zn    0.54500   0.86331   0.71188   0.00000  Uiso   1.00
Zn1513 Zn    0.46131   0.87202   0.78277   0.00000  Uiso   1.00
C1514  C     0.71916   0.82653   0.75867   0.00000  Uiso   1.00
C1515  C     0.84287   0.78073   0.96400   0.00000  Uiso   1.00
C1516  C     0.86305   0.76096   0.98489   0.00000  Uiso   1.00
C1517  C     0.94775   0.84019   0.74115   0.00000  Uiso   1.00
C1518  C     0.86290   0.77566   0.52352   0.00000  Uiso   1.00
C1519  C     0.84115   0.81062   0.54276   0.00000  Uiso   1.00
C1520  C     0.88276   0.75438   0.54366   0.00000  Uiso   1.00
C1521  C     0.88072   0.76699   0.58292   0.00000  Uiso   1.00
C1522  C     0.84492   0.82680   0.58102   0.00000  Uiso   1.00
C1523  C     0.99375   0.84285   0.73753   0.00000  Uiso   1.00
C1524  C     0.67378   0.82397   0.76196   0.00000  Uiso   1.00
C1525  C     0.76757   0.88567   0.92010   0.00000  Uiso   1.00
C1526  C     0.84724   0.98861   0.73616   0.00000  Uiso   1.00
C1527  C     0.81923   0.67885   0.76202   0.00000  Uiso   1.00
C1528  C     0.82199   0.72290   0.75948   0.00000  Uiso   1.00
C1529  C     0.84337   0.94427   0.74087   0.00000  Uiso   1.00
C1530  C     0.85485   0.81179   0.64402   0.00000  Uiso   1.00
C1531  C     0.81211   0.85444   0.85618   0.00000  Uiso   1.00
C1532  C     0.80024   0.86109   0.89949   0.00000  Uiso   1.00
C1533  C     0.86202   0.80297   0.60162   0.00000  Uiso   1.00
C1534  C     0.75536   0.89132   0.96127   0.00000  Uiso   1.00
C1535  C     0.74390   0.93464   0.56921   0.00000  Uiso   1.00
C1536  C     0.82020   0.84120   0.92029   0.00000  Uiso   1.00
C1537  C     0.88133   0.67265   0.70255   0.00000  Uiso   1.00
C1538  C     0.87975   0.99249   0.66379   0.00000  Uiso   1.00
C1539  C     0.91146   0.67554   0.63206   0.00000  Uiso   1.00
C1540  C     0.94495   0.70543   0.63883   0.00000  Uiso   1.00
C1541  C     0.94694   0.71880   0.67733   0.00000  Uiso   1.00
C1542  C     0.91540   0.70234   0.70911   0.00000  Uiso   1.00
C1543  C     0.86581   0.90138   0.58112   0.00000  Uiso   1.00
C1544  C     0.73826   0.96232   0.97789   0.00000  Uiso   1.00
C1545  C     0.79649   0.73706   0.92866   0.00000  Uiso   1.00
C1546  C     0.80534   0.84188   0.96149   0.00000  Uiso   1.00
C1547  C     0.77414   0.86935   0.98268   0.00000  Uiso   1.00
C1548  C     0.82236   0.81714   0.98207   0.00000  Uiso   1.00
C1549  C     0.81658   0.82788   0.52300   0.00000  Uiso   1.00
C1550  C     0.78349   0.85243   0.54363   0.00000  Uiso   1.00
C1551  C     0.76240   0.87308   0.52432   0.00000  Uiso   1.00
H1552  H     0.89834   0.72689   0.52950   0.00000  Uiso   1.00
H1553  H     0.70373   0.87944   0.56504   0.00000  Uiso   1.00
H1554  H     0.71686   0.95397   0.58200   0.00000  Uiso   1.00
H1555  H     0.77082   0.95338   0.54954   0.00000  Uiso   1.00
H1556  H     0.75511   0.92656   0.59356   0.00000  Uiso   1.00
H1557  H     0.85377   0.96956   0.65826   0.00000  Uiso   1.00
H1558  H     0.90998   0.99854   0.60223   0.00000  Uiso   1.00
H1559  H     0.96937   0.71820   0.61424   0.00000  Uiso   1.00
H1560  H     0.97296   0.74185   0.68254   0.00000  Uiso   1.00
H1561  H     0.91759   0.71262   0.73876   0.00000  Uiso   1.00
H1562  H     0.82319   0.87215   0.62788   0.00000  Uiso   1.00
H1563  H     0.68351   0.86027   0.71495   0.00000  Uiso   1.00
H1564  H     0.85271   0.93164   0.59253   0.00000  Uiso   1.00
H1565  H     0.87294   0.89811   0.54852   0.00000  Uiso   1.00
H1566  H     0.89617   0.90161   0.58954   0.00000  Uiso   1.00
H1567  H     0.69491   0.90981   0.97264   0.00000  Uiso   1.00
H1568  H     0.71317   0.98112   0.99760   0.00000  Uiso   1.00
H1569  H     0.74430   0.96997   0.94724   0.00000  Uiso   1.00
H1570  H     0.76850   0.97091   0.98715   0.00000  Uiso   1.00
H1571  H     0.86346   0.74294   0.91181   0.00000  Uiso   1.00
H1572  H     0.79536   0.72373   0.89850   0.00000  Uiso   1.00
H1573  H     0.77059   0.75785   0.94060   0.00000  Uiso   1.00
H1574  H     0.98469   0.80643   0.78477   0.00000  Uiso   1.00
H1575  H     0.79043   0.71111   0.94744   0.00000  Uiso   1.00
H1576  H     0.79468   0.99935   0.78665   0.00000  Uiso   1.00
H1577  H     0.89375   0.74863   0.59884   0.00000  Uiso   1.00
H1578  H     0.87799   0.73300   0.97106   0.00000  Uiso   1.00
H1579  H     0.75172   0.90128   0.90427   0.00000  Uiso   1.00
H1580  H     0.84811   0.82587   0.90383   0.00000  Uiso   1.00
H1581  H     0.77172   0.85424   0.57532   0.00000  Uiso   1.00
N1582  N     0.72908   0.89714   0.54742   0.00000  Uiso   1.00
N1583  N     0.83427   0.86769   0.59763   0.00000  Uiso   1.00
N1584  N     0.72335   0.91832   0.98055   0.00000  Uiso   1.00
N1585  N     0.83854   0.76018   0.92708   0.00000  Uiso   1.00
O1586  O     0.83333   0.83333   0.75000   0.00000  Uiso   1.00
O1587  O     0.82360   0.79060   0.66625   0.00000  Uiso   1.00
O1588  O     0.79354   0.87313   0.83749   0.00000  Uiso   1.00
O1589  O     0.87755   0.84159   0.65877   0.00000  Uiso   1.00
O1590  O     0.83865   0.82802   0.83749   0.00000  Uiso   1.00
O1591  O     0.84515   0.74768   0.77820   0.00000  Uiso   1.00
O1592  O     0.81247   0.92803   0.76767   0.00000  Uiso   1.00
O1593  O     0.74119   0.79917   0.73607   0.00000  Uiso   1.00
O1594  O     0.93452   0.85845   0.71805   0.00000  Uiso   1.00
O1595  O     0.73656   0.85627   0.77820   0.00000  Uiso   1.00
O1596  O     0.92106   0.81944   0.76767   0.00000  Uiso   1.00
O1597  O     0.80467   0.73570   0.73607   0.00000  Uiso   1.00
O1598  O     0.87104   0.92193   0.71805   0.00000  Uiso   1.00
Zn1599 Zn    0.85910   0.80756   0.78277   0.00000  Uiso   1.00
Zn1600 Zn    0.80125   0.79044   0.72257   0.00000  Uiso   1.00
Zn1601 Zn    0.87833   0.86331   0.71188   0.00000  Uiso   1.00
Zn1602 Zn    0.79465   0.87202   0.78277   0.00000  Uiso   1.00
loop_
_geom_bond_atom_site_label_1
_geom_bond_atom_site_label_2
_geom_bond_distance
_geom_bond_site_symmetry_2
_ccdc_geom_bond_type
C1     C11     1.437   .     S
C1     O82     1.270   .     A
C1     O80     1.270   .     A
C2     C35     1.428   .     A
C2     N72     1.425   .     S
C2     C3      1.397   .     A
C3     H65     1.085   .     S
C3     C806    1.392   .     S
C4     O81     1.281   .     A
C4     C10     1.454   .     S
C4     O83     1.277   .     A
C5     C6      1.417   .     A
C5     C7      1.400   .     A
C5     C804    1.392   1_554 S
C6     C9      1.425   .     A
C6     C36     1.424   .     A
C7     C8      1.388   .     A
C7     H39     1.084   .     S
C8     C20     1.396   .     A
C8     H64     1.083   .     S
C9     N70     1.428   .     S
C9     C20     1.408   .     A
C10    C100    1.335   .     S
C10    H139    1.088   .     S
C11    C188    1.335   1_455 S
C11    H239    1.086   1_455 S
C12    H66     1.084   .     S
C12    C21     1.399   .     A
C12    C19     1.396   .     A
C13    C16     1.459   .     S
C13    C281    1.340   .     S
C13    C291    1.489   .     S
C14    C15     1.437   .     S
C14    C547    1.340   1_545 S
C14    H597    1.086   1_545 S
C15    O84     1.277   .     A
C15    O78     1.272   .     A
C16    O85     1.268   .     A
C16    O79     1.276   .     A
C17    C20     1.455   .     S
C17    O76     1.275   .     A
C17    O74     1.269   .     A
C18    O75     1.281   .     A
C18    C19     1.472   .     S
C18    O77     1.288   .     A
C19    C23     1.391   .     A
C21    N71     1.422   .     S
C21    C34     1.424   .     A
C22    H41     1.110   .     S
C22    N69     1.448   .     S
C22    H43     1.111   .     S
C22    H42     1.110   .     S
C23    H67     1.079   .     S
C23    C33     1.406   .     A
C24    C29     1.406   .     A
C24    C547    1.489   1_545 S
C24    C559    1.404   1_545 S
C25    H44     1.083   .     S
C25    C291    1.404   .     S
C25    C293    1.398   .     S
C26    C27     1.398   .     A
C26    C559    1.398   1_545 S
C26    H579    1.082   1_545 S
C27    H46     1.082   .     S
C27    C28     1.398   .     A
C28    H47     1.083   .     S
C28    C29     1.398   .     A
C29    H48     1.083   .     S
C30    H51     1.110   .     S
C30    N70     1.446   .     S
C30    H53     1.111   .     S
C30    H52     1.111   .     S
C31    H56     1.111   .     S
C31    N71     1.447   .     S
C31    H57     1.111   .     S
C31    H55     1.110   .     S
C32    N72     1.447   .     S
C32    H60     1.111   .     S
C32    H62     1.111   .     S
C32    H59     1.110   .     S
C33    C34     1.429   .     A
C33    C35     1.427   .     A
C34    C839    1.415   .     S
C35    C837    1.417   .     S
C36    C37     1.406   .     A
C36    C836    1.417   1_554 S
C37    H68     1.080   .     S
C37    C38     1.394   .     A
C38    N69     1.423   .     S
C38    C835    1.415   1_554 S
H40    N69     1.031   .     S
H45    C293    1.082   .     S
H49    N70     1.031   .     S
H50    C188    1.088   1_455 S
H54    N71     1.032   .     S
H58    N72     1.032   .     S
H61    C100    1.086   .     S
H63    C281    1.086   .     S
O73    Zn87    1.938   .     S
O73    Zn88    1.931   .     S
O73    Zn86    1.959   .     S
O73    Zn89    1.936   .     S
O74    Zn87    1.929   .     S
O75    Zn89    1.938   .     S
O76    Zn88    1.932   .     S
O77    Zn86    1.926   .     S
O78    Zn86    1.927   .     S
O79    Zn89    1.930   .     S
O80    Zn87    1.928   .     S
O81    Zn88    1.936   .     S
O82    Zn89    1.928   .     S
O83    Zn86    1.922   .     S
O84    Zn87    1.938   .     S
O85    Zn88    1.933   .     S
C90    C100    1.437   .     S
C90    O171    1.270   .     A
C90    O169    1.270   .     A
C91    C124    1.428   .     A
C91    N161    1.425   .     S
C91    C92     1.397   .     A
C92    H154    1.085   .     S
C92    C895    1.392   .     S
C93    O170    1.281   .     A
C93    C99     1.454   .     S
C93    O172    1.277   .     A
C94    C95     1.417   .     A
C94    C96     1.400   .     A
C94    C893    1.392   1_554 S
C95    C98     1.425   .     A
C95    C125    1.424   .     A
C96    C97     1.388   .     A
C96    H128    1.084   .     S
C97    C109    1.396   .     A
C97    H153    1.083   .     S
C98    N159    1.428   .     S
C98    C109    1.408   .     A
C99    C189    1.335   .     S
C99    H228    1.088   .     S
C101   H155    1.084   .     S
C101   C110    1.399   .     A
C101   C108    1.396   .     A
C102   C105    1.459   .     S
C102   C370    1.340   .     S
C102   C380    1.489   .     S
C103   C104    1.437   .     S
C103   C636    1.340   1_545 S
C103   H686    1.086   1_545 S
C104   O173    1.277   .     A
C104   O167    1.272   .     A
C105   O174    1.268   .     A
C105   O168    1.276   .     A
C106   C109    1.455   .     S
C106   O165    1.275   .     A
C106   O163    1.269   .     A
C107   O164    1.281   .     A
C107   C108    1.472   .     S
C107   O166    1.288   .     A
C108   C112    1.391   .     A
C110   N160    1.422   .     S
C110   C123    1.424   .     A
C111   H130    1.110   .     S
C111   N158    1.448   .     S
C111   H132    1.111   .     S
C111   H131    1.110   .     S
C112   H156    1.079   .     S
C112   C122    1.406   .     A
C113   C118    1.406   .     A
C113   C636    1.489   1_545 S
C113   C648    1.404   1_545 S
C114   H133    1.083   .     S
C114   C380    1.404   .     S
C114   C382    1.398   .     S
C115   C116    1.398   .     A
C115   C648    1.398   1_545 S
C115   H668    1.082   1_545 S
C116   H135    1.082   .     S
C116   C117    1.398   .     A
C117   H136    1.083   .     S
C117   C118    1.398   .     A
C118   H137    1.083   .     S
C119   H140    1.110   .     S
C119   N159    1.446   .     S
C119   H142    1.111   .     S
C119   H141    1.111   .     S
C120   H145    1.111   .     S
C120   N160    1.447   .     S
C120   H146    1.111   .     S
C120   H144    1.110   .     S
C121   N161    1.447   .     S
C121   H149    1.111   .     S
C121   H151    1.111   .     S
C121   H148    1.110   .     S
C122   C123    1.429   .     A
C122   C124    1.427   .     A
C123   C928    1.415   .     S
C124   C926    1.417   .     S
C125   C126    1.406   .     A
C125   C925    1.417   1_554 S
C126   H157    1.080   .     S
C126   C127    1.394   .     A
C127   N158    1.423   .     S
C127   C924    1.415   1_554 S
H129   N158    1.031   .     S
H134   C382    1.082   .     S
H138   N159    1.031   .     S
H143   N160    1.032   .     S
H147   N161    1.032   .     S
H150   C189    1.086   .     S
H152   C370    1.086   .     S
O162   Zn176   1.938   .     S
O162   Zn177   1.931   .     S
O162   Zn175   1.959   .     S
O162   Zn178   1.936   .     S
O163   Zn176   1.929   .     S
O164   Zn178   1.938   .     S
O165   Zn177   1.932   .     S
O166   Zn175   1.926   .     S
O167   Zn175   1.927   .     S
O168   Zn178   1.930   .     S
O169   Zn176   1.928   .     S
O170   Zn177   1.936   .     S
O171   Zn178   1.928   .     S
O172   Zn175   1.922   .     S
O173   Zn176   1.938   .     S
O174   Zn177   1.933   .     S
C179   C189    1.437   .     S
C179   O260    1.270   .     A
C179   O258    1.270   .     A
C180   C213    1.428   .     A
C180   N250    1.425   .     S
C180   C181    1.397   .     A
C181   H243    1.085   .     S
C181   C984    1.392   .     S
C182   O259    1.281   .     A
C182   C188    1.454   .     S
C182   O261    1.277   .     A
C183   C184    1.417   .     A
C183   C185    1.400   .     A
C183   C982    1.392   1_554 S
C184   C187    1.425   .     A
C184   C214    1.424   .     A
C185   C186    1.388   .     A
C185   H217    1.084   .     S
C186   C198    1.396   .     A
C186   H242    1.083   .     S
C187   N248    1.428   .     S
C187   C198    1.408   .     A
C188   C11     1.335   1_655 S
C188   H50     1.088   1_655 S
C190   H244    1.084   .     S
C190   C199    1.399   .     A
C190   C197    1.396   .     A
C191   C194    1.459   .     S
C191   C459    1.340   .     S
C191   C469    1.489   .     S
C192   C193    1.437   .     S
C192   C725    1.340   1_545 S
C192   H775    1.086   1_545 S
C193   O262    1.277   .     A
C193   O256    1.272   .     A
C194   O263    1.268   .     A
C194   O257    1.276   .     A
C195   C198    1.455   .     S
C195   O254    1.275   .     A
C195   O252    1.269   .     A
C196   O253    1.281   .     A
C196   C197    1.472   .     S
C196   O255    1.288   .     A
C197   C201    1.391   .     A
C199   N249    1.422   .     S
C199   C212    1.424   .     A
C200   H219    1.110   .     S
C200   N247    1.448   .     S
C200   H221    1.111   .     S
C200   H220    1.110   .     S
C201   H245    1.079   .     S
C201   C211    1.406   .     A
C202   C207    1.406   .     A
C202   C725    1.489   1_545 S
C202   C737    1.404   1_545 S
C203   H222    1.083   .     S
C203   C469    1.404   .     S
C203   C471    1.398   .     S
C204   C205    1.398   .     A
C204   C737    1.398   1_545 S
C204   H757    1.082   1_545 S
C205   H224    1.082   .     S
C205   C206    1.398   .     A
C206   H225    1.083   .     S
C206   C207    1.398   .     A
C207   H226    1.083   .     S
C208   H229    1.110   .     S
C208   N248    1.446   .     S
C208   H231    1.111   .     S
C208   H230    1.111   .     S
C209   H234    1.111   .     S
C209   N249    1.447   .     S
C209   H235    1.111   .     S
C209   H233    1.110   .     S
C210   N250    1.447   .     S
C210   H238    1.111   .     S
C210   H240    1.111   .     S
C210   H237    1.110   .     S
C211   C212    1.429   .     A
C211   C213    1.427   .     A
C212   C1017   1.415   .     S
C213   C1015   1.417   .     S
C214   C215    1.406   .     A
C214   C1014   1.417   1_554 S
C215   H246    1.080   .     S
C215   C216    1.394   .     A
C216   N247    1.423   .     S
C216   C1013   1.415   1_554 S
H218   N247    1.031   .     S
H223   C471    1.082   .     S
H227   N248    1.031   .     S
H232   N249    1.032   .     S
H236   N250    1.032   .     S
H239   C11     1.086   1_655 S
H241   C459    1.086   .     S
O251   Zn265   1.938   .     S
O251   Zn266   1.931   .     S
O251   Zn264   1.959   .     S
O251   Zn267   1.936   .     S
O252   Zn265   1.929   .     S
O253   Zn267   1.938   .     S
O254   Zn266   1.932   .     S
O255   Zn264   1.926   .     S
O256   Zn264   1.927   .     S
O257   Zn267   1.930   .     S
O258   Zn265   1.928   .     S
O259   Zn266   1.936   .     S
O260   Zn267   1.928   .     S
O261   Zn264   1.922   .     S
O262   Zn265   1.938   .     S
O263   Zn266   1.933   .     S
C268   C278    1.437   .     S
C268   O349    1.270   .     A
C268   O347    1.270   .     A
C269   C302    1.428   .     A
C269   N339    1.425   .     S
C269   C270    1.397   .     A
C270   H332    1.085   .     S
C270   C1073   1.392   .     S
C271   O348    1.281   .     A
C271   C277    1.454   .     S
C271   O350    1.277   .     A
C272   C273    1.417   .     A
C272   C274    1.400   .     A
C272   C1071   1.392   1_554 S
C273   C276    1.425   .     A
C273   C303    1.424   .     A
C274   C275    1.388   .     A
C274   H306    1.084   .     S
C275   C287    1.396   .     A
C275   H331    1.083   .     S
C276   N337    1.428   .     S
C276   C287    1.408   .     A
C277   C367    1.335   .     S
C277   H406    1.088   .     S
C278   C455    1.335   1_455 S
C278   H506    1.086   1_455 S
C279   H333    1.084   .     S
C279   C288    1.399   .     A
C279   C286    1.396   .     A
C280   C283    1.459   .     S
C280   C548    1.340   .     S
C280   C558    1.489   .     S
C281   C282    1.437   .     S
C282   O351    1.277   .     A
C282   O345    1.272   .     A
C283   O352    1.268   .     A
C283   O346    1.276   .     A
C284   C287    1.455   .     S
C284   O343    1.275   .     A
C284   O341    1.269   .     A
C285   O342    1.281   .     A
C285   C286    1.472   .     S
C285   O344    1.288   .     A
C286   C290    1.391   .     A
C288   N338    1.422   .     S
C288   C301    1.424   .     A
C289   H308    1.110   .     S
C289   N336    1.448   .     S
C289   H310    1.111   .     S
C289   H309    1.110   .     S
C290   H334    1.079   .     S
C290   C300    1.406   .     A
C291   C296    1.406   .     A
C292   H311    1.083   .     S
C292   C558    1.404   .     S
C292   C560    1.398   .     S
C293   C294    1.398   .     A
C294   H313    1.082   .     S
C294   C295    1.398   .     A
C295   H314    1.083   .     S
C295   C296    1.398   .     A
C296   H315    1.083   .     S
C297   H318    1.110   .     S
C297   N337    1.446   .     S
C297   H320    1.111   .     S
C297   H319    1.111   .     S
C298   H323    1.111   .     S
C298   N338    1.447   .     S
C298   H324    1.111   .     S
C298   H322    1.110   .     S
C299   N339    1.447   .     S
C299   H327    1.111   .     S
C299   H329    1.111   .     S
C299   H326    1.110   .     S
C300   C301    1.429   .     A
C300   C302    1.427   .     A
C301   C1106   1.415   .     S
C302   C1104   1.417   .     S
C303   C304    1.406   .     A
C303   C1103   1.417   1_554 S
C304   H335    1.080   .     S
C304   C305    1.394   .     A
C305   N336    1.423   .     S
C305   C1102   1.415   1_554 S
H307   N336    1.031   .     S
H312   C560    1.082   .     S
H316   N337    1.031   .     S
H317   C455    1.088   1_455 S
H321   N338    1.032   .     S
H325   N339    1.032   .     S
H328   C367    1.086   .     S
H330   C548    1.086   .     S
O340   Zn354   1.938   .     S
O340   Zn355   1.931   .     S
O340   Zn353   1.959   .     S
O340   Zn356   1.936   .     S
O341   Zn354   1.929   .     S
O342   Zn356   1.938   .     S
O343   Zn355   1.932   .     S
O344   Zn353   1.926   .     S
O345   Zn353   1.927   .     S
O346   Zn356   1.930   .     S
O347   Zn354   1.928   .     S
O348   Zn355   1.936   .     S
O349   Zn356   1.928   .     S
O350   Zn353   1.922   .     S
O351   Zn354   1.938   .     S
O352   Zn355   1.933   .     S
C357   C367    1.437   .     S
C357   O438    1.270   .     A
C357   O436    1.270   .     A
C358   C391    1.428   .     A
C358   N428    1.425   .     S
C358   C359    1.397   .     A
C359   H421    1.085   .     S
C359   C1162   1.392   .     S
C360   O437    1.281   .     A
C360   C366    1.454   .     S
C360   O439    1.277   .     A
C361   C362    1.417   .     A
C361   C363    1.400   .     A
C361   C1160   1.392   1_554 S
C362   C365    1.425   .     A
C362   C392    1.424   .     A
C363   C364    1.388   .     A
C363   H395    1.084   .     S
C364   C376    1.396   .     A
C364   H420    1.083   .     S
C365   N426    1.428   .     S
C365   C376    1.408   .     A
C366   C456    1.335   .     S
C366   H495    1.088   .     S
C368   H422    1.084   .     S
C368   C377    1.399   .     A
C368   C375    1.396   .     A
C369   C372    1.459   .     S
C369   C637    1.340   .     S
C369   C647    1.489   .     S
C370   C371    1.437   .     S
C371   O440    1.277   .     A
C371   O434    1.272   .     A
C372   O441    1.268   .     A
C372   O435    1.276   .     A
C373   C376    1.455   .     S
C373   O432    1.275   .     A
C373   O430    1.269   .     A
C374   O431    1.281   .     A
C374   C375    1.472   .     S
C374   O433    1.288   .     A
C375   C379    1.391   .     A
C377   N427    1.422   .     S
C377   C390    1.424   .     A
C378   H397    1.110   .     S
C378   N425    1.448   .     S
C378   H399    1.111   .     S
C378   H398    1.110   .     S
C379   H423    1.079   .     S
C379   C389    1.406   .     A
C380   C385    1.406   .     A
C381   H400    1.083   .     S
C381   C647    1.404   .     S
C381   C649    1.398   .     S
C382   C383    1.398   .     A
C383   H402    1.082   .     S
C383   C384    1.398   .     A
C384   H403    1.083   .     S
C384   C385    1.398   .     A
C385   H404    1.083   .     S
C386   H407    1.110   .     S
C386   N426    1.446   .     S
C386   H409    1.111   .     S
C386   H408    1.111   .     S
C387   H412    1.111   .     S
C387   N427    1.447   .     S
C387   H413    1.111   .     S
C387   H411    1.110   .     S
C388   N428    1.447   .     S
C388   H416    1.111   .     S
C388   H418    1.111   .     S
C388   H415    1.110   .     S
C389   C390    1.429   .     A
C389   C391    1.427   .     A
C390   C1195   1.415   .     S
C391   C1193   1.417   .     S
C392   C393    1.406   .     A
C392   C1192   1.417   1_554 S
C393   H424    1.080   .     S
C393   C394    1.394   .     A
C394   N425    1.423   .     S
C394   C1191   1.415   1_554 S
H396   N425    1.031   .     S
H401   C649    1.082   .     S
H405   N426    1.031   .     S
H410   N427    1.032   .     S
H414   N428    1.032   .     S
H417   C456    1.086   .     S
H419   C637    1.086   .     S
O429   Zn443   1.938   .     S
O429   Zn444   1.931   .     S
O429   Zn442   1.959   .     S
O429   Zn445   1.936   .     S
O430   Zn443   1.929   .     S
O431   Zn445   1.938   .     S
O432   Zn444   1.932   .     S
O433   Zn442   1.926   .     S
O434   Zn442   1.927   .     S
O435   Zn445   1.930   .     S
O436   Zn443   1.928   .     S
O437   Zn444   1.936   .     S
O438   Zn445   1.928   .     S
O439   Zn442   1.922   .     S
O440   Zn443   1.938   .     S
O441   Zn444   1.933   .     S
C446   C456    1.437   .     S
C446   O527    1.270   .     A
C446   O525    1.270   .     A
C447   C480    1.428   .     A
C447   N517    1.425   .     S
C447   C448    1.397   .     A
C448   H510    1.085   .     S
C448   C1251   1.392   .     S
C449   O526    1.281   .     A
C449   C455    1.454   .     S
C449   O528    1.277   .     A
C450   C451    1.417   .     A
C450   C452    1.400   .     A
C450   C1249   1.392   1_554 S
C451   C454    1.425   .     A
C451   C481    1.424   .     A
C452   C453    1.388   .     A
C452   H484    1.084   .     S
C453   C465    1.396   .     A
C453   H509    1.083   .     S
C454   N515    1.428   .     S
C454   C465    1.408   .     A
C455   C278    1.335   1_655 S
C455   H317    1.088   1_655 S
C457   H511    1.084   .     S
C457   C466    1.399   .     A
C457   C464    1.396   .     A
C458   C461    1.459   .     S
C458   C726    1.340   .     S
C458   C736    1.489   .     S
C459   C460    1.437   .     S
C460   O529    1.277   .     A
C460   O523    1.272   .     A
C461   O530    1.268   .     A
C461   O524    1.276   .     A
C462   C465    1.455   .     S
C462   O521    1.275   .     A
C462   O519    1.269   .     A
C463   O520    1.281   .     A
C463   C464    1.472   .     S
C463   O522    1.288   .     A
C464   C468    1.391   .     A
C466   N516    1.422   .     S
C466   C479    1.424   .     A
C467   H486    1.110   .     S
C467   N514    1.448   .     S
C467   H488    1.111   .     S
C467   H487    1.110   .     S
C468   H512    1.079   .     S
C468   C478    1.406   .     A
C469   C474    1.406   .     A
C470   H489    1.083   .     S
C470   C736    1.404   .     S
C470   C738    1.398   .     S
C471   C472    1.398   .     A
C472   H491    1.082   .     S
C472   C473    1.398   .     A
C473   H492    1.083   .     S
C473   C474    1.398   .     A
C474   H493    1.083   .     S
C475   H496    1.110   .     S
C475   N515    1.446   .     S
C475   H498    1.111   .     S
C475   H497    1.111   .     S
C476   H501    1.111   .     S
C476   N516    1.447   .     S
C476   H502    1.111   .     S
C476   H500    1.110   .     S
C477   N517    1.447   .     S
C477   H505    1.111   .     S
C477   H507    1.111   .     S
C477   H504    1.110   .     S
C478   C479    1.429   .     A
C478   C480    1.427   .     A
C479   C1284   1.415   .     S
C480   C1282   1.417   .     S
C481   C482    1.406   .     A
C481   C1281   1.417   1_554 S
C482   H513    1.080   .     S
C482   C483    1.394   .     A
C483   N514    1.423   .     S
C483   C1280   1.415   1_554 S
H485   N514    1.031   .     S
H490   C738    1.082   .     S
H494   N515    1.031   .     S
H499   N516    1.032   .     S
H503   N517    1.032   .     S
H506   C278    1.086   1_655 S
H508   C726    1.086   .     S
O518   Zn532   1.938   .     S
O518   Zn533   1.931   .     S
O518   Zn531   1.959   .     S
O518   Zn534   1.936   .     S
O519   Zn532   1.929   .     S
O520   Zn534   1.938   .     S
O521   Zn533   1.932   .     S
O522   Zn531   1.926   .     S
O523   Zn531   1.927   .     S
O524   Zn534   1.930   .     S
O525   Zn532   1.928   .     S
O526   Zn533   1.936   .     S
O527   Zn534   1.928   .     S
O528   Zn531   1.922   .     S
O529   Zn532   1.938   .     S
O530   Zn533   1.933   .     S
C535   C545    1.437   .     S
C535   O616    1.270   .     A
C535   O614    1.270   .     A
C536   C569    1.428   .     A
C536   N606    1.425   .     S
C536   C537    1.397   .     A
C537   H599    1.085   .     S
C537   C1340   1.392   .     S
C538   O615    1.281   .     A
C538   C544    1.454   .     S
C538   O617    1.277   .     A
C539   C540    1.417   .     A
C539   C541    1.400   .     A
C539   C1338   1.392   1_554 S
C540   C543    1.425   .     A
C540   C570    1.424   .     A
C541   C542    1.388   .     A
C541   H573    1.084   .     S
C542   C554    1.396   .     A
C542   H598    1.083   .     S
C543   N604    1.428   .     S
C543   C554    1.408   .     A
C544   C634    1.335   .     S
C544   H673    1.088   .     S
C545   C722    1.335   1_455 S
C545   H773    1.086   1_455 S
C546   H600    1.084   .     S
C546   C555    1.399   .     A
C546   C553    1.396   .     A
C547   C550    1.459   .     S
C547   C14     1.340   1_565 S
C547   C24     1.489   1_565 S
C548   C549    1.437   .     S
C549   O618    1.277   .     A
C549   O612    1.272   .     A
C550   O619    1.268   .     A
C550   O613    1.276   .     A
C551   C554    1.455   .     S
C551   O610    1.275   .     A
C551   O608    1.269   .     A
C552   O609    1.281   .     A
C552   C553    1.472   .     S
C552   O611    1.288   .     A
C553   C557    1.391   .     A
C555   N605    1.422   .     S
C555   C568    1.424   .     A
C556   H575    1.110   .     S
C556   N603    1.448   .     S
C556   H577    1.111   .     S
C556   H576    1.110   .     S
C557   H601    1.079   .     S
C557   C567    1.406   .     A
C558   C563    1.406   .     A
C559   H578    1.083   .     S
C559   C24     1.404   1_565 S
C559   C26     1.398   1_565 S
C560   C561    1.398   .     A
C561   H580    1.082   .     S
C561   C562    1.398   .     A
C562   H581    1.083   .     S
C562   C563    1.398   .     A
C563   H582    1.083   .     S
C564   H585    1.110   .     S
C564   N604    1.446   .     S
C564   H587    1.111   .     S
C564   H586    1.111   .     S
C565   H590    1.111   .     S
C565   N605    1.447   .     S
C565   H591    1.111   .     S
C565   H589    1.110   .     S
C566   N606    1.447   .     S
C566   H594    1.111   .     S
C566   H596    1.111   .     S
C566   H593    1.110   .     S
C567   C568    1.429   .     A
C567   C569    1.427   .     A
C568   C1373   1.415   .     S
C569   C1371   1.417   .     S
C570   C571    1.406   .     A
C570   C1370   1.417   1_554 S
C571   H602    1.080   .     S
C571   C572    1.394   .     A
C572   N603    1.423   .     S
C572   C1369   1.415   1_554 S
H574   N603    1.031   .     S
H579   C26     1.082   1_565 S
H583   N604    1.031   .     S
H584   C722    1.088   1_455 S
H588   N605    1.032   .     S
H592   N606    1.032   .     S
H595   C634    1.086   .     S
H597   C14     1.086   1_565 S
O607   Zn621   1.938   .     S
O607   Zn622   1.931   .     S
O607   Zn620   1.959   .     S
O607   Zn623   1.936   .     S
O608   Zn621   1.929   .     S
O609   Zn623   1.938   .     S
O610   Zn622   1.932   .     S
O611   Zn620   1.926   .     S
O612   Zn620   1.927   .     S
O613   Zn623   1.930   .     S
O614   Zn621   1.928   .     S
O615   Zn622   1.936   .     S
O616   Zn623   1.928   .     S
O617   Zn620   1.922   .     S
O618   Zn621   1.938   .     S
O619   Zn622   1.933   .     S
C624   C634    1.437   .     S
C624   O705    1.270   .     A
C624   O703    1.270   .     A
C625   C658    1.428   .     A
C625   N695    1.425   .     S
C625   C626    1.397   .     A
C626   H688    1.085   .     S
C626   C1429   1.392   .     S
C627   O704    1.281   .     A
C627   C633    1.454   .     S
C627   O706    1.277   .     A
C628   C629    1.417   .     A
C628   C630    1.400   .     A
C628   C1427   1.392   1_554 S
C629   C632    1.425   .     A
C629   C659    1.424   .     A
C630   C631    1.388   .     A
C630   H662    1.084   .     S
C631   C643    1.396   .     A
C631   H687    1.083   .     S
C632   N693    1.428   .     S
C632   C643    1.408   .     A
C633   C723    1.335   .     S
C633   H762    1.088   .     S
C635   H689    1.084   .     S
C635   C644    1.399   .     A
C635   C642    1.396   .     A
C636   C639    1.459   .     S
C636   C103    1.340   1_565 S
C636   C113    1.489   1_565 S
C637   C638    1.437   .     S
C638   O707    1.277   .     A
C638   O701    1.272   .     A
C639   O708    1.268   .     A
C639   O702    1.276   .     A
C640   C643    1.455   .     S
C640   O699    1.275   .     A
C640   O697    1.269   .     A
C641   O698    1.281   .     A
C641   C642    1.472   .     S
C641   O700    1.288   .     A
C642   C646    1.391   .     A
C644   N694    1.422   .     S
C644   C657    1.424   .     A
C645   H664    1.110   .     S
C645   N692    1.448   .     S
C645   H666    1.111   .     S
C645   H665    1.110   .     S
C646   H690    1.079   .     S
C646   C656    1.406   .     A
C647   C652    1.406   .     A
C648   H667    1.083   .     S
C648   C113    1.404   1_565 S
C648   C115    1.398   1_565 S
C649   C650    1.398   .     A
C650   H669    1.082   .     S
C650   C651    1.398   .     A
C651   H670    1.083   .     S
C651   C652    1.398   .     A
C652   H671    1.083   .     S
C653   H674    1.110   .     S
C653   N693    1.446   .     S
C653   H676    1.111   .     S
C653   H675    1.111   .     S
C654   H679    1.111   .     S
C654   N694    1.447   .     S
C654   H680    1.111   .     S
C654   H678    1.110   .     S
C655   N695    1.447   .     S
C655   H683    1.111   .     S
C655   H685    1.111   .     S
C655   H682    1.110   .     S
C656   C657    1.429   .     A
C656   C658    1.427   .     A
C657   C1462   1.415   .     S
C658   C1460   1.417   .     S
C659   C660    1.406   .     A
C659   C1459   1.417   1_554 S
C660   H691    1.080   .     S
C660   C661    1.394   .     A
C661   N692    1.423   .     S
C661   C1458   1.415   1_554 S
H663   N692    1.031   .     S
H668   C115    1.082   1_565 S
H672   N693    1.031   .     S
H677   N694    1.032   .     S
H681   N695    1.032   .     S
H684   C723    1.086   .     S
H686   C103    1.086   1_565 S
O696   Zn710   1.938   .     S
O696   Zn711   1.931   .     S
O696   Zn709   1.959   .     S
O696   Zn712   1.936   .     S
O697   Zn710   1.929   .     S
O698   Zn712   1.938   .     S
O699   Zn711   1.932   .     S
O700   Zn709   1.926   .     S
O701   Zn709   1.927   .     S
O702   Zn712   1.930   .     S
O703   Zn710   1.928   .     S
O704   Zn711   1.936   .     S
O705   Zn712   1.928   .     S
O706   Zn709   1.922   .     S
O707   Zn710   1.938   .     S
O708   Zn711   1.933   .     S
C713   C723    1.437   .     S
C713   O794    1.270   .     A
C713   O792    1.270   .     A
C714   C747    1.428   .     A
C714   N784    1.425   .     S
C714   C715    1.397   .     A
C715   H777    1.085   .     S
C715   C1518   1.392   .     S
C716   O793    1.281   .     A
C716   C722    1.454   .     S
C716   O795    1.277   .     A
C717   C718    1.417   .     A
C717   C719    1.400   .     A
C717   C1516   1.392   1_554 S
C718   C721    1.425   .     A
C718   C748    1.424   .     A
C719   C720    1.388   .     A
C719   H751    1.084   .     S
C720   C732    1.396   .     A
C720   H776    1.083   .     S
C721   N782    1.428   .     S
C721   C732    1.408   .     A
C722   C545    1.335   1_655 S
C722   H584    1.088   1_655 S
C724   H778    1.084   .     S
C724   C733    1.399   .     A
C724   C731    1.396   .     A
C725   C728    1.459   .     S
C725   C192    1.340   1_565 S
C725   C202    1.489   1_565 S
C726   C727    1.437   .     S
C727   O796    1.277   .     A
C727   O790    1.272   .     A
C728   O797    1.268   .     A
C728   O791    1.276   .     A
C729   C732    1.455   .     S
C729   O788    1.275   .     A
C729   O786    1.269   .     A
C730   O787    1.281   .     A
C730   C731    1.472   .     S
C730   O789    1.288   .     A
C731   C735    1.391   .     A
C733   N783    1.422   .     S
C733   C746    1.424   .     A
C734   H753    1.110   .     S
C734   N781    1.448   .     S
C734   H755    1.111   .     S
C734   H754    1.110   .     S
C735   H779    1.079   .     S
C735   C745    1.406   .     A
C736   C741    1.406   .     A
C737   H756    1.083   .     S
C737   C202    1.404   1_565 S
C737   C204    1.398   1_565 S
C738   C739    1.398   .     A
C739   H758    1.082   .     S
C739   C740    1.398   .     A
C740   H759    1.083   .     S
C740   C741    1.398   .     A
C741   H760    1.083   .     S
C742   H763    1.110   .     S
C742   N782    1.446   .     S
C742   H765    1.111   .     S
C742   H764    1.111   .     S
C743   H768    1.111   .     S
C743   N783    1.447   .     S
C743   H769    1.111   .     S
C743   H767    1.110   .     S
C744   N784    1.447   .     S
C744   H772    1.111   .     S
C744   H774    1.111   .     S
C744   H771    1.110   .     S
C745   C746    1.429   .     A
C745   C747    1.427   .     A
C746   C1551   1.415   .     S
C747   C1549   1.417   .     S
C748   C749    1.406   .     A
C748   C1548   1.417   1_554 S
C749   H780    1.080   .     S
C749   C750    1.394   .     A
C750   N781    1.423   .     S
C750   C1547   1.415   1_554 S
H752   N781    1.031   .     S
H757   C204    1.082   1_565 S
H761   N782    1.031   .     S
H766   N783    1.032   .     S
H770   N784    1.032   .     S
H773   C545    1.086   1_655 S
H775   C192    1.086   1_565 S
O785   Zn799   1.938   .     S
O785   Zn800   1.931   .     S
O785   Zn798   1.959   .     S
O785   Zn801   1.936   .     S
O786   Zn799   1.929   .     S
O787   Zn801   1.938   .     S
O788   Zn800   1.932   .     S
O789   Zn798   1.926   .     S
O790   Zn798   1.927   .     S
O791   Zn801   1.930   .     S
O792   Zn799   1.928   .     S
O793   Zn800   1.936   .     S
O794   Zn801   1.928   .     S
O795   Zn798   1.922   .     S
O796   Zn799   1.938   .     S
O797   Zn800   1.933   .     S
C802   C812    1.437   .     S
C802   O883    1.270   .     A
C802   O881    1.270   .     A
C803   C836    1.428   .     A
C803   N873    1.425   .     S
C803   C804    1.397   .     A
C804   H866    1.085   .     S
C804   C5      1.392   1_556 S
C805   O882    1.281   .     A
C805   C811    1.454   .     S
C805   O884    1.277   .     A
C806   C807    1.417   .     A
C806   C808    1.400   .     A
C807   C810    1.425   .     A
C807   C837    1.424   .     A
C808   C809    1.388   .     A
C808   H840    1.084   .     S
C809   C821    1.396   .     A
C809   H865    1.083   .     S
C810   N871    1.428   .     S
C810   C821    1.408   .     A
C811   C901    1.335   .     S
C811   H940    1.088   .     S
C812   C989    1.335   1_455 S
C812   H1040   1.086   1_455 S
C813   H867    1.084   .     S
C813   C822    1.399   .     A
C813   C820    1.396   .     A
C814   C817    1.459   .     S
C814   C1082   1.340   .     S
C814   C1092   1.489   .     S
C815   C816    1.437   .     S
C815   C1348   1.340   1_545 S
C815   H1398   1.086   1_545 S
C816   O885    1.277   .     A
C816   O879    1.272   .     A
C817   O886    1.268   .     A
C817   O880    1.276   .     A
C818   C821    1.455   .     S
C818   O877    1.275   .     A
C818   O875    1.269   .     A
C819   O876    1.281   .     A
C819   C820    1.472   .     S
C819   O878    1.288   .     A
C820   C824    1.391   .     A
C822   N872    1.422   .     S
C822   C835    1.424   .     A
C823   H842    1.110   .     S
C823   N870    1.448   .     S
C823   H844    1.111   .     S
C823   H843    1.110   .     S
C824   H868    1.079   .     S
C824   C834    1.406   .     A
C825   C830    1.406   .     A
C825   C1348   1.489   1_545 S
C825   C1360   1.404   1_545 S
C826   H845    1.083   .     S
C826   C1092   1.404   .     S
C826   C1094   1.398   .     S
C827   C828    1.398   .     A
C827   C1360   1.398   1_545 S
C827   H1380   1.082   1_545 S
C828   H847    1.082   .     S
C828   C829    1.398   .     A
C829   H848    1.083   .     S
C829   C830    1.398   .     A
C830   H849    1.083   .     S
C831   H852    1.110   .     S
C831   N871    1.446   .     S
C831   H854    1.111   .     S
C831   H853    1.111   .     S
C832   H857    1.111   .     S
C832   N872    1.447   .     S
C832   H858    1.111   .     S
C832   H856    1.110   .     S
C833   N873    1.447   .     S
C833   H861    1.111   .     S
C833   H863    1.111   .     S
C833   H860    1.110   .     S
C834   C835    1.429   .     A
C834   C836    1.427   .     A
C835   C38     1.415   1_556 S
C836   C36     1.417   1_556 S
C837   C838    1.406   .     A
C838   H869    1.080   .     S
C838   C839    1.394   .     A
C839   N870    1.423   .     S
H841   N870    1.031   .     S
H846   C1094   1.082   .     S
H850   N871    1.031   .     S
H851   C989    1.088   1_455 S
H855   N872    1.032   .     S
H859   N873    1.032   .     S
H862   C901    1.086   .     S
H864   C1082   1.086   .     S
O874   Zn888   1.938   .     S
O874   Zn889   1.931   .     S
O874   Zn887   1.959   .     S
O874   Zn890   1.936   .     S
O875   Zn888   1.929   .     S
O876   Zn890   1.938   .     S
O877   Zn889   1.932   .     S
O878   Zn887   1.926   .     S
O879   Zn887   1.927   .     S
O880   Zn890   1.930   .     S
O881   Zn888   1.928   .     S
O882   Zn889   1.936   .     S
O883   Zn890   1.928   .     S
O884   Zn887   1.922   .     S
O885   Zn888   1.938   .     S
O886   Zn889   1.933   .     S
C891   C901    1.437   .     S
C891   O972    1.270   .     A
C891   O970    1.270   .     A
C892   C925    1.428   .     A
C892   N962    1.425   .     S
C892   C893    1.397   .     A
C893   H955    1.085   .     S
C893   C94     1.392   1_556 S
C894   O971    1.281   .     A
C894   C900    1.454   .     S
C894   O973    1.277   .     A
C895   C896    1.417   .     A
C895   C897    1.400   .     A
C896   C899    1.425   .     A
C896   C926    1.424   .     A
C897   C898    1.388   .     A
C897   H929    1.084   .     S
C898   C910    1.396   .     A
C898   H954    1.083   .     S
C899   N960    1.428   .     S
C899   C910    1.408   .     A
C900   C990    1.335   .     S
C900   H1029   1.088   .     S
C902   H956    1.084   .     S
C902   C911    1.399   .     A
C902   C909    1.396   .     A
C903   C906    1.459   .     S
C903   C1171   1.340   .     S
C903   C1181   1.489   .     S
C904   C905    1.437   .     S
C904   C1437   1.340   1_545 S
C904   H1487   1.086   1_545 S
C905   O974    1.277   .     A
C905   O968    1.272   .     A
C906   O975    1.268   .     A
C906   O969    1.276   .     A
C907   C910    1.455   .     S
C907   O966    1.275   .     A
C907   O964    1.269   .     A
C908   O965    1.281   .     A
C908   C909    1.472   .     S
C908   O967    1.288   .     A
C909   C913    1.391   .     A
C911   N961    1.422   .     S
C911   C924    1.424   .     A
C912   H931    1.110   .     S
C912   N959    1.448   .     S
C912   H933    1.111   .     S
C912   H932    1.110   .     S
C913   H957    1.079   .     S
C913   C923    1.406   .     A
C914   C919    1.406   .     A
C914   C1437   1.489   1_545 S
C914   C1449   1.404   1_545 S
C915   H934    1.083   .     S
C915   C1181   1.404   .     S
C915   C1183   1.398   .     S
C916   C917    1.398   .     A
C916   C1449   1.398   1_545 S
C916   H1469   1.082   1_545 S
C917   H936    1.082   .     S
C917   C918    1.398   .     A
C918   H937    1.083   .     S
C918   C919    1.398   .     A
C919   H938    1.083   .     S
C920   H941    1.110   .     S
C920   N960    1.446   .     S
C920   H943    1.111   .     S
C920   H942    1.111   .     S
C921   H946    1.111   .     S
C921   N961    1.447   .     S
C921   H947    1.111   .     S
C921   H945    1.110   .     S
C922   N962    1.447   .     S
C922   H950    1.111   .     S
C922   H952    1.111   .     S
C922   H949    1.110   .     S
C923   C924    1.429   .     A
C923   C925    1.427   .     A
C924   C127    1.415   1_556 S
C925   C125    1.417   1_556 S
C926   C927    1.406   .     A
C927   H958    1.080   .     S
C927   C928    1.394   .     A
C928   N959    1.423   .     S
H930   N959    1.031   .     S
H935   C1183   1.082   .     S
H939   N960    1.031   .     S
H944   N961    1.032   .     S
H948   N962    1.032   .     S
H951   C990    1.086   .     S
H953   C1171   1.086   .     S
O963   Zn977   1.938   .     S
O963   Zn978   1.931   .     S
O963   Zn976   1.959   .     S
O963   Zn979   1.936   .     S
O964   Zn977   1.929   .     S
O965   Zn979   1.938   .     S
O966   Zn978   1.932   .     S
O967   Zn976   1.926   .     S
O968   Zn976   1.927   .     S
O969   Zn979   1.930   .     S
O970   Zn977   1.928   .     S
O971   Zn978   1.936   .     S
O972   Zn979   1.928   .     S
O973   Zn976   1.922   .     S
O974   Zn977   1.938   .     S
O975   Zn978   1.933   .     S
C980   C990    1.437   .     S
C980   O1061   1.270   .     A
C980   O1059   1.270   .     A
C981   C1014   1.428   .     A
C981   N1051   1.425   .     S
C981   C982    1.397   .     A
C982   H1044   1.085   .     S
C982   C183    1.392   1_556 S
C983   O1060   1.281   .     A
C983   C989    1.454   .     S
C983   O1062   1.277   .     A
C984   C985    1.417   .     A
C984   C986    1.400   .     A
C985   C988    1.425   .     A
C985   C1015   1.424   .     A
C986   C987    1.388   .     A
C986   H1018   1.084   .     S
C987   C999    1.396   .     A
C987   H1043   1.083   .     S
C988   N1049   1.428   .     S
C988   C999    1.408   .     A
C989   C812    1.335   1_655 S
C989   H851    1.088   1_655 S
C991   H1045   1.084   .     S
C991   C1000   1.399   .     A
C991   C998    1.396   .     A
C992   C995    1.459   .     S
C992   C1260   1.340   .     S
C992   C1270   1.489   .     S
C993   C994    1.437   .     S
C993   C1526   1.340   1_545 S
C993   H1576   1.086   1_545 S
C994   O1063   1.277   .     A
C994   O1057   1.272   .     A
C995   O1064   1.268   .     A
C995   O1058   1.276   .     A
C996   C999    1.455   .     S
C996   O1055   1.275   .     A
C996   O1053   1.269   .     A
C997   O1054   1.281   .     A
C997   C998    1.472   .     S
C997   O1056   1.288   .     A
C998   C1002   1.391   .     A
C1000  N1050   1.422   .     S
C1000  C1013   1.424   .     A
C1001  H1020   1.110   .     S
C1001  N1048   1.448   .     S
C1001  H1022   1.111   .     S
C1001  H1021   1.110   .     S
C1002  H1046   1.079   .     S
C1002  C1012   1.406   .     A
C1003  C1008   1.406   .     A
C1003  C1526   1.489   1_545 S
C1003  C1538   1.404   1_545 S
C1004  H1023   1.083   .     S
C1004  C1270   1.404   .     S
C1004  C1272   1.398   .     S
C1005  C1006   1.398   .     A
C1005  C1538   1.398   1_545 S
C1005  H1558   1.082   1_545 S
C1006  H1025   1.082   .     S
C1006  C1007   1.398   .     A
C1007  H1026   1.083   .     S
C1007  C1008   1.398   .     A
C1008  H1027   1.083   .     S
C1009  H1030   1.110   .     S
C1009  N1049   1.446   .     S
C1009  H1032   1.111   .     S
C1009  H1031   1.111   .     S
C1010  H1035   1.111   .     S
C1010  N1050   1.447   .     S
C1010  H1036   1.111   .     S
C1010  H1034   1.110   .     S
C1011  N1051   1.447   .     S
C1011  H1039   1.111   .     S
C1011  H1041   1.111   .     S
C1011  H1038   1.110   .     S
C1012  C1013   1.429   .     A
C1012  C1014   1.427   .     A
C1013  C216    1.415   1_556 S
C1014  C214    1.417   1_556 S
C1015  C1016   1.406   .     A
C1016  H1047   1.080   .     S
C1016  C1017   1.394   .     A
C1017  N1048   1.423   .     S
H1019  N1048   1.031   .     S
H1024  C1272   1.082   .     S
H1028  N1049   1.031   .     S
H1033  N1050   1.032   .     S
H1037  N1051   1.032   .     S
H1040  C812    1.086   1_655 S
H1042  C1260   1.086   .     S
O1052  Zn1066  1.938   .     S
O1052  Zn1067  1.931   .     S
O1052  Zn1065  1.959   .     S
O1052  Zn1068  1.936   .     S
O1053  Zn1066  1.929   .     S
O1054  Zn1068  1.938   .     S
O1055  Zn1067  1.932   .     S
O1056  Zn1065  1.926   .     S
O1057  Zn1065  1.927   .     S
O1058  Zn1068  1.930   .     S
O1059  Zn1066  1.928   .     S
O1060  Zn1067  1.936   .     S
O1061  Zn1068  1.928   .     S
O1062  Zn1065  1.922   .     S
O1063  Zn1066  1.938   .     S
O1064  Zn1067  1.933   .     S
C1069  C1079   1.437   .     S
C1069  O1150   1.270   .     A
C1069  O1148   1.270   .     A
C1070  C1103   1.428   .     A
C1070  N1140   1.425   .     S
C1070  C1071   1.397   .     A
C1071  H1133   1.085   .     S
C1071  C272    1.392   1_556 S
C1072  O1149   1.281   .     A
C1072  C1078   1.454   .     S
C1072  O1151   1.277   .     A
C1073  C1074   1.417   .     A
C1073  C1075   1.400   .     A
C1074  C1077   1.425   .     A
C1074  C1104   1.424   .     A
C1075  C1076   1.388   .     A
C1075  H1107   1.084   .     S
C1076  C1088   1.396   .     A
C1076  H1132   1.083   .     S
C1077  N1138   1.428   .     S
C1077  C1088   1.408   .     A
C1078  C1168   1.335   .     S
C1078  H1207   1.088   .     S
C1079  C1256   1.335   1_455 S
C1079  H1307   1.086   1_455 S
C1080  H1134   1.084   .     S
C1080  C1089   1.399   .     A
C1080  C1087   1.396   .     A
C1081  C1084   1.459   .     S
C1081  C1349   1.340   .     S
C1081  C1359   1.489   .     S
C1082  C1083   1.437   .     S
C1083  O1152   1.277   .     A
C1083  O1146   1.272   .     A
C1084  O1153   1.268   .     A
C1084  O1147   1.276   .     A
C1085  C1088   1.455   .     S
C1085  O1144   1.275   .     A
C1085  O1142   1.269   .     A
C1086  O1143   1.281   .     A
C1086  C1087   1.472   .     S
C1086  O1145   1.288   .     A
C1087  C1091   1.391   .     A
C1089  N1139   1.422   .     S
C1089  C1102   1.424   .     A
C1090  H1109   1.110   .     S
C1090  N1137   1.448   .     S
C1090  H1111   1.111   .     S
C1090  H1110   1.110   .     S
C1091  H1135   1.079   .     S
C1091  C1101   1.406   .     A
C1092  C1097   1.406   .     A
C1093  H1112   1.083   .     S
C1093  C1359   1.404   .     S
C1093  C1361   1.398   .     S
C1094  C1095   1.398   .     A
C1095  H1114   1.082   .     S
C1095  C1096   1.398   .     A
C1096  H1115   1.083   .     S
C1096  C1097   1.398   .     A
C1097  H1116   1.083   .     S
C1098  H1119   1.110   .     S
C1098  N1138   1.446   .     S
C1098  H1121   1.111   .     S
C1098  H1120   1.111   .     S
C1099  H1124   1.111   .     S
C1099  N1139   1.447   .     S
C1099  H1125   1.111   .     S
C1099  H1123   1.110   .     S
C1100  N1140   1.447   .     S
C1100  H1128   1.111   .     S
C1100  H1130   1.111   .     S
C1100  H1127   1.110   .     S
C1101  C1102   1.429   .     A
C1101  C1103   1.427   .     A
C1102  C305    1.415   1_556 S
C1103  C303    1.417   1_556 S
C1104  C1105   1.406   .     A
C1105  H1136   1.080   .     S
C1105  C1106   1.394   .     A
C1106  N1137   1.423   .     S
H1108  N1137   1.031   .     S
H1113  C1361   1.082   .     S
H1117  N1138   1.031   .     S
H1118  C1256   1.088   1_455 S
H1122  N1139   1.032   .     S
H1126  N1140   1.032   .     S
H1129  C1168   1.086   .     S
H1131  C1349   1.086   .     S
O1141  Zn1155  1.938   .     S
O1141  Zn1156  1.931   .     S
O1141  Zn1154  1.959   .     S
O1141  Zn1157  1.936   .     S
O1142  Zn1155  1.929   .     S
O1143  Zn1157  1.938   .     S
O1144  Zn1156  1.932   .     S
O1145  Zn1154  1.926   .     S
O1146  Zn1154  1.927   .     S
O1147  Zn1157  1.930   .     S
O1148  Zn1155  1.928   .     S
O1149  Zn1156  1.936   .     S
O1150  Zn1157  1.928   .     S
O1151  Zn1154  1.922   .     S
O1152  Zn1155  1.938   .     S
O1153  Zn1156  1.933   .     S
C1158  C1168   1.437   .     S
C1158  O1239   1.270   .     A
C1158  O1237   1.270   .     A
C1159  C1192   1.428   .     A
C1159  N1229   1.425   .     S
C1159  C1160   1.397   .     A
C1160  H1222   1.085   .     S
C1160  C361    1.392   1_556 S
C1161  O1238   1.281   .     A
C1161  C1167   1.454   .     S
C1161  O1240   1.277   .     A
C1162  C1163   1.417   .     A
C1162  C1164   1.400   .     A
C1163  C1166   1.425   .     A
C1163  C1193   1.424   .     A
C1164  C1165   1.388   .     A
C1164  H1196   1.084   .     S
C1165  C1177   1.396   .     A
C1165  H1221   1.083   .     S
C1166  N1227   1.428   .     S
C1166  C1177   1.408   .     A
C1167  C1257   1.335   .     S
C1167  H1296   1.088   .     S
C1169  H1223   1.084   .     S
C1169  C1178   1.399   .     A
C1169  C1176   1.396   .     A
C1170  C1173   1.459   .     S
C1170  C1438   1.340   .     S
C1170  C1448   1.489   .     S
C1171  C1172   1.437   .     S
C1172  O1241   1.277   .     A
C1172  O1235   1.272   .     A
C1173  O1242   1.268   .     A
C1173  O1236   1.276   .     A
C1174  C1177   1.455   .     S
C1174  O1233   1.275   .     A
C1174  O1231   1.269   .     A
C1175  O1232   1.281   .     A
C1175  C1176   1.472   .     S
C1175  O1234   1.288   .     A
C1176  C1180   1.391   .     A
C1178  N1228   1.422   .     S
C1178  C1191   1.424   .     A
C1179  H1198   1.110   .     S
C1179  N1226   1.448   .     S
C1179  H1200   1.111   .     S
C1179  H1199   1.110   .     S
C1180  H1224   1.079   .     S
C1180  C1190   1.406   .     A
C1181  C1186   1.406   .     A
C1182  H1201   1.083   .     S
C1182  C1448   1.404   .     S
C1182  C1450   1.398   .     S
C1183  C1184   1.398   .     A
C1184  H1203   1.082   .     S
C1184  C1185   1.398   .     A
C1185  H1204   1.083   .     S
C1185  C1186   1.398   .     A
C1186  H1205   1.083   .     S
C1187  H1208   1.110   .     S
C1187  N1227   1.446   .     S
C1187  H1210   1.111   .     S
C1187  H1209   1.111   .     S
C1188  H1213   1.111   .     S
C1188  N1228   1.447   .     S
C1188  H1214   1.111   .     S
C1188  H1212   1.110   .     S
C1189  N1229   1.447   .     S
C1189  H1217   1.111   .     S
C1189  H1219   1.111   .     S
C1189  H1216   1.110   .     S
C1190  C1191   1.429   .     A
C1190  C1192   1.427   .     A
C1191  C394    1.415   1_556 S
C1192  C392    1.417   1_556 S
C1193  C1194   1.406   .     A
C1194  H1225   1.080   .     S
C1194  C1195   1.394   .     A
C1195  N1226   1.423   .     S
H1197  N1226   1.031   .     S
H1202  C1450   1.082   .     S
H1206  N1227   1.031   .     S
H1211  N1228   1.032   .     S
H1215  N1229   1.032   .     S
H1218  C1257   1.086   .     S
H1220  C1438   1.086   .     S
O1230  Zn1244  1.938   .     S
O1230  Zn1245  1.931   .     S
O1230  Zn1243  1.959   .     S
O1230  Zn1246  1.936   .     S
O1231  Zn1244  1.929   .     S
O1232  Zn1246  1.938   .     S
O1233  Zn1245  1.932   .     S
O1234  Zn1243  1.926   .     S
O1235  Zn1243  1.927   .     S
O1236  Zn1246  1.930   .     S
O1237  Zn1244  1.928   .     S
O1238  Zn1245  1.936   .     S
O1239  Zn1246  1.928   .     S
O1240  Zn1243  1.922   .     S
O1241  Zn1244  1.938   .     S
O1242  Zn1245  1.933   .     S
C1247  C1257   1.437   .     S
C1247  O1328   1.270   .     A
C1247  O1326   1.270   .     A
C1248  C1281   1.428   .     A
C1248  N1318   1.425   .     S
C1248  C1249   1.397   .     A
C1249  H1311   1.085   .     S
C1249  C450    1.392   1_556 S
C1250  O1327   1.281   .     A
C1250  C1256   1.454   .     S
C1250  O1329   1.277   .     A
C1251  C1252   1.417   .     A
C1251  C1253   1.400   .     A
C1252  C1255   1.425   .     A
C1252  C1282   1.424   .     A
C1253  C1254   1.388   .     A
C1253  H1285   1.084   .     S
C1254  C1266   1.396   .     A
C1254  H1310   1.083   .     S
C1255  N1316   1.428   .     S
C1255  C1266   1.408   .     A
C1256  C1079   1.335   1_655 S
C1256  H1118   1.088   1_655 S
C1258  H1312   1.084   .     S
C1258  C1267   1.399   .     A
C1258  C1265   1.396   .     A
C1259  C1262   1.459   .     S
C1259  C1527   1.340   .     S
C1259  C1537   1.489   .     S
C1260  C1261   1.437   .     S
C1261  O1330   1.277   .     A
C1261  O1324   1.272   .     A
C1262  O1331   1.268   .     A
C1262  O1325   1.276   .     A
C1263  C1266   1.455   .     S
C1263  O1322   1.275   .     A
C1263  O1320   1.269   .     A
C1264  O1321   1.281   .     A
C1264  C1265   1.472   .     S
C1264  O1323   1.288   .     A
C1265  C1269   1.391   .     A
C1267  N1317   1.422   .     S
C1267  C1280   1.424   .     A
C1268  H1287   1.110   .     S
C1268  N1315   1.448   .     S
C1268  H1289   1.111   .     S
C1268  H1288   1.110   .     S
C1269  H1313   1.079   .     S
C1269  C1279   1.406   .     A
C1270  C1275   1.406   .     A
C1271  H1290   1.083   .     S
C1271  C1537   1.404   .     S
C1271  C1539   1.398   .     S
C1272  C1273   1.398   .     A
C1273  H1292   1.082   .     S
C1273  C1274   1.398   .     A
C1274  H1293   1.083   .     S
C1274  C1275   1.398   .     A
C1275  H1294   1.083   .     S
C1276  H1297   1.110   .     S
C1276  N1316   1.446   .     S
C1276  H1299   1.111   .     S
C1276  H1298   1.111   .     S
C1277  H1302   1.111   .     S
C1277  N1317   1.447   .     S
C1277  H1303   1.111   .     S
C1277  H1301   1.110   .     S
C1278  N1318   1.447   .     S
C1278  H1306   1.111   .     S
C1278  H1308   1.111   .     S
C1278  H1305   1.110   .     S
C1279  C1280   1.429   .     A
C1279  C1281   1.427   .     A
C1280  C483    1.415   1_556 S
C1281  C481    1.417   1_556 S
C1282  C1283   1.406   .     A
C1283  H1314   1.080   .     S
C1283  C1284   1.394   .     A
C1284  N1315   1.423   .     S
H1286  N1315   1.031   .     S
H1291  C1539   1.082   .     S
H1295  N1316   1.031   .     S
H1300  N1317   1.032   .     S
H1304  N1318   1.032   .     S
H1307  C1079   1.086   1_655 S
H1309  C1527   1.086   .     S
O1319  Zn1333  1.938   .     S
O1319  Zn1334  1.931   .     S
O1319  Zn1332  1.959   .     S
O1319  Zn1335  1.936   .     S
O1320  Zn1333  1.929   .     S
O1321  Zn1335  1.938   .     S
O1322  Zn1334  1.932   .     S
O1323  Zn1332  1.926   .     S
O1324  Zn1332  1.927   .     S
O1325  Zn1335  1.930   .     S
O1326  Zn1333  1.928   .     S
O1327  Zn1334  1.936   .     S
O1328  Zn1335  1.928   .     S
O1329  Zn1332  1.922   .     S
O1330  Zn1333  1.938   .     S
O1331  Zn1334  1.933   .     S
C1336  C1346   1.437   .     S
C1336  O1417   1.270   .     A
C1336  O1415   1.270   .     A
C1337  C1370   1.428   .     A
C1337  N1407   1.425   .     S
C1337  C1338   1.397   .     A
C1338  H1400   1.085   .     S
C1338  C539    1.392   1_556 S
C1339  O1416   1.281   .     A
C1339  C1345   1.454   .     S
C1339  O1418   1.277   .     A
C1340  C1341   1.417   .     A
C1340  C1342   1.400   .     A
C1341  C1344   1.425   .     A
C1341  C1371   1.424   .     A
C1342  C1343   1.388   .     A
C1342  H1374   1.084   .     S
C1343  C1355   1.396   .     A
C1343  H1399   1.083   .     S
C1344  N1405   1.428   .     S
C1344  C1355   1.408   .     A
C1345  C1435   1.335   .     S
C1345  H1474   1.088   .     S
C1346  C1523   1.335   1_455 S
C1346  H1574   1.086   1_455 S
C1347  H1401   1.084   .     S
C1347  C1356   1.399   .     A
C1347  C1354   1.396   .     A
C1348  C1351   1.459   .     S
C1348  C815    1.340   1_565 S
C1348  C825    1.489   1_565 S
C1349  C1350   1.437   .     S
C1350  O1419   1.277   .     A
C1350  O1413   1.272   .     A
C1351  O1420   1.268   .     A
C1351  O1414   1.276   .     A
C1352  C1355   1.455   .     S
C1352  O1411   1.275   .     A
C1352  O1409   1.269   .     A
C1353  O1410   1.281   .     A
C1353  C1354   1.472   .     S
C1353  O1412   1.288   .     A
C1354  C1358   1.391   .     A
C1356  N1406   1.422   .     S
C1356  C1369   1.424   .     A
C1357  H1376   1.110   .     S
C1357  N1404   1.448   .     S
C1357  H1378   1.111   .     S
C1357  H1377   1.110   .     S
C1358  H1402   1.079   .     S
C1358  C1368   1.406   .     A
C1359  C1364   1.406   .     A
C1360  H1379   1.083   .     S
C1360  C825    1.404   1_565 S
C1360  C827    1.398   1_565 S
C1361  C1362   1.398   .     A
C1362  H1381   1.082   .     S
C1362  C1363   1.398   .     A
C1363  H1382   1.083   .     S
C1363  C1364   1.398   .     A
C1364  H1383   1.083   .     S
C1365  H1386   1.110   .     S
C1365  N1405   1.446   .     S
C1365  H1388   1.111   .     S
C1365  H1387   1.111   .     S
C1366  H1391   1.111   .     S
C1366  N1406   1.447   .     S
C1366  H1392   1.111   .     S
C1366  H1390   1.110   .     S
C1367  N1407   1.447   .     S
C1367  H1395   1.111   .     S
C1367  H1397   1.111   .     S
C1367  H1394   1.110   .     S
C1368  C1369   1.429   .     A
C1368  C1370   1.427   .     A
C1369  C572    1.415   1_556 S
C1370  C570    1.417   1_556 S
C1371  C1372   1.406   .     A
C1372  H1403   1.080   .     S
C1372  C1373   1.394   .     A
C1373  N1404   1.423   .     S
H1375  N1404   1.031   .     S
H1380  C827    1.082   1_565 S
H1384  N1405   1.031   .     S
H1385  C1523   1.088   1_455 S
H1389  N1406   1.032   .     S
H1393  N1407   1.032   .     S
H1396  C1435   1.086   .     S
H1398  C815    1.086   1_565 S
O1408  Zn1422  1.938   .     S
O1408  Zn1423  1.931   .     S
O1408  Zn1421  1.959   .     S
O1408  Zn1424  1.936   .     S
O1409  Zn1422  1.929   .     S
O1410  Zn1424  1.938   .     S
O1411  Zn1423  1.932   .     S
O1412  Zn1421  1.926   .     S
O1413  Zn1421  1.927   .     S
O1414  Zn1424  1.930   .     S
O1415  Zn1422  1.928   .     S
O1416  Zn1423  1.936   .     S
O1417  Zn1424  1.928   .     S
O1418  Zn1421  1.922   .     S
O1419  Zn1422  1.938   .     S
O1420  Zn1423  1.933   .     S
C1425  C1435   1.437   .     S
C1425  O1506   1.270   .     A
C1425  O1504   1.270   .     A
C1426  C1459   1.428   .     A
C1426  N1496   1.425   .     S
C1426  C1427   1.397   .     A
C1427  H1489   1.085   .     S
C1427  C628    1.392   1_556 S
C1428  O1505   1.281   .     A
C1428  C1434   1.454   .     S
C1428  O1507   1.277   .     A
C1429  C1430   1.417   .     A
C1429  C1431   1.400   .     A
C1430  C1433   1.425   .     A
C1430  C1460   1.424   .     A
C1431  C1432   1.388   .     A
C1431  H1463   1.084   .     S
C1432  C1444   1.396   .     A
C1432  H1488   1.083   .     S
C1433  N1494   1.428   .     S
C1433  C1444   1.408   .     A
C1434  C1524   1.335   .     S
C1434  H1563   1.088   .     S
C1436  H1490   1.084   .     S
C1436  C1445   1.399   .     A
C1436  C1443   1.396   .     A
C1437  C1440   1.459   .     S
C1437  C904    1.340   1_565 S
C1437  C914    1.489   1_565 S
C1438  C1439   1.437   .     S
C1439  O1508   1.277   .     A
C1439  O1502   1.272   .     A
C1440  O1509   1.268   .     A
C1440  O1503   1.276   .     A
C1441  C1444   1.455   .     S
C1441  O1500   1.275   .     A
C1441  O1498   1.269   .     A
C1442  O1499   1.281   .     A
C1442  C1443   1.472   .     S
C1442  O1501   1.288   .     A
C1443  C1447   1.391   .     A
C1445  N1495   1.422   .     S
C1445  C1458   1.424   .     A
C1446  H1465   1.110   .     S
C1446  N1493   1.448   .     S
C1446  H1467   1.111   .     S
C1446  H1466   1.110   .     S
C1447  H1491   1.079   .     S
C1447  C1457   1.406   .     A
C1448  C1453   1.406   .     A
C1449  H1468   1.083   .     S
C1449  C914    1.404   1_565 S
C1449  C916    1.398   1_565 S
C1450  C1451   1.398   .     A
C1451  H1470   1.082   .     S
C1451  C1452   1.398   .     A
C1452  H1471   1.083   .     S
C1452  C1453   1.398   .     A
C1453  H1472   1.083   .     S
C1454  H1475   1.110   .     S
C1454  N1494   1.446   .     S
C1454  H1477   1.111   .     S
C1454  H1476   1.111   .     S
C1455  H1480   1.111   .     S
C1455  N1495   1.447   .     S
C1455  H1481   1.111   .     S
C1455  H1479   1.110   .     S
C1456  N1496   1.447   .     S
C1456  H1484   1.111   .     S
C1456  H1486   1.111   .     S
C1456  H1483   1.110   .     S
C1457  C1458   1.429   .     A
C1457  C1459   1.427   .     A
C1458  C661    1.415   1_556 S
C1459  C659    1.417   1_556 S
C1460  C1461   1.406   .     A
C1461  H1492   1.080   .     S
C1461  C1462   1.394   .     A
C1462  N1493   1.423   .     S
H1464  N1493   1.031   .     S
H1469  C916    1.082   1_565 S
H1473  N1494   1.031   .     S
H1478  N1495   1.032   .     S
H1482  N1496   1.032   .     S
H1485  C1524   1.086   .     S
H1487  C904    1.086   1_565 S
O1497  Zn1511  1.938   .     S
O1497  Zn1512  1.931   .     S
O1497  Zn1510  1.959   .     S
O1497  Zn1513  1.936   .     S
O1498  Zn1511  1.929   .     S
O1499  Zn1513  1.938   .     S
O1500  Zn1512  1.932   .     S
O1501  Zn1510  1.926   .     S
O1502  Zn1510  1.927   .     S
O1503  Zn1513  1.930   .     S
O1504  Zn1511  1.928   .     S
O1505  Zn1512  1.936   .     S
O1506  Zn1513  1.928   .     S
O1507  Zn1510  1.922   .     S
O1508  Zn1511  1.938   .     S
O1509  Zn1512  1.933   .     S
C1514  C1524   1.437   .     S
C1514  O1595   1.270   .     A
C1514  O1593   1.270   .     A
C1515  C1548   1.428   .     A
C1515  N1585   1.425   .     S
C1515  C1516   1.397   .     A
C1516  H1578   1.085   .     S
C1516  C717    1.392   1_556 S
C1517  O1594   1.281   .     A
C1517  C1523   1.454   .     S
C1517  O1596   1.277   .     A
C1518  C1519   1.417   .     A
C1518  C1520   1.400   .     A
C1519  C1522   1.425   .     A
C1519  C1549   1.424   .     A
C1520  C1521   1.388   .     A
C1520  H1552   1.084   .     S
C1521  C1533   1.396   .     A
C1521  H1577   1.083   .     S
C1522  N1583   1.428   .     S
C1522  C1533   1.408   .     A
C1523  C1346   1.335   1_655 S
C1523  H1385   1.088   1_655 S
C1525  H1579   1.084   .     S
C1525  C1534   1.399   .     A
C1525  C1532   1.396   .     A
C1526  C1529   1.459   .     S
C1526  C993    1.340   1_565 S
C1526  C1003   1.489   1_565 S
C1527  C1528   1.437   .     S
C1528  O1597   1.277   .     A
C1528  O1591   1.272   .     A
C1529  O1598   1.268   .     A
C1529  O1592   1.276   .     A
C1530  C1533   1.455   .     S
C1530  O1589   1.275   .     A
C1530  O1587   1.269   .     A
C1531  O1588   1.281   .     A
C1531  C1532   1.472   .     S
C1531  O1590   1.288   .     A
C1532  C1536   1.391   .     A
C1534  N1584   1.422   .     S
C1534  C1547   1.424   .     A
C1535  H1554   1.110   .     S
C1535  N1582   1.448   .     S
C1535  H1556   1.111   .     S
C1535  H1555   1.110   .     S
C1536  H1580   1.079   .     S
C1536  C1546   1.406   .     A
C1537  C1542   1.406   .     A
C1538  H1557   1.083   .     S
C1538  C1003   1.404   1_565 S
C1538  C1005   1.398   1_565 S
C1539  C1540   1.398   .     A
C1540  H1559   1.082   .     S
C1540  C1541   1.398   .     A
C1541  H1560   1.083   .     S
C1541  C1542   1.398   .     A
C1542  H1561   1.083   .     S
C1543  H1564   1.110   .     S
C1543  N1583   1.446   .     S
C1543  H1566   1.111   .     S
C1543  H1565   1.111   .     S
C1544  H1569   1.111   .     S
C1544  N1584   1.447   .     S
C1544  H1570   1.111   .     S
C1544  H1568   1.110   .     S
C1545  N1585   1.447   .     S
C1545  H1573   1.111   .     S
C1545  H1575   1.111   .     S
C1545  H1572   1.110   .     S
C1546  C1547   1.429   .     A
C1546  C1548   1.427   .     A
C1547  C750    1.415   1_556 S
C1548  C748    1.417   1_556 S
C1549  C1550   1.406   .     A
C1550  H1581   1.080   .     S
C1550  C1551   1.394   .     A
C1551  N1582   1.423   .     S
H1553  N1582   1.031   .     S
H1558  C1005   1.082   1_565 S
H1562  N1583   1.031   .     S
H1567  N1584   1.032   .     S
H1571  N1585   1.032   .     S
H1574  C1346   1.086   1_655 S
H1576  C993    1.086   1_565 S
O1586  Zn1600  1.938   .     S
O1586  Zn1601  1.931   .     S
O1586  Zn1599  1.959   .     S
O1586  Zn1602  1.936   .     S
O1587  Zn1600  1.929   .     S
O1588  Zn1602  1.938   .     S
O1589  Zn1601  1.932   .     S
O1590  Zn1599  1.926   .     S
O1591  Zn1599  1.927   .     S
O1592  Zn1602  1.930   .     S
O1593  Zn1600  1.928   .     S
O1594  Zn1601  1.936   .     S
O1595  Zn1602  1.928   .     S
O1596  Zn1599  1.922   .     S
O1597  Zn1600  1.938   .     S
O1598  Zn1601  1.933   .     S
