data_str_m1_o1_o17_pcu_sym.132
_audit_creation_date              2020-01-03
_audit_creation_method            'Materials Studio'
_symmetry_space_group_name_H-M    'P1'
_symmetry_Int_Tables_number       1
_symmetry_cell_setting            triclinic
loop_
_symmetry_equiv_pos_as_xyz
  x,y,z
_cell_length_a                    36.6784
_cell_length_b                    36.6784
_cell_length_c                    34.4354
_cell_angle_alpha                 90.0000
_cell_angle_beta                  90.0000
_cell_angle_gamma                 90.0079
loop_
_atom_site_label
_atom_site_type_symbol
_atom_site_fract_x
_atom_site_fract_y
_atom_site_fract_z
_atom_site_U_iso_or_equiv
_atom_site_adp_type
_atom_site_occupancy
C1     C     0.01926   0.27752   0.41840   0.00000  Uiso   1.00
C2     C     0.23074   0.47248   0.08160   0.00000  Uiso   1.00
C3     C     0.22314   0.48012   0.54092   0.00000  Uiso   1.00
C4     C     0.01988   0.27686   0.45908   0.00000  Uiso   1.00
C5     C     0.48012   0.22314   0.54092   0.00000  Uiso   1.00
C6     C     0.22314   0.48012   0.45908   0.00000  Uiso   1.00
C7     C     0.27686   0.01988   0.54092   0.00000  Uiso   1.00
C8     C     0.23012   0.47314   0.95908   0.00000  Uiso   1.00
C9     C     0.26988   0.02686   0.04092   0.00000  Uiso   1.00
C10    C     0.02686   0.26988   0.95908   0.00000  Uiso   1.00
C11    C     0.47314   0.23012   0.04092   0.00000  Uiso   1.00
C12    C     0.26988   0.02686   0.95908   0.00000  Uiso   1.00
C13    C     0.47248   0.23074   0.91840   0.00000  Uiso   1.00
C14    C     0.23012   0.47314   0.04092   0.00000  Uiso   1.00
C15    C     0.47314   0.23012   0.95908   0.00000  Uiso   1.00
C16    C     0.02686   0.26988   0.04092   0.00000  Uiso   1.00
C17    C     0.09813   0.34813   0.25000   0.00000  Uiso   1.00
C18    C     0.40187   0.15187   0.75000   0.00000  Uiso   1.00
C19    C     0.15187   0.09813   0.25000   0.00000  Uiso   1.00
C20    C     0.34813   0.40187   0.75000   0.00000  Uiso   1.00
C21    C     0.40187   0.15187   0.25000   0.00000  Uiso   1.00
C22    C     0.09813   0.34813   0.75000   0.00000  Uiso   1.00
C23    C     0.34813   0.40187   0.25000   0.00000  Uiso   1.00
C24    C     0.02752   0.26926   0.08160   0.00000  Uiso   1.00
C25    C     0.15187   0.09813   0.75000   0.00000  Uiso   1.00
C26    C     0.09813   0.15187   0.75000   0.00000  Uiso   1.00
C27    C     0.40187   0.34813   0.25000   0.00000  Uiso   1.00
C28    C     0.15187   0.40187   0.75000   0.00000  Uiso   1.00
C29    C     0.34813   0.09813   0.25000   0.00000  Uiso   1.00
C30    C     0.40187   0.34813   0.75000   0.00000  Uiso   1.00
C31    C     0.09813   0.15187   0.25000   0.00000  Uiso   1.00
C32    C     0.34813   0.09813   0.75000   0.00000  Uiso   1.00
C33    C     0.15187   0.40187   0.25000   0.00000  Uiso   1.00
C34    C     0.00000   0.25000   0.47949   0.00000  Uiso   1.00
C35    C     0.23074   0.47248   0.91840   0.00000  Uiso   1.00
C36    C     0.00000   0.25000   0.52051   0.00000  Uiso   1.00
C37    C     0.25000   0.00000   0.47949   0.00000  Uiso   1.00
C38    C     0.25000   0.00000   0.52051   0.00000  Uiso   1.00
C39    C     0.25000   0.00000   0.97949   0.00000  Uiso   1.00
C40    C     0.25000   0.00000   0.02051   0.00000  Uiso   1.00
C41    C    -0.00000   0.25000   0.97949   0.00000  Uiso   1.00
C42    C    -0.00000   0.25000   0.02051   0.00000  Uiso   1.00
C43    C     0.26926   0.02752   0.08160   0.00000  Uiso   1.00
C44    C     0.02752   0.26926   0.91840   0.00000  Uiso   1.00
C45    C     0.47248   0.23074   0.08160   0.00000  Uiso   1.00
C46    C     0.00000   0.25000   0.39807   0.00000  Uiso   1.00
C47    C    -0.00000   0.25000   0.60194   0.00000  Uiso   1.00
C48    C     0.25000   0.00000   0.39807   0.00000  Uiso   1.00
C49    C     0.48074   0.22248   0.58160   0.00000  Uiso   1.00
C50    C     0.25000   0.00000   0.60193   0.00000  Uiso   1.00
C51    C     0.25000   0.00000   0.89807   0.00000  Uiso   1.00
C52    C     0.25000   0.00000   0.10193   0.00000  Uiso   1.00
C53    C    -0.00000   0.25000   0.89807   0.00000  Uiso   1.00
C54    C     0.00000   0.25000   0.10193   0.00000  Uiso   1.00
C55    C     0.46046   0.19672   0.47984   0.00000  Uiso   1.00
C56    C     0.03954   0.30328   0.52016   0.00000  Uiso   1.00
C57    C     0.30328   0.03954   0.47984   0.00000  Uiso   1.00
C58    C     0.19672   0.46046   0.52016   0.00000  Uiso   1.00
C59    C     0.03954   0.30328   0.47984   0.00000  Uiso   1.00
C60    C     0.22248   0.48074   0.41840   0.00000  Uiso   1.00
C61    C     0.46046   0.19672   0.52016   0.00000  Uiso   1.00
C62    C     0.19672   0.46046   0.47984   0.00000  Uiso   1.00
C63    C     0.30328   0.03954   0.52016   0.00000  Uiso   1.00
C64    C     0.21046   0.44672   0.97984   0.00000  Uiso   1.00
C65    C     0.28954   0.05328   0.02016   0.00000  Uiso   1.00
C66    C     0.05328   0.28953   0.97984   0.00000  Uiso   1.00
C67    C     0.44672   0.21047   0.02016   0.00000  Uiso   1.00
C68    C     0.28954   0.05328   0.97984   0.00000  Uiso   1.00
C69    C     0.21046   0.44672   0.02016   0.00000  Uiso   1.00
C70    C     0.44672   0.21047   0.97984   0.00000  Uiso   1.00
C71    C     0.27752   0.01926   0.58160   0.00000  Uiso   1.00
C72    C     0.05328   0.28953   0.02016   0.00000  Uiso   1.00
C73    C     0.25000   0.00000   0.35576   0.00000  Uiso   1.00
C74    C     0.25000   0.00000   0.64424   0.00000  Uiso   1.00
C75    C    -0.00000   0.25000   0.35576   0.00000  Uiso   1.00
C76    C    -0.00000   0.25000   0.64424   0.00000  Uiso   1.00
C77    C    -0.00000   0.25000   0.85576   0.00000  Uiso   1.00
C78    C     0.00000   0.25000   0.14424   0.00000  Uiso   1.00
C79    C     0.25000   0.00000   0.85576   0.00000  Uiso   1.00
C80    C     0.25000   0.00000   0.14424   0.00000  Uiso   1.00
C81    C     0.17994   0.07006   0.25000   0.00000  Uiso   1.00
C82    C     0.48074   0.22248   0.41840   0.00000  Uiso   1.00
C83    C     0.32006   0.42994   0.75000   0.00000  Uiso   1.00
C84    C     0.42994   0.17994   0.25000   0.00000  Uiso   1.00
C85    C     0.07006   0.32006   0.75000   0.00000  Uiso   1.00
C86    C     0.32006   0.42994   0.25000   0.00000  Uiso   1.00
C87    C     0.17994   0.07006   0.75000   0.00000  Uiso   1.00
C88    C     0.07006   0.32006   0.25000   0.00000  Uiso   1.00
C89    C     0.42994   0.17994   0.75000   0.00000  Uiso   1.00
C90    C     0.17994   0.42994   0.75000   0.00000  Uiso   1.00
C91    C     0.32006   0.07006   0.25000   0.00000  Uiso   1.00
C92    C     0.42994   0.32006   0.75000   0.00000  Uiso   1.00
C93    C     0.01926   0.27752   0.58160   0.00000  Uiso   1.00
C94    C     0.07006   0.17994   0.25000   0.00000  Uiso   1.00
C95    C     0.32006   0.07006   0.75000   0.00000  Uiso   1.00
C96    C     0.17994   0.42994   0.25000   0.00000  Uiso   1.00
C97    C     0.07006   0.17994   0.75000   0.00000  Uiso   1.00
C98    C     0.42994   0.32006   0.25000   0.00000  Uiso   1.00
C99    C     0.12215   0.40458   0.22457   0.00000  Uiso   1.00
C100   C     0.37785   0.09542   0.77543   0.00000  Uiso   1.00
C101   C     0.09514   0.12186   0.22499   0.00000  Uiso   1.00
C102   C     0.40486   0.37814   0.77501   0.00000  Uiso   1.00
C103   C     0.37785   0.09542   0.22457   0.00000  Uiso   1.00
C104   C     0.27752   0.01926   0.41840   0.00000  Uiso   1.00
C105   C     0.12215   0.40458   0.77543   0.00000  Uiso   1.00
C106   C     0.40486   0.37814   0.22499   0.00000  Uiso   1.00
C107   C     0.09514   0.12186   0.77501   0.00000  Uiso   1.00
C108   C     0.12186   0.09514   0.77501   0.00000  Uiso   1.00
C109   C     0.37814   0.40486   0.22499   0.00000  Uiso   1.00
C110   C     0.09542   0.37785   0.77543   0.00000  Uiso   1.00
C111   C     0.40458   0.12215   0.22457   0.00000  Uiso   1.00
C112   C     0.37814   0.40486   0.77501   0.00000  Uiso   1.00
C113   C     0.12186   0.09514   0.22499   0.00000  Uiso   1.00
C114   C     0.40458   0.12215   0.77543   0.00000  Uiso   1.00
C115   C     0.22248   0.48074   0.58160   0.00000  Uiso   1.00
C116   C     0.09542   0.37785   0.22457   0.00000  Uiso   1.00
C117   C     0.37215   0.15458   0.72457   0.00000  Uiso   1.00
C118   C     0.12785   0.34542   0.27543   0.00000  Uiso   1.00
C119   C     0.34514   0.37186   0.72499   0.00000  Uiso   1.00
C120   C     0.15486   0.12814   0.27501   0.00000  Uiso   1.00
C121   C     0.12785   0.34542   0.72457   0.00000  Uiso   1.00
C122   C     0.37215   0.15458   0.27543   0.00000  Uiso   1.00
C123   C     0.15486   0.12814   0.72498   0.00000  Uiso   1.00
C124   C     0.34514   0.37186   0.27501   0.00000  Uiso   1.00
C125   C     0.37186   0.34514   0.27501   0.00000  Uiso   1.00
C126   C     0.26926   0.02752   0.91840   0.00000  Uiso   1.00
C127   C     0.12814   0.15486   0.72498   0.00000  Uiso   1.00
C128   C     0.34542   0.12785   0.27543   0.00000  Uiso   1.00
C129   C     0.15458   0.37215   0.72457   0.00000  Uiso   1.00
C130   C     0.12814   0.15486   0.27501   0.00000  Uiso   1.00
C131   C     0.37186   0.34514   0.72499   0.00000  Uiso   1.00
C132   C     0.15458   0.37215   0.27543   0.00000  Uiso   1.00
C133   C     0.34542   0.12785   0.72457   0.00000  Uiso   1.00
C134   C     0.48012   0.22314   0.45908   0.00000  Uiso   1.00
C135   C     0.01988   0.27686   0.54092   0.00000  Uiso   1.00
C136   C     0.27686   0.01988   0.45908   0.00000  Uiso   1.00
H137   H     0.44498   0.17575   0.46505   0.00000  Uiso   1.00
H138   H     0.30501   0.07425   0.03495   0.00000  Uiso   1.00
H139   H     0.07425   0.30501   0.96505   0.00000  Uiso   1.00
H140   H     0.42575   0.19499   0.03495   0.00000  Uiso   1.00
H141   H     0.30501   0.07425   0.96505   0.00000  Uiso   1.00
H142   H     0.19499   0.42575   0.03495   0.00000  Uiso   1.00
H143   H     0.42575   0.19499   0.96505   0.00000  Uiso   1.00
H144   H     0.07425   0.30501   0.03495   0.00000  Uiso   1.00
H145   H     0.11952   0.42729   0.20466   0.00000  Uiso   1.00
H146   H     0.38048   0.07271   0.79534   0.00000  Uiso   1.00
H147   H     0.07219   0.11900   0.20542   0.00000  Uiso   1.00
H148   H     0.05501   0.32425   0.53495   0.00000  Uiso   1.00
H149   H     0.42781   0.38100   0.79458   0.00000  Uiso   1.00
H150   H     0.38048   0.07271   0.20466   0.00000  Uiso   1.00
H151   H     0.11952   0.42729   0.79534   0.00000  Uiso   1.00
H152   H     0.42781   0.38100   0.20542   0.00000  Uiso   1.00
H153   H     0.07219   0.11900   0.79458   0.00000  Uiso   1.00
H154   H     0.11900   0.07219   0.79458   0.00000  Uiso   1.00
H155   H     0.38100   0.42781   0.20542   0.00000  Uiso   1.00
H156   H     0.07271   0.38048   0.79534   0.00000  Uiso   1.00
H157   H     0.42729   0.11952   0.20466   0.00000  Uiso   1.00
H158   H     0.38100   0.42781   0.79458   0.00000  Uiso   1.00
H159   H     0.32425   0.05502   0.46505   0.00000  Uiso   1.00
H160   H     0.11900   0.07219   0.20542   0.00000  Uiso   1.00
H161   H     0.42729   0.11952   0.79534   0.00000  Uiso   1.00
H162   H     0.07271   0.38048   0.20466   0.00000  Uiso   1.00
H163   H     0.36952   0.17729   0.70466   0.00000  Uiso   1.00
H164   H     0.13048   0.32271   0.29534   0.00000  Uiso   1.00
H165   H     0.32219   0.36900   0.70542   0.00000  Uiso   1.00
H166   H     0.17781   0.13100   0.29458   0.00000  Uiso   1.00
H167   H     0.13048   0.32271   0.70466   0.00000  Uiso   1.00
H168   H     0.36952   0.17729   0.29534   0.00000  Uiso   1.00
H169   H     0.17781   0.13100   0.70542   0.00000  Uiso   1.00
H170   H     0.17575   0.44498   0.53495   0.00000  Uiso   1.00
H171   H     0.32219   0.36900   0.29458   0.00000  Uiso   1.00
H172   H     0.36900   0.32219   0.29458   0.00000  Uiso   1.00
H173   H     0.13100   0.17781   0.70542   0.00000  Uiso   1.00
H174   H     0.32271   0.13048   0.29534   0.00000  Uiso   1.00
H175   H     0.17729   0.36952   0.70466   0.00000  Uiso   1.00
H176   H     0.13100   0.17781   0.29458   0.00000  Uiso   1.00
H177   H     0.36900   0.32219   0.70542   0.00000  Uiso   1.00
H178   H     0.17729   0.36952   0.29534   0.00000  Uiso   1.00
H179   H     0.32271   0.13048   0.70466   0.00000  Uiso   1.00
H180   H     0.02673   0.30947   0.37351   0.00000  Uiso   1.00
H181   H     0.05501   0.32425   0.46505   0.00000  Uiso   1.00
H182   H     0.47326   0.19053   0.62649   0.00000  Uiso   1.00
H183   H     0.19053   0.47326   0.37352   0.00000  Uiso   1.00
H184   H     0.30947   0.02674   0.62648   0.00000  Uiso   1.00
H185   H     0.47326   0.19053   0.37351   0.00000  Uiso   1.00
H186   H     0.02673   0.30947   0.62649   0.00000  Uiso   1.00
H187   H     0.30947   0.02674   0.37352   0.00000  Uiso   1.00
H188   H     0.19053   0.47326   0.62649   0.00000  Uiso   1.00
H189   H     0.27673   0.05947   0.87351   0.00000  Uiso   1.00
H190   H     0.22327   0.44053   0.12649   0.00000  Uiso   1.00
H191   H     0.44053   0.22327   0.87351   0.00000  Uiso   1.00
H192   H     0.44498   0.17575   0.53495   0.00000  Uiso   1.00
H193   H     0.05947   0.27673   0.12649   0.00000  Uiso   1.00
H194   H     0.22327   0.44053   0.87351   0.00000  Uiso   1.00
H195   H     0.27673   0.05947   0.12649   0.00000  Uiso   1.00
H196   H     0.05947   0.27673   0.87351   0.00000  Uiso   1.00
H197   H     0.44053   0.22327   0.12649   0.00000  Uiso   1.00
H198   H     0.17575   0.44498   0.46505   0.00000  Uiso   1.00
H199   H     0.32425   0.05502   0.53495   0.00000  Uiso   1.00
H200   H     0.19499   0.42575   0.96505   0.00000  Uiso   1.00
O201   O     0.25000   0.00000   0.25000   0.00000  Uiso   1.00
O202   O     0.25000   0.46964   0.66245   0.00000  Uiso   1.00
O203   O     0.46963   0.25000   0.33755   0.00000  Uiso   1.00
O204   O     0.03036   0.25000   0.66245   0.00000  Uiso   1.00
O205   O     0.00000   0.21964   0.83755   0.00000  Uiso   1.00
O206   O    -0.00000   0.28037   0.16245   0.00000  Uiso   1.00
O207   O     0.28036   0.00000   0.83755   0.00000  Uiso   1.00
O208   O     0.21963   0.00000   0.16245   0.00000  Uiso   1.00
O209   O    -0.00000   0.28037   0.83755   0.00000  Uiso   1.00
O210   O     0.00000   0.21964   0.16245   0.00000  Uiso   1.00
O211   O     0.21963   0.00000   0.83755   0.00000  Uiso   1.00
O212   O     0.25000   0.00000   0.75000   0.00000  Uiso   1.00
O213   O     0.28036   0.00000   0.16245   0.00000  Uiso   1.00
O214   O     0.20724   0.07308   0.27302   0.00000  Uiso   1.00
O215   O     0.29275   0.42693   0.72698   0.00000  Uiso   1.00
O216   O     0.42692   0.20725   0.27302   0.00000  Uiso   1.00
O217   O     0.07307   0.29276   0.72698   0.00000  Uiso   1.00
O218   O     0.29275   0.42693   0.27302   0.00000  Uiso   1.00
O219   O     0.20724   0.07308   0.72698   0.00000  Uiso   1.00
O220   O     0.07307   0.29276   0.27302   0.00000  Uiso   1.00
O221   O     0.42692   0.20725   0.72698   0.00000  Uiso   1.00
O222   O     0.20724   0.42693   0.72698   0.00000  Uiso   1.00
O223   O    -0.00000   0.25000   0.25000   0.00000  Uiso   1.00
O224   O     0.29275   0.07308   0.27302   0.00000  Uiso   1.00
O225   O     0.42692   0.29276   0.72698   0.00000  Uiso   1.00
O226   O     0.07307   0.20725   0.27302   0.00000  Uiso   1.00
O227   O     0.29275   0.07308   0.72698   0.00000  Uiso   1.00
O228   O     0.20724   0.42693   0.27302   0.00000  Uiso   1.00
O229   O     0.07307   0.20725   0.72698   0.00000  Uiso   1.00
O230   O     0.42692   0.29276   0.27302   0.00000  Uiso   1.00
O231   O     0.45724   0.32308   0.77302   0.00000  Uiso   1.00
O232   O     0.04275   0.17693   0.22698   0.00000  Uiso   1.00
O233   O     0.17692   0.45725   0.77302   0.00000  Uiso   1.00
O234   O     0.00000   0.25000   0.75000   0.00000  Uiso   1.00
O235   O     0.32307   0.04276   0.22698   0.00000  Uiso   1.00
O236   O     0.04275   0.17693   0.77302   0.00000  Uiso   1.00
O237   O     0.45724   0.32308   0.22698   0.00000  Uiso   1.00
O238   O     0.32307   0.04276   0.77302   0.00000  Uiso   1.00
O239   O     0.17692   0.45725   0.22698   0.00000  Uiso   1.00
O240   O     0.45724   0.17693   0.22698   0.00000  Uiso   1.00
O241   O     0.04275   0.32308   0.77302   0.00000  Uiso   1.00
O242   O     0.17692   0.04276   0.22698   0.00000  Uiso   1.00
O243   O     0.32307   0.45725   0.77302   0.00000  Uiso   1.00
O244   O     0.04275   0.32308   0.22698   0.00000  Uiso   1.00
O245   O     0.25000   0.46964   0.33755   0.00000  Uiso   1.00
O246   O     0.45724   0.17693   0.77302   0.00000  Uiso   1.00
O247   O     0.32307   0.45725   0.22698   0.00000  Uiso   1.00
O248   O     0.17692   0.04276   0.77302   0.00000  Uiso   1.00
O249   O     0.03735   0.30560   0.39959   0.00000  Uiso   1.00
O250   O     0.46265   0.19440   0.60041   0.00000  Uiso   1.00
O251   O     0.19440   0.46265   0.39959   0.00000  Uiso   1.00
O252   O     0.30560   0.03735   0.60041   0.00000  Uiso   1.00
O253   O     0.46265   0.19440   0.39959   0.00000  Uiso   1.00
O254   O     0.03735   0.30560   0.60041   0.00000  Uiso   1.00
O255   O     0.30560   0.03735   0.39959   0.00000  Uiso   1.00
O256   O     0.25000   0.03037   0.66245   0.00000  Uiso   1.00
O257   O     0.19440   0.46265   0.60041   0.00000  Uiso   1.00
O258   O     0.28735   0.05560   0.89959   0.00000  Uiso   1.00
O259   O     0.21265   0.44440   0.10041   0.00000  Uiso   1.00
O260   O     0.44440   0.21265   0.89959   0.00000  Uiso   1.00
O261   O     0.05560   0.28735   0.10041   0.00000  Uiso   1.00
O262   O     0.21265   0.44440   0.89959   0.00000  Uiso   1.00
O263   O     0.28735   0.05560   0.10041   0.00000  Uiso   1.00
O264   O     0.05560   0.28735   0.89959   0.00000  Uiso   1.00
O265   O     0.44440   0.21265   0.10041   0.00000  Uiso   1.00
O266   O     0.03036   0.25000   0.33755   0.00000  Uiso   1.00
O267   O     0.46963   0.25000   0.66245   0.00000  Uiso   1.00
O268   O     0.25000   0.03037   0.33755   0.00000  Uiso   1.00
Zn269  Zn    0.20659   0.00000   0.21735   0.00000  Uiso   1.00
Zn270  Zn    0.04340   0.25000   0.28265   0.00000  Uiso   1.00
Zn271  Zn    0.25000   0.45660   0.71735   0.00000  Uiso   1.00
Zn272  Zn    0.25000   0.04341   0.28265   0.00000  Uiso   1.00
Zn273  Zn    0.04340   0.25000   0.71735   0.00000  Uiso   1.00
Zn274  Zn    0.45659   0.25000   0.28265   0.00000  Uiso   1.00
Zn275  Zn    0.25000   0.04341   0.71735   0.00000  Uiso   1.00
Zn276  Zn    0.25000   0.45660   0.28265   0.00000  Uiso   1.00
Zn277  Zn    0.29340   0.00000   0.78265   0.00000  Uiso   1.00
Zn278  Zn    0.00000   0.20660   0.21735   0.00000  Uiso   1.00
Zn279  Zn    0.00000   0.29341   0.78265   0.00000  Uiso   1.00
Zn280  Zn    0.29340   0.00000   0.21735   0.00000  Uiso   1.00
Zn281  Zn    0.20659   0.00000   0.78265   0.00000  Uiso   1.00
Zn282  Zn    0.00000   0.29341   0.21735   0.00000  Uiso   1.00
Zn283  Zn    0.00000   0.20660   0.78265   0.00000  Uiso   1.00
Zn284  Zn    0.45659   0.25000   0.71735   0.00000  Uiso   1.00
C285   C     0.51926   0.27752   0.41840   0.00000  Uiso   1.00
C286   C     0.73074   0.47248   0.08160   0.00000  Uiso   1.00
C287   C     0.72314   0.48012   0.54092   0.00000  Uiso   1.00
C288   C     0.51988   0.27686   0.45908   0.00000  Uiso   1.00
C289   C     0.98012   0.22314   0.54092   0.00000  Uiso   1.00
C290   C     0.72314   0.48012   0.45908   0.00000  Uiso   1.00
C291   C     0.77686   0.01988   0.54092   0.00000  Uiso   1.00
C292   C     0.73012   0.47314   0.95908   0.00000  Uiso   1.00
C293   C     0.76988   0.02686   0.04092   0.00000  Uiso   1.00
C294   C     0.52686   0.26988   0.95908   0.00000  Uiso   1.00
C295   C     0.97314   0.23012   0.04092   0.00000  Uiso   1.00
C296   C     0.76988   0.02686   0.95908   0.00000  Uiso   1.00
C297   C     0.97248   0.23074   0.91840   0.00000  Uiso   1.00
C298   C     0.73012   0.47314   0.04092   0.00000  Uiso   1.00
C299   C     0.97314   0.23012   0.95908   0.00000  Uiso   1.00
C300   C     0.52686   0.26988   0.04092   0.00000  Uiso   1.00
C301   C     0.59813   0.34813   0.25000   0.00000  Uiso   1.00
C302   C     0.90187   0.15187   0.75000   0.00000  Uiso   1.00
C303   C     0.65187   0.09813   0.25000   0.00000  Uiso   1.00
C304   C     0.84813   0.40187   0.75000   0.00000  Uiso   1.00
C305   C     0.90187   0.15187   0.25000   0.00000  Uiso   1.00
C306   C     0.59813   0.34813   0.75000   0.00000  Uiso   1.00
C307   C     0.84813   0.40187   0.25000   0.00000  Uiso   1.00
C308   C     0.52752   0.26926   0.08160   0.00000  Uiso   1.00
C309   C     0.65187   0.09813   0.75000   0.00000  Uiso   1.00
C310   C     0.59813   0.15187   0.75000   0.00000  Uiso   1.00
C311   C     0.90187   0.34813   0.25000   0.00000  Uiso   1.00
C312   C     0.65187   0.40187   0.75000   0.00000  Uiso   1.00
C313   C     0.84813   0.09813   0.25000   0.00000  Uiso   1.00
C314   C     0.90187   0.34813   0.75000   0.00000  Uiso   1.00
C315   C     0.59813   0.15187   0.25000   0.00000  Uiso   1.00
C316   C     0.84813   0.09813   0.75000   0.00000  Uiso   1.00
C317   C     0.65187   0.40187   0.25000   0.00000  Uiso   1.00
C318   C     0.50000   0.25000   0.47949   0.00000  Uiso   1.00
C319   C     0.73074   0.47248   0.91840   0.00000  Uiso   1.00
C320   C     0.50000   0.25000   0.52051   0.00000  Uiso   1.00
C321   C     0.75000   0.00000   0.47949   0.00000  Uiso   1.00
C322   C     0.75000   0.00000   0.52051   0.00000  Uiso   1.00
C323   C     0.75000   0.00000   0.97949   0.00000  Uiso   1.00
C324   C     0.75000   0.00000   0.02051   0.00000  Uiso   1.00
C325   C     0.50000   0.25000   0.97949   0.00000  Uiso   1.00
C326   C     0.50000   0.25000   0.02051   0.00000  Uiso   1.00
C327   C     0.76926   0.02752   0.08160   0.00000  Uiso   1.00
C328   C     0.52752   0.26926   0.91840   0.00000  Uiso   1.00
C329   C     0.97248   0.23074   0.08160   0.00000  Uiso   1.00
C330   C     0.50000   0.25000   0.39807   0.00000  Uiso   1.00
C331   C     0.50000   0.25000   0.60194   0.00000  Uiso   1.00
C332   C     0.75000   0.00000   0.39807   0.00000  Uiso   1.00
C333   C     0.98074   0.22248   0.58160   0.00000  Uiso   1.00
C334   C     0.75000   0.00000   0.60193   0.00000  Uiso   1.00
C335   C     0.75000   0.00000   0.89807   0.00000  Uiso   1.00
C336   C     0.75000   0.00000   0.10193   0.00000  Uiso   1.00
C337   C     0.50000   0.25000   0.89807   0.00000  Uiso   1.00
C338   C     0.50000   0.25000   0.10193   0.00000  Uiso   1.00
C339   C     0.96046   0.19672   0.47984   0.00000  Uiso   1.00
C340   C     0.53954   0.30328   0.52016   0.00000  Uiso   1.00
C341   C     0.80328   0.03954   0.47984   0.00000  Uiso   1.00
C342   C     0.69672   0.46046   0.52016   0.00000  Uiso   1.00
C343   C     0.53954   0.30328   0.47984   0.00000  Uiso   1.00
C344   C     0.72248   0.48074   0.41840   0.00000  Uiso   1.00
C345   C     0.96046   0.19672   0.52016   0.00000  Uiso   1.00
C346   C     0.69672   0.46046   0.47984   0.00000  Uiso   1.00
C347   C     0.80328   0.03954   0.52016   0.00000  Uiso   1.00
C348   C     0.71046   0.44672   0.97984   0.00000  Uiso   1.00
C349   C     0.78954   0.05328   0.02016   0.00000  Uiso   1.00
C350   C     0.55328   0.28953   0.97984   0.00000  Uiso   1.00
C351   C     0.94672   0.21047   0.02016   0.00000  Uiso   1.00
C352   C     0.78954   0.05328   0.97984   0.00000  Uiso   1.00
C353   C     0.71046   0.44672   0.02016   0.00000  Uiso   1.00
C354   C     0.94672   0.21047   0.97984   0.00000  Uiso   1.00
C355   C     0.77752   0.01926   0.58160   0.00000  Uiso   1.00
C356   C     0.55328   0.28953   0.02016   0.00000  Uiso   1.00
C357   C     0.75000   0.00000   0.35576   0.00000  Uiso   1.00
C358   C     0.75000   0.00000   0.64424   0.00000  Uiso   1.00
C359   C     0.50000   0.25000   0.35576   0.00000  Uiso   1.00
C360   C     0.50000   0.25000   0.64424   0.00000  Uiso   1.00
C361   C     0.50000   0.25000   0.85576   0.00000  Uiso   1.00
C362   C     0.50000   0.25000   0.14424   0.00000  Uiso   1.00
C363   C     0.75000   0.00000   0.85576   0.00000  Uiso   1.00
C364   C     0.75000   0.00000   0.14424   0.00000  Uiso   1.00
C365   C     0.67994   0.07006   0.25000   0.00000  Uiso   1.00
C366   C     0.98074   0.22248   0.41840   0.00000  Uiso   1.00
C367   C     0.82006   0.42994   0.75000   0.00000  Uiso   1.00
C368   C     0.92994   0.17994   0.25000   0.00000  Uiso   1.00
C369   C     0.57006   0.32006   0.75000   0.00000  Uiso   1.00
C370   C     0.82006   0.42994   0.25000   0.00000  Uiso   1.00
C371   C     0.67994   0.07006   0.75000   0.00000  Uiso   1.00
C372   C     0.57006   0.32006   0.25000   0.00000  Uiso   1.00
C373   C     0.92994   0.17994   0.75000   0.00000  Uiso   1.00
C374   C     0.67994   0.42994   0.75000   0.00000  Uiso   1.00
C375   C     0.82006   0.07006   0.25000   0.00000  Uiso   1.00
C376   C     0.92994   0.32006   0.75000   0.00000  Uiso   1.00
C377   C     0.51926   0.27752   0.58160   0.00000  Uiso   1.00
C378   C     0.57006   0.17994   0.25000   0.00000  Uiso   1.00
C379   C     0.82006   0.07006   0.75000   0.00000  Uiso   1.00
C380   C     0.67994   0.42994   0.25000   0.00000  Uiso   1.00
C381   C     0.57006   0.17994   0.75000   0.00000  Uiso   1.00
C382   C     0.92994   0.32006   0.25000   0.00000  Uiso   1.00
C383   C     0.62215   0.40458   0.22457   0.00000  Uiso   1.00
C384   C     0.87785   0.09542   0.77543   0.00000  Uiso   1.00
C385   C     0.59514   0.12186   0.22499   0.00000  Uiso   1.00
C386   C     0.90486   0.37814   0.77501   0.00000  Uiso   1.00
C387   C     0.87785   0.09542   0.22457   0.00000  Uiso   1.00
C388   C     0.77752   0.01926   0.41840   0.00000  Uiso   1.00
C389   C     0.62215   0.40458   0.77543   0.00000  Uiso   1.00
C390   C     0.90486   0.37814   0.22499   0.00000  Uiso   1.00
C391   C     0.59514   0.12186   0.77501   0.00000  Uiso   1.00
C392   C     0.62186   0.09514   0.77501   0.00000  Uiso   1.00
C393   C     0.87814   0.40486   0.22499   0.00000  Uiso   1.00
C394   C     0.59542   0.37785   0.77543   0.00000  Uiso   1.00
C395   C     0.90458   0.12215   0.22457   0.00000  Uiso   1.00
C396   C     0.87814   0.40486   0.77501   0.00000  Uiso   1.00
C397   C     0.62186   0.09514   0.22499   0.00000  Uiso   1.00
C398   C     0.90458   0.12215   0.77543   0.00000  Uiso   1.00
C399   C     0.72248   0.48074   0.58160   0.00000  Uiso   1.00
C400   C     0.59542   0.37785   0.22457   0.00000  Uiso   1.00
C401   C     0.87215   0.15458   0.72457   0.00000  Uiso   1.00
C402   C     0.62785   0.34542   0.27543   0.00000  Uiso   1.00
C403   C     0.84514   0.37186   0.72499   0.00000  Uiso   1.00
C404   C     0.65486   0.12814   0.27501   0.00000  Uiso   1.00
C405   C     0.62785   0.34542   0.72457   0.00000  Uiso   1.00
C406   C     0.87215   0.15458   0.27543   0.00000  Uiso   1.00
C407   C     0.65486   0.12814   0.72498   0.00000  Uiso   1.00
C408   C     0.84514   0.37186   0.27501   0.00000  Uiso   1.00
C409   C     0.87186   0.34514   0.27501   0.00000  Uiso   1.00
C410   C     0.76926   0.02752   0.91840   0.00000  Uiso   1.00
C411   C     0.62814   0.15486   0.72498   0.00000  Uiso   1.00
C412   C     0.84542   0.12785   0.27543   0.00000  Uiso   1.00
C413   C     0.65458   0.37215   0.72457   0.00000  Uiso   1.00
C414   C     0.62814   0.15486   0.27501   0.00000  Uiso   1.00
C415   C     0.87186   0.34514   0.72499   0.00000  Uiso   1.00
C416   C     0.65458   0.37215   0.27543   0.00000  Uiso   1.00
C417   C     0.84542   0.12785   0.72457   0.00000  Uiso   1.00
C418   C     0.98012   0.22314   0.45908   0.00000  Uiso   1.00
C419   C     0.51988   0.27686   0.54092   0.00000  Uiso   1.00
C420   C     0.77686   0.01988   0.45908   0.00000  Uiso   1.00
H421   H     0.94498   0.17575   0.46505   0.00000  Uiso   1.00
H422   H     0.80501   0.07425   0.03495   0.00000  Uiso   1.00
H423   H     0.57425   0.30501   0.96505   0.00000  Uiso   1.00
H424   H     0.92575   0.19499   0.03495   0.00000  Uiso   1.00
H425   H     0.80501   0.07425   0.96505   0.00000  Uiso   1.00
H426   H     0.69499   0.42575   0.03495   0.00000  Uiso   1.00
H427   H     0.92575   0.19499   0.96505   0.00000  Uiso   1.00
H428   H     0.57425   0.30501   0.03495   0.00000  Uiso   1.00
H429   H     0.61952   0.42729   0.20466   0.00000  Uiso   1.00
H430   H     0.88048   0.07271   0.79534   0.00000  Uiso   1.00
H431   H     0.57219   0.11900   0.20542   0.00000  Uiso   1.00
H432   H     0.55501   0.32425   0.53495   0.00000  Uiso   1.00
H433   H     0.92781   0.38100   0.79458   0.00000  Uiso   1.00
H434   H     0.88048   0.07271   0.20466   0.00000  Uiso   1.00
H435   H     0.61952   0.42729   0.79534   0.00000  Uiso   1.00
H436   H     0.92781   0.38100   0.20542   0.00000  Uiso   1.00
H437   H     0.57219   0.11900   0.79458   0.00000  Uiso   1.00
H438   H     0.61900   0.07219   0.79458   0.00000  Uiso   1.00
H439   H     0.88100   0.42781   0.20542   0.00000  Uiso   1.00
H440   H     0.57271   0.38048   0.79534   0.00000  Uiso   1.00
H441   H     0.92729   0.11952   0.20466   0.00000  Uiso   1.00
H442   H     0.88100   0.42781   0.79458   0.00000  Uiso   1.00
H443   H     0.82425   0.05502   0.46505   0.00000  Uiso   1.00
H444   H     0.61900   0.07219   0.20542   0.00000  Uiso   1.00
H445   H     0.92729   0.11952   0.79534   0.00000  Uiso   1.00
H446   H     0.57271   0.38048   0.20466   0.00000  Uiso   1.00
H447   H     0.86952   0.17729   0.70466   0.00000  Uiso   1.00
H448   H     0.63048   0.32271   0.29534   0.00000  Uiso   1.00
H449   H     0.82219   0.36900   0.70542   0.00000  Uiso   1.00
H450   H     0.67781   0.13100   0.29458   0.00000  Uiso   1.00
H451   H     0.63048   0.32271   0.70466   0.00000  Uiso   1.00
H452   H     0.86952   0.17729   0.29534   0.00000  Uiso   1.00
H453   H     0.67781   0.13100   0.70542   0.00000  Uiso   1.00
H454   H     0.67575   0.44498   0.53495   0.00000  Uiso   1.00
H455   H     0.82219   0.36900   0.29458   0.00000  Uiso   1.00
H456   H     0.86900   0.32219   0.29458   0.00000  Uiso   1.00
H457   H     0.63100   0.17781   0.70542   0.00000  Uiso   1.00
H458   H     0.82271   0.13048   0.29534   0.00000  Uiso   1.00
H459   H     0.67729   0.36952   0.70466   0.00000  Uiso   1.00
H460   H     0.63100   0.17781   0.29458   0.00000  Uiso   1.00
H461   H     0.86900   0.32219   0.70542   0.00000  Uiso   1.00
H462   H     0.67729   0.36952   0.29534   0.00000  Uiso   1.00
H463   H     0.82271   0.13048   0.70466   0.00000  Uiso   1.00
H464   H     0.52673   0.30947   0.37351   0.00000  Uiso   1.00
H465   H     0.55501   0.32425   0.46505   0.00000  Uiso   1.00
H466   H     0.97326   0.19053   0.62649   0.00000  Uiso   1.00
H467   H     0.69053   0.47326   0.37352   0.00000  Uiso   1.00
H468   H     0.80947   0.02674   0.62648   0.00000  Uiso   1.00
H469   H     0.97326   0.19053   0.37351   0.00000  Uiso   1.00
H470   H     0.52673   0.30947   0.62649   0.00000  Uiso   1.00
H471   H     0.80947   0.02674   0.37352   0.00000  Uiso   1.00
H472   H     0.69053   0.47326   0.62649   0.00000  Uiso   1.00
H473   H     0.77673   0.05947   0.87351   0.00000  Uiso   1.00
H474   H     0.72327   0.44053   0.12649   0.00000  Uiso   1.00
H475   H     0.94053   0.22327   0.87351   0.00000  Uiso   1.00
H476   H     0.94498   0.17575   0.53495   0.00000  Uiso   1.00
H477   H     0.55947   0.27673   0.12649   0.00000  Uiso   1.00
H478   H     0.72327   0.44053   0.87351   0.00000  Uiso   1.00
H479   H     0.77673   0.05947   0.12649   0.00000  Uiso   1.00
H480   H     0.55947   0.27673   0.87351   0.00000  Uiso   1.00
H481   H     0.94053   0.22327   0.12649   0.00000  Uiso   1.00
H482   H     0.67575   0.44498   0.46505   0.00000  Uiso   1.00
H483   H     0.82425   0.05502   0.53495   0.00000  Uiso   1.00
H484   H     0.69499   0.42575   0.96505   0.00000  Uiso   1.00
O485   O     0.75000   0.00000   0.25000   0.00000  Uiso   1.00
O486   O     0.75000   0.46964   0.66245   0.00000  Uiso   1.00
O487   O     0.96963   0.25000   0.33755   0.00000  Uiso   1.00
O488   O     0.53036   0.25000   0.66245   0.00000  Uiso   1.00
O489   O     0.50000   0.21964   0.83755   0.00000  Uiso   1.00
O490   O     0.50000   0.28037   0.16245   0.00000  Uiso   1.00
O491   O     0.78036   0.00000   0.83755   0.00000  Uiso   1.00
O492   O     0.71963   0.00000   0.16245   0.00000  Uiso   1.00
O493   O     0.50000   0.28037   0.83755   0.00000  Uiso   1.00
O494   O     0.50000   0.21964   0.16245   0.00000  Uiso   1.00
O495   O     0.71963   0.00000   0.83755   0.00000  Uiso   1.00
O496   O     0.75000   0.00000   0.75000   0.00000  Uiso   1.00
O497   O     0.78036   0.00000   0.16245   0.00000  Uiso   1.00
O498   O     0.70724   0.07308   0.27302   0.00000  Uiso   1.00
O499   O     0.79275   0.42693   0.72698   0.00000  Uiso   1.00
O500   O     0.92692   0.20725   0.27302   0.00000  Uiso   1.00
O501   O     0.57307   0.29276   0.72698   0.00000  Uiso   1.00
O502   O     0.79275   0.42693   0.27302   0.00000  Uiso   1.00
O503   O     0.70724   0.07308   0.72698   0.00000  Uiso   1.00
O504   O     0.57307   0.29276   0.27302   0.00000  Uiso   1.00
O505   O     0.92692   0.20725   0.72698   0.00000  Uiso   1.00
O506   O     0.70724   0.42693   0.72698   0.00000  Uiso   1.00
O507   O     0.50000   0.25000   0.25000   0.00000  Uiso   1.00
O508   O     0.79275   0.07308   0.27302   0.00000  Uiso   1.00
O509   O     0.92692   0.29276   0.72698   0.00000  Uiso   1.00
O510   O     0.57307   0.20725   0.27302   0.00000  Uiso   1.00
O511   O     0.79275   0.07308   0.72698   0.00000  Uiso   1.00
O512   O     0.70724   0.42693   0.27302   0.00000  Uiso   1.00
O513   O     0.57307   0.20725   0.72698   0.00000  Uiso   1.00
O514   O     0.92692   0.29276   0.27302   0.00000  Uiso   1.00
O515   O     0.95724   0.32308   0.77302   0.00000  Uiso   1.00
O516   O     0.54275   0.17693   0.22698   0.00000  Uiso   1.00
O517   O     0.67692   0.45725   0.77302   0.00000  Uiso   1.00
O518   O     0.50000   0.25000   0.75000   0.00000  Uiso   1.00
O519   O     0.82307   0.04276   0.22698   0.00000  Uiso   1.00
O520   O     0.54275   0.17693   0.77302   0.00000  Uiso   1.00
O521   O     0.95724   0.32308   0.22698   0.00000  Uiso   1.00
O522   O     0.82307   0.04276   0.77302   0.00000  Uiso   1.00
O523   O     0.67692   0.45725   0.22698   0.00000  Uiso   1.00
O524   O     0.95724   0.17693   0.22698   0.00000  Uiso   1.00
O525   O     0.54275   0.32308   0.77302   0.00000  Uiso   1.00
O526   O     0.67692   0.04276   0.22698   0.00000  Uiso   1.00
O527   O     0.82307   0.45725   0.77302   0.00000  Uiso   1.00
O528   O     0.54275   0.32308   0.22698   0.00000  Uiso   1.00
O529   O     0.75000   0.46964   0.33755   0.00000  Uiso   1.00
O530   O     0.95724   0.17693   0.77302   0.00000  Uiso   1.00
O531   O     0.82307   0.45725   0.22698   0.00000  Uiso   1.00
O532   O     0.67692   0.04276   0.77302   0.00000  Uiso   1.00
O533   O     0.53735   0.30560   0.39959   0.00000  Uiso   1.00
O534   O     0.96265   0.19440   0.60041   0.00000  Uiso   1.00
O535   O     0.69440   0.46265   0.39959   0.00000  Uiso   1.00
O536   O     0.80560   0.03735   0.60041   0.00000  Uiso   1.00
O537   O     0.96265   0.19440   0.39959   0.00000  Uiso   1.00
O538   O     0.53735   0.30560   0.60041   0.00000  Uiso   1.00
O539   O     0.80560   0.03735   0.39959   0.00000  Uiso   1.00
O540   O     0.75000   0.03037   0.66245   0.00000  Uiso   1.00
O541   O     0.69440   0.46265   0.60041   0.00000  Uiso   1.00
O542   O     0.78735   0.05560   0.89959   0.00000  Uiso   1.00
O543   O     0.71265   0.44440   0.10041   0.00000  Uiso   1.00
O544   O     0.94440   0.21265   0.89959   0.00000  Uiso   1.00
O545   O     0.55560   0.28735   0.10041   0.00000  Uiso   1.00
O546   O     0.71265   0.44440   0.89959   0.00000  Uiso   1.00
O547   O     0.78735   0.05560   0.10041   0.00000  Uiso   1.00
O548   O     0.55560   0.28735   0.89959   0.00000  Uiso   1.00
O549   O     0.94440   0.21265   0.10041   0.00000  Uiso   1.00
O550   O     0.53036   0.25000   0.33755   0.00000  Uiso   1.00
O551   O     0.96963   0.25000   0.66245   0.00000  Uiso   1.00
O552   O     0.75000   0.03037   0.33755   0.00000  Uiso   1.00
Zn553  Zn    0.70659   0.00000   0.21735   0.00000  Uiso   1.00
Zn554  Zn    0.54340   0.25000   0.28265   0.00000  Uiso   1.00
Zn555  Zn    0.75000   0.45660   0.71735   0.00000  Uiso   1.00
Zn556  Zn    0.75000   0.04341   0.28265   0.00000  Uiso   1.00
Zn557  Zn    0.54340   0.25000   0.71735   0.00000  Uiso   1.00
Zn558  Zn    0.95659   0.25000   0.28265   0.00000  Uiso   1.00
Zn559  Zn    0.75000   0.04341   0.71735   0.00000  Uiso   1.00
Zn560  Zn    0.75000   0.45660   0.28265   0.00000  Uiso   1.00
Zn561  Zn    0.79340   0.00000   0.78265   0.00000  Uiso   1.00
Zn562  Zn    0.50000   0.20660   0.21735   0.00000  Uiso   1.00
Zn563  Zn    0.50000   0.29341   0.78265   0.00000  Uiso   1.00
Zn564  Zn    0.79340   0.00000   0.21735   0.00000  Uiso   1.00
Zn565  Zn    0.70659   0.00000   0.78265   0.00000  Uiso   1.00
Zn566  Zn    0.50000   0.29341   0.21735   0.00000  Uiso   1.00
Zn567  Zn    0.50000   0.20660   0.78265   0.00000  Uiso   1.00
Zn568  Zn    0.95659   0.25000   0.71735   0.00000  Uiso   1.00
C569   C     0.01926   0.77752   0.41840   0.00000  Uiso   1.00
C570   C     0.23074   0.97248   0.08160   0.00000  Uiso   1.00
C571   C     0.22314   0.98012   0.54092   0.00000  Uiso   1.00
C572   C     0.01988   0.77686   0.45908   0.00000  Uiso   1.00
C573   C     0.48012   0.72314   0.54092   0.00000  Uiso   1.00
C574   C     0.22314   0.98012   0.45908   0.00000  Uiso   1.00
C575   C     0.27686   0.51988   0.54092   0.00000  Uiso   1.00
C576   C     0.23012   0.97314   0.95908   0.00000  Uiso   1.00
C577   C     0.26988   0.52686   0.04092   0.00000  Uiso   1.00
C578   C     0.02686   0.76988   0.95908   0.00000  Uiso   1.00
C579   C     0.47314   0.73012   0.04092   0.00000  Uiso   1.00
C580   C     0.26988   0.52686   0.95908   0.00000  Uiso   1.00
C581   C     0.47248   0.73074   0.91840   0.00000  Uiso   1.00
C582   C     0.23012   0.97314   0.04092   0.00000  Uiso   1.00
C583   C     0.47314   0.73012   0.95908   0.00000  Uiso   1.00
C584   C     0.02686   0.76988   0.04092   0.00000  Uiso   1.00
C585   C     0.09813   0.84813   0.25000   0.00000  Uiso   1.00
C586   C     0.40187   0.65187   0.75000   0.00000  Uiso   1.00
C587   C     0.15187   0.59813   0.25000   0.00000  Uiso   1.00
C588   C     0.34813   0.90187   0.75000   0.00000  Uiso   1.00
C589   C     0.40187   0.65187   0.25000   0.00000  Uiso   1.00
C590   C     0.09813   0.84813   0.75000   0.00000  Uiso   1.00
C591   C     0.34813   0.90187   0.25000   0.00000  Uiso   1.00
C592   C     0.02752   0.76926   0.08160   0.00000  Uiso   1.00
C593   C     0.15187   0.59813   0.75000   0.00000  Uiso   1.00
C594   C     0.09813   0.65187   0.75000   0.00000  Uiso   1.00
C595   C     0.40187   0.84813   0.25000   0.00000  Uiso   1.00
C596   C     0.15187   0.90187   0.75000   0.00000  Uiso   1.00
C597   C     0.34813   0.59813   0.25000   0.00000  Uiso   1.00
C598   C     0.40187   0.84813   0.75000   0.00000  Uiso   1.00
C599   C     0.09813   0.65187   0.25000   0.00000  Uiso   1.00
C600   C     0.34813   0.59813   0.75000   0.00000  Uiso   1.00
C601   C     0.15187   0.90187   0.25000   0.00000  Uiso   1.00
C602   C     0.00000   0.75000   0.47949   0.00000  Uiso   1.00
C603   C     0.23074   0.97248   0.91840   0.00000  Uiso   1.00
C604   C     0.00000   0.75000   0.52051   0.00000  Uiso   1.00
C605   C     0.25000   0.50000   0.47949   0.00000  Uiso   1.00
C606   C     0.25000   0.50000   0.52051   0.00000  Uiso   1.00
C607   C     0.25000   0.50000   0.97949   0.00000  Uiso   1.00
C608   C     0.25000   0.50000   0.02051   0.00000  Uiso   1.00
C609   C    -0.00000   0.75000   0.97949   0.00000  Uiso   1.00
C610   C    -0.00000   0.75000   0.02051   0.00000  Uiso   1.00
C611   C     0.26926   0.52752   0.08160   0.00000  Uiso   1.00
C612   C     0.02752   0.76926   0.91840   0.00000  Uiso   1.00
C613   C     0.47248   0.73074   0.08160   0.00000  Uiso   1.00
C614   C     0.00000   0.75000   0.39807   0.00000  Uiso   1.00
C615   C    -0.00000   0.75000   0.60194   0.00000  Uiso   1.00
C616   C     0.25000   0.50000   0.39807   0.00000  Uiso   1.00
C617   C     0.48074   0.72248   0.58160   0.00000  Uiso   1.00
C618   C     0.25000   0.50000   0.60193   0.00000  Uiso   1.00
C619   C     0.25000   0.50000   0.89807   0.00000  Uiso   1.00
C620   C     0.25000   0.50000   0.10193   0.00000  Uiso   1.00
C621   C    -0.00000   0.75000   0.89807   0.00000  Uiso   1.00
C622   C     0.00000   0.75000   0.10193   0.00000  Uiso   1.00
C623   C     0.46046   0.69672   0.47984   0.00000  Uiso   1.00
C624   C     0.03954   0.80328   0.52016   0.00000  Uiso   1.00
C625   C     0.30328   0.53954   0.47984   0.00000  Uiso   1.00
C626   C     0.19672   0.96046   0.52016   0.00000  Uiso   1.00
C627   C     0.03954   0.80328   0.47984   0.00000  Uiso   1.00
C628   C     0.22248   0.98074   0.41840   0.00000  Uiso   1.00
C629   C     0.46046   0.69672   0.52016   0.00000  Uiso   1.00
C630   C     0.19672   0.96046   0.47984   0.00000  Uiso   1.00
C631   C     0.30328   0.53954   0.52016   0.00000  Uiso   1.00
C632   C     0.21046   0.94672   0.97984   0.00000  Uiso   1.00
C633   C     0.28954   0.55328   0.02016   0.00000  Uiso   1.00
C634   C     0.05328   0.78953   0.97984   0.00000  Uiso   1.00
C635   C     0.44672   0.71047   0.02016   0.00000  Uiso   1.00
C636   C     0.28954   0.55328   0.97984   0.00000  Uiso   1.00
C637   C     0.21046   0.94672   0.02016   0.00000  Uiso   1.00
C638   C     0.44672   0.71047   0.97984   0.00000  Uiso   1.00
C639   C     0.27752   0.51926   0.58160   0.00000  Uiso   1.00
C640   C     0.05328   0.78953   0.02016   0.00000  Uiso   1.00
C641   C     0.25000   0.50000   0.35576   0.00000  Uiso   1.00
C642   C     0.25000   0.50000   0.64424   0.00000  Uiso   1.00
C643   C    -0.00000   0.75000   0.35576   0.00000  Uiso   1.00
C644   C    -0.00000   0.75000   0.64424   0.00000  Uiso   1.00
C645   C    -0.00000   0.75000   0.85576   0.00000  Uiso   1.00
C646   C     0.00000   0.75000   0.14424   0.00000  Uiso   1.00
C647   C     0.25000   0.50000   0.85576   0.00000  Uiso   1.00
C648   C     0.25000   0.50000   0.14424   0.00000  Uiso   1.00
C649   C     0.17994   0.57006   0.25000   0.00000  Uiso   1.00
C650   C     0.48074   0.72248   0.41840   0.00000  Uiso   1.00
C651   C     0.32006   0.92994   0.75000   0.00000  Uiso   1.00
C652   C     0.42994   0.67994   0.25000   0.00000  Uiso   1.00
C653   C     0.07006   0.82006   0.75000   0.00000  Uiso   1.00
C654   C     0.32006   0.92994   0.25000   0.00000  Uiso   1.00
C655   C     0.17994   0.57006   0.75000   0.00000  Uiso   1.00
C656   C     0.07006   0.82006   0.25000   0.00000  Uiso   1.00
C657   C     0.42994   0.67994   0.75000   0.00000  Uiso   1.00
C658   C     0.17994   0.92994   0.75000   0.00000  Uiso   1.00
C659   C     0.32006   0.57006   0.25000   0.00000  Uiso   1.00
C660   C     0.42994   0.82006   0.75000   0.00000  Uiso   1.00
C661   C     0.01926   0.77752   0.58160   0.00000  Uiso   1.00
C662   C     0.07006   0.67994   0.25000   0.00000  Uiso   1.00
C663   C     0.32006   0.57006   0.75000   0.00000  Uiso   1.00
C664   C     0.17994   0.92994   0.25000   0.00000  Uiso   1.00
C665   C     0.07006   0.67994   0.75000   0.00000  Uiso   1.00
C666   C     0.42994   0.82006   0.25000   0.00000  Uiso   1.00
C667   C     0.12215   0.90458   0.22457   0.00000  Uiso   1.00
C668   C     0.37785   0.59542   0.77543   0.00000  Uiso   1.00
C669   C     0.09514   0.62186   0.22499   0.00000  Uiso   1.00
C670   C     0.40486   0.87814   0.77501   0.00000  Uiso   1.00
C671   C     0.37785   0.59542   0.22457   0.00000  Uiso   1.00
C672   C     0.27752   0.51926   0.41840   0.00000  Uiso   1.00
C673   C     0.12215   0.90458   0.77543   0.00000  Uiso   1.00
C674   C     0.40486   0.87814   0.22499   0.00000  Uiso   1.00
C675   C     0.09514   0.62186   0.77501   0.00000  Uiso   1.00
C676   C     0.12186   0.59514   0.77501   0.00000  Uiso   1.00
C677   C     0.37814   0.90486   0.22499   0.00000  Uiso   1.00
C678   C     0.09542   0.87785   0.77543   0.00000  Uiso   1.00
C679   C     0.40458   0.62215   0.22457   0.00000  Uiso   1.00
C680   C     0.37814   0.90486   0.77501   0.00000  Uiso   1.00
C681   C     0.12186   0.59514   0.22499   0.00000  Uiso   1.00
C682   C     0.40458   0.62215   0.77543   0.00000  Uiso   1.00
C683   C     0.22248   0.98074   0.58160   0.00000  Uiso   1.00
C684   C     0.09542   0.87785   0.22457   0.00000  Uiso   1.00
C685   C     0.37215   0.65458   0.72457   0.00000  Uiso   1.00
C686   C     0.12785   0.84542   0.27543   0.00000  Uiso   1.00
C687   C     0.34514   0.87186   0.72499   0.00000  Uiso   1.00
C688   C     0.15486   0.62814   0.27501   0.00000  Uiso   1.00
C689   C     0.12785   0.84542   0.72457   0.00000  Uiso   1.00
C690   C     0.37215   0.65458   0.27543   0.00000  Uiso   1.00
C691   C     0.15486   0.62814   0.72498   0.00000  Uiso   1.00
C692   C     0.34514   0.87186   0.27501   0.00000  Uiso   1.00
C693   C     0.37186   0.84514   0.27501   0.00000  Uiso   1.00
C694   C     0.26926   0.52752   0.91840   0.00000  Uiso   1.00
C695   C     0.12814   0.65486   0.72498   0.00000  Uiso   1.00
C696   C     0.34542   0.62785   0.27543   0.00000  Uiso   1.00
C697   C     0.15458   0.87215   0.72457   0.00000  Uiso   1.00
C698   C     0.12814   0.65486   0.27501   0.00000  Uiso   1.00
C699   C     0.37186   0.84514   0.72499   0.00000  Uiso   1.00
C700   C     0.15458   0.87215   0.27543   0.00000  Uiso   1.00
C701   C     0.34542   0.62785   0.72457   0.00000  Uiso   1.00
C702   C     0.48012   0.72314   0.45908   0.00000  Uiso   1.00
C703   C     0.01988   0.77686   0.54092   0.00000  Uiso   1.00
C704   C     0.27686   0.51988   0.45908   0.00000  Uiso   1.00
H705   H     0.44498   0.67575   0.46505   0.00000  Uiso   1.00
H706   H     0.30501   0.57425   0.03495   0.00000  Uiso   1.00
H707   H     0.07425   0.80501   0.96505   0.00000  Uiso   1.00
H708   H     0.42575   0.69499   0.03495   0.00000  Uiso   1.00
H709   H     0.30501   0.57425   0.96505   0.00000  Uiso   1.00
H710   H     0.19499   0.92575   0.03495   0.00000  Uiso   1.00
H711   H     0.42575   0.69499   0.96505   0.00000  Uiso   1.00
H712   H     0.07425   0.80501   0.03495   0.00000  Uiso   1.00
H713   H     0.11952   0.92729   0.20466   0.00000  Uiso   1.00
H714   H     0.38048   0.57271   0.79534   0.00000  Uiso   1.00
H715   H     0.07219   0.61900   0.20542   0.00000  Uiso   1.00
H716   H     0.05501   0.82425   0.53495   0.00000  Uiso   1.00
H717   H     0.42781   0.88100   0.79458   0.00000  Uiso   1.00
H718   H     0.38048   0.57271   0.20466   0.00000  Uiso   1.00
H719   H     0.11952   0.92729   0.79534   0.00000  Uiso   1.00
H720   H     0.42781   0.88100   0.20542   0.00000  Uiso   1.00
H721   H     0.07219   0.61900   0.79458   0.00000  Uiso   1.00
H722   H     0.11900   0.57219   0.79458   0.00000  Uiso   1.00
H723   H     0.38100   0.92781   0.20542   0.00000  Uiso   1.00
H724   H     0.07271   0.88048   0.79534   0.00000  Uiso   1.00
H725   H     0.42729   0.61952   0.20466   0.00000  Uiso   1.00
H726   H     0.38100   0.92781   0.79458   0.00000  Uiso   1.00
H727   H     0.32425   0.55502   0.46505   0.00000  Uiso   1.00
H728   H     0.11900   0.57219   0.20542   0.00000  Uiso   1.00
H729   H     0.42729   0.61952   0.79534   0.00000  Uiso   1.00
H730   H     0.07271   0.88048   0.20466   0.00000  Uiso   1.00
H731   H     0.36952   0.67729   0.70466   0.00000  Uiso   1.00
H732   H     0.13048   0.82271   0.29534   0.00000  Uiso   1.00
H733   H     0.32219   0.86900   0.70542   0.00000  Uiso   1.00
H734   H     0.17781   0.63100   0.29458   0.00000  Uiso   1.00
H735   H     0.13048   0.82271   0.70466   0.00000  Uiso   1.00
H736   H     0.36952   0.67729   0.29534   0.00000  Uiso   1.00
H737   H     0.17781   0.63100   0.70542   0.00000  Uiso   1.00
H738   H     0.17575   0.94498   0.53495   0.00000  Uiso   1.00
H739   H     0.32219   0.86900   0.29458   0.00000  Uiso   1.00
H740   H     0.36900   0.82219   0.29458   0.00000  Uiso   1.00
H741   H     0.13100   0.67781   0.70542   0.00000  Uiso   1.00
H742   H     0.32271   0.63048   0.29534   0.00000  Uiso   1.00
H743   H     0.17729   0.86952   0.70466   0.00000  Uiso   1.00
H744   H     0.13100   0.67781   0.29458   0.00000  Uiso   1.00
H745   H     0.36900   0.82219   0.70542   0.00000  Uiso   1.00
H746   H     0.17729   0.86952   0.29534   0.00000  Uiso   1.00
H747   H     0.32271   0.63048   0.70466   0.00000  Uiso   1.00
H748   H     0.02673   0.80947   0.37351   0.00000  Uiso   1.00
H749   H     0.05501   0.82425   0.46505   0.00000  Uiso   1.00
H750   H     0.47326   0.69053   0.62649   0.00000  Uiso   1.00
H751   H     0.19053   0.97326   0.37352   0.00000  Uiso   1.00
H752   H     0.30947   0.52674   0.62648   0.00000  Uiso   1.00
H753   H     0.47326   0.69053   0.37351   0.00000  Uiso   1.00
H754   H     0.02673   0.80947   0.62649   0.00000  Uiso   1.00
H755   H     0.30947   0.52674   0.37352   0.00000  Uiso   1.00
H756   H     0.19053   0.97326   0.62649   0.00000  Uiso   1.00
H757   H     0.27673   0.55947   0.87351   0.00000  Uiso   1.00
H758   H     0.22327   0.94053   0.12649   0.00000  Uiso   1.00
H759   H     0.44053   0.72327   0.87351   0.00000  Uiso   1.00
H760   H     0.44498   0.67575   0.53495   0.00000  Uiso   1.00
H761   H     0.05947   0.77673   0.12649   0.00000  Uiso   1.00
H762   H     0.22327   0.94053   0.87351   0.00000  Uiso   1.00
H763   H     0.27673   0.55947   0.12649   0.00000  Uiso   1.00
H764   H     0.05947   0.77673   0.87351   0.00000  Uiso   1.00
H765   H     0.44053   0.72327   0.12649   0.00000  Uiso   1.00
H766   H     0.17575   0.94498   0.46505   0.00000  Uiso   1.00
H767   H     0.32425   0.55502   0.53495   0.00000  Uiso   1.00
H768   H     0.19499   0.92575   0.96505   0.00000  Uiso   1.00
O769   O     0.25000   0.50000   0.25000   0.00000  Uiso   1.00
O770   O     0.25000   0.96964   0.66245   0.00000  Uiso   1.00
O771   O     0.46963   0.75000   0.33755   0.00000  Uiso   1.00
O772   O     0.03036   0.75000   0.66245   0.00000  Uiso   1.00
O773   O     0.00000   0.71964   0.83755   0.00000  Uiso   1.00
O774   O    -0.00000   0.78037   0.16245   0.00000  Uiso   1.00
O775   O     0.28036   0.50000   0.83755   0.00000  Uiso   1.00
O776   O     0.21963   0.50000   0.16245   0.00000  Uiso   1.00
O777   O    -0.00000   0.78037   0.83755   0.00000  Uiso   1.00
O778   O     0.00000   0.71964   0.16245   0.00000  Uiso   1.00
O779   O     0.21963   0.50000   0.83755   0.00000  Uiso   1.00
O780   O     0.25000   0.50000   0.75000   0.00000  Uiso   1.00
O781   O     0.28036   0.50000   0.16245   0.00000  Uiso   1.00
O782   O     0.20724   0.57308   0.27302   0.00000  Uiso   1.00
O783   O     0.29275   0.92693   0.72698   0.00000  Uiso   1.00
O784   O     0.42692   0.70725   0.27302   0.00000  Uiso   1.00
O785   O     0.07307   0.79276   0.72698   0.00000  Uiso   1.00
O786   O     0.29275   0.92693   0.27302   0.00000  Uiso   1.00
O787   O     0.20724   0.57308   0.72698   0.00000  Uiso   1.00
O788   O     0.07307   0.79276   0.27302   0.00000  Uiso   1.00
O789   O     0.42692   0.70725   0.72698   0.00000  Uiso   1.00
O790   O     0.20724   0.92693   0.72698   0.00000  Uiso   1.00
O791   O    -0.00000   0.75000   0.25000   0.00000  Uiso   1.00
O792   O     0.29275   0.57308   0.27302   0.00000  Uiso   1.00
O793   O     0.42692   0.79276   0.72698   0.00000  Uiso   1.00
O794   O     0.07307   0.70725   0.27302   0.00000  Uiso   1.00
O795   O     0.29275   0.57308   0.72698   0.00000  Uiso   1.00
O796   O     0.20724   0.92693   0.27302   0.00000  Uiso   1.00
O797   O     0.07307   0.70725   0.72698   0.00000  Uiso   1.00
O798   O     0.42692   0.79276   0.27302   0.00000  Uiso   1.00
O799   O     0.45724   0.82308   0.77302   0.00000  Uiso   1.00
O800   O     0.04275   0.67693   0.22698   0.00000  Uiso   1.00
O801   O     0.17692   0.95725   0.77302   0.00000  Uiso   1.00
O802   O     0.00000   0.75000   0.75000   0.00000  Uiso   1.00
O803   O     0.32307   0.54276   0.22698   0.00000  Uiso   1.00
O804   O     0.04275   0.67693   0.77302   0.00000  Uiso   1.00
O805   O     0.45724   0.82308   0.22698   0.00000  Uiso   1.00
O806   O     0.32307   0.54276   0.77302   0.00000  Uiso   1.00
O807   O     0.17692   0.95725   0.22698   0.00000  Uiso   1.00
O808   O     0.45724   0.67693   0.22698   0.00000  Uiso   1.00
O809   O     0.04275   0.82308   0.77302   0.00000  Uiso   1.00
O810   O     0.17692   0.54276   0.22698   0.00000  Uiso   1.00
O811   O     0.32307   0.95725   0.77302   0.00000  Uiso   1.00
O812   O     0.04275   0.82308   0.22698   0.00000  Uiso   1.00
O813   O     0.25000   0.96964   0.33755   0.00000  Uiso   1.00
O814   O     0.45724   0.67693   0.77302   0.00000  Uiso   1.00
O815   O     0.32307   0.95725   0.22698   0.00000  Uiso   1.00
O816   O     0.17692   0.54276   0.77302   0.00000  Uiso   1.00
O817   O     0.03735   0.80560   0.39959   0.00000  Uiso   1.00
O818   O     0.46265   0.69440   0.60041   0.00000  Uiso   1.00
O819   O     0.19440   0.96265   0.39959   0.00000  Uiso   1.00
O820   O     0.30560   0.53735   0.60041   0.00000  Uiso   1.00
O821   O     0.46265   0.69440   0.39959   0.00000  Uiso   1.00
O822   O     0.03735   0.80560   0.60041   0.00000  Uiso   1.00
O823   O     0.30560   0.53735   0.39959   0.00000  Uiso   1.00
O824   O     0.25000   0.53037   0.66245   0.00000  Uiso   1.00
O825   O     0.19440   0.96265   0.60041   0.00000  Uiso   1.00
O826   O     0.28735   0.55560   0.89959   0.00000  Uiso   1.00
O827   O     0.21265   0.94440   0.10041   0.00000  Uiso   1.00
O828   O     0.44440   0.71265   0.89959   0.00000  Uiso   1.00
O829   O     0.05560   0.78735   0.10041   0.00000  Uiso   1.00
O830   O     0.21265   0.94440   0.89959   0.00000  Uiso   1.00
O831   O     0.28735   0.55560   0.10041   0.00000  Uiso   1.00
O832   O     0.05560   0.78735   0.89959   0.00000  Uiso   1.00
O833   O     0.44440   0.71265   0.10041   0.00000  Uiso   1.00
O834   O     0.03036   0.75000   0.33755   0.00000  Uiso   1.00
O835   O     0.46963   0.75000   0.66245   0.00000  Uiso   1.00
O836   O     0.25000   0.53037   0.33755   0.00000  Uiso   1.00
Zn837  Zn    0.20659   0.50000   0.21735   0.00000  Uiso   1.00
Zn838  Zn    0.04340   0.75000   0.28265   0.00000  Uiso   1.00
Zn839  Zn    0.25000   0.95660   0.71735   0.00000  Uiso   1.00
Zn840  Zn    0.25000   0.54341   0.28265   0.00000  Uiso   1.00
Zn841  Zn    0.04340   0.75000   0.71735   0.00000  Uiso   1.00
Zn842  Zn    0.45659   0.75000   0.28265   0.00000  Uiso   1.00
Zn843  Zn    0.25000   0.54341   0.71735   0.00000  Uiso   1.00
Zn844  Zn    0.25000   0.95660   0.28265   0.00000  Uiso   1.00
Zn845  Zn    0.29340   0.50000   0.78265   0.00000  Uiso   1.00
Zn846  Zn    0.00000   0.70660   0.21735   0.00000  Uiso   1.00
Zn847  Zn    0.00000   0.79341   0.78265   0.00000  Uiso   1.00
Zn848  Zn    0.29340   0.50000   0.21735   0.00000  Uiso   1.00
Zn849  Zn    0.20659   0.50000   0.78265   0.00000  Uiso   1.00
Zn850  Zn    0.00000   0.79341   0.21735   0.00000  Uiso   1.00
Zn851  Zn    0.00000   0.70660   0.78265   0.00000  Uiso   1.00
Zn852  Zn    0.45659   0.75000   0.71735   0.00000  Uiso   1.00
C853   C     0.51926   0.77752   0.41840   0.00000  Uiso   1.00
C854   C     0.73074   0.97248   0.08160   0.00000  Uiso   1.00
C855   C     0.72314   0.98012   0.54092   0.00000  Uiso   1.00
C856   C     0.51988   0.77686   0.45908   0.00000  Uiso   1.00
C857   C     0.98012   0.72314   0.54092   0.00000  Uiso   1.00
C858   C     0.72314   0.98012   0.45908   0.00000  Uiso   1.00
C859   C     0.77686   0.51988   0.54092   0.00000  Uiso   1.00
C860   C     0.73012   0.97314   0.95908   0.00000  Uiso   1.00
C861   C     0.76988   0.52686   0.04092   0.00000  Uiso   1.00
C862   C     0.52686   0.76988   0.95908   0.00000  Uiso   1.00
C863   C     0.97314   0.73012   0.04092   0.00000  Uiso   1.00
C864   C     0.76988   0.52686   0.95908   0.00000  Uiso   1.00
C865   C     0.97248   0.73074   0.91840   0.00000  Uiso   1.00
C866   C     0.73012   0.97314   0.04092   0.00000  Uiso   1.00
C867   C     0.97314   0.73012   0.95908   0.00000  Uiso   1.00
C868   C     0.52686   0.76988   0.04092   0.00000  Uiso   1.00
C869   C     0.59813   0.84813   0.25000   0.00000  Uiso   1.00
C870   C     0.90187   0.65187   0.75000   0.00000  Uiso   1.00
C871   C     0.65187   0.59813   0.25000   0.00000  Uiso   1.00
C872   C     0.84813   0.90187   0.75000   0.00000  Uiso   1.00
C873   C     0.90187   0.65187   0.25000   0.00000  Uiso   1.00
C874   C     0.59813   0.84813   0.75000   0.00000  Uiso   1.00
C875   C     0.84813   0.90187   0.25000   0.00000  Uiso   1.00
C876   C     0.52752   0.76926   0.08160   0.00000  Uiso   1.00
C877   C     0.65187   0.59813   0.75000   0.00000  Uiso   1.00
C878   C     0.59813   0.65187   0.75000   0.00000  Uiso   1.00
C879   C     0.90187   0.84813   0.25000   0.00000  Uiso   1.00
C880   C     0.65187   0.90187   0.75000   0.00000  Uiso   1.00
C881   C     0.84813   0.59813   0.25000   0.00000  Uiso   1.00
C882   C     0.90187   0.84813   0.75000   0.00000  Uiso   1.00
C883   C     0.59813   0.65187   0.25000   0.00000  Uiso   1.00
C884   C     0.84813   0.59813   0.75000   0.00000  Uiso   1.00
C885   C     0.65187   0.90187   0.25000   0.00000  Uiso   1.00
C886   C     0.50000   0.75000   0.47949   0.00000  Uiso   1.00
C887   C     0.73074   0.97248   0.91840   0.00000  Uiso   1.00
C888   C     0.50000   0.75000   0.52051   0.00000  Uiso   1.00
C889   C     0.75000   0.50000   0.47949   0.00000  Uiso   1.00
C890   C     0.75000   0.50000   0.52051   0.00000  Uiso   1.00
C891   C     0.75000   0.50000   0.97949   0.00000  Uiso   1.00
C892   C     0.75000   0.50000   0.02051   0.00000  Uiso   1.00
C893   C     0.50000   0.75000   0.97949   0.00000  Uiso   1.00
C894   C     0.50000   0.75000   0.02051   0.00000  Uiso   1.00
C895   C     0.76926   0.52752   0.08160   0.00000  Uiso   1.00
C896   C     0.52752   0.76926   0.91840   0.00000  Uiso   1.00
C897   C     0.97248   0.73074   0.08160   0.00000  Uiso   1.00
C898   C     0.50000   0.75000   0.39807   0.00000  Uiso   1.00
C899   C     0.50000   0.75000   0.60194   0.00000  Uiso   1.00
C900   C     0.75000   0.50000   0.39807   0.00000  Uiso   1.00
C901   C     0.98074   0.72248   0.58160   0.00000  Uiso   1.00
C902   C     0.75000   0.50000   0.60193   0.00000  Uiso   1.00
C903   C     0.75000   0.50000   0.89807   0.00000  Uiso   1.00
C904   C     0.75000   0.50000   0.10193   0.00000  Uiso   1.00
C905   C     0.50000   0.75000   0.89807   0.00000  Uiso   1.00
C906   C     0.50000   0.75000   0.10193   0.00000  Uiso   1.00
C907   C     0.96046   0.69672   0.47984   0.00000  Uiso   1.00
C908   C     0.53954   0.80328   0.52016   0.00000  Uiso   1.00
C909   C     0.80328   0.53954   0.47984   0.00000  Uiso   1.00
C910   C     0.69672   0.96046   0.52016   0.00000  Uiso   1.00
C911   C     0.53954   0.80328   0.47984   0.00000  Uiso   1.00
C912   C     0.72248   0.98074   0.41840   0.00000  Uiso   1.00
C913   C     0.96046   0.69672   0.52016   0.00000  Uiso   1.00
C914   C     0.69672   0.96046   0.47984   0.00000  Uiso   1.00
C915   C     0.80328   0.53954   0.52016   0.00000  Uiso   1.00
C916   C     0.71046   0.94672   0.97984   0.00000  Uiso   1.00
C917   C     0.78954   0.55328   0.02016   0.00000  Uiso   1.00
C918   C     0.55328   0.78953   0.97984   0.00000  Uiso   1.00
C919   C     0.94672   0.71047   0.02016   0.00000  Uiso   1.00
C920   C     0.78954   0.55328   0.97984   0.00000  Uiso   1.00
C921   C     0.71046   0.94672   0.02016   0.00000  Uiso   1.00
C922   C     0.94672   0.71047   0.97984   0.00000  Uiso   1.00
C923   C     0.77752   0.51926   0.58160   0.00000  Uiso   1.00
C924   C     0.55328   0.78953   0.02016   0.00000  Uiso   1.00
C925   C     0.75000   0.50000   0.35576   0.00000  Uiso   1.00
C926   C     0.75000   0.50000   0.64424   0.00000  Uiso   1.00
C927   C     0.50000   0.75000   0.35576   0.00000  Uiso   1.00
C928   C     0.50000   0.75000   0.64424   0.00000  Uiso   1.00
C929   C     0.50000   0.75000   0.85576   0.00000  Uiso   1.00
C930   C     0.50000   0.75000   0.14424   0.00000  Uiso   1.00
C931   C     0.75000   0.50000   0.85576   0.00000  Uiso   1.00
C932   C     0.75000   0.50000   0.14424   0.00000  Uiso   1.00
C933   C     0.67994   0.57006   0.25000   0.00000  Uiso   1.00
C934   C     0.98074   0.72248   0.41840   0.00000  Uiso   1.00
C935   C     0.82006   0.92994   0.75000   0.00000  Uiso   1.00
C936   C     0.92994   0.67994   0.25000   0.00000  Uiso   1.00
C937   C     0.57006   0.82006   0.75000   0.00000  Uiso   1.00
C938   C     0.82006   0.92994   0.25000   0.00000  Uiso   1.00
C939   C     0.67994   0.57006   0.75000   0.00000  Uiso   1.00
C940   C     0.57006   0.82006   0.25000   0.00000  Uiso   1.00
C941   C     0.92994   0.67994   0.75000   0.00000  Uiso   1.00
C942   C     0.67994   0.92994   0.75000   0.00000  Uiso   1.00
C943   C     0.82006   0.57006   0.25000   0.00000  Uiso   1.00
C944   C     0.92994   0.82006   0.75000   0.00000  Uiso   1.00
C945   C     0.51926   0.77752   0.58160   0.00000  Uiso   1.00
C946   C     0.57006   0.67994   0.25000   0.00000  Uiso   1.00
C947   C     0.82006   0.57006   0.75000   0.00000  Uiso   1.00
C948   C     0.67994   0.92994   0.25000   0.00000  Uiso   1.00
C949   C     0.57006   0.67994   0.75000   0.00000  Uiso   1.00
C950   C     0.92994   0.82006   0.25000   0.00000  Uiso   1.00
C951   C     0.62215   0.90458   0.22457   0.00000  Uiso   1.00
C952   C     0.87785   0.59542   0.77543   0.00000  Uiso   1.00
C953   C     0.59514   0.62186   0.22499   0.00000  Uiso   1.00
C954   C     0.90486   0.87814   0.77501   0.00000  Uiso   1.00
C955   C     0.87785   0.59542   0.22457   0.00000  Uiso   1.00
C956   C     0.77752   0.51926   0.41840   0.00000  Uiso   1.00
C957   C     0.62215   0.90458   0.77543   0.00000  Uiso   1.00
C958   C     0.90486   0.87814   0.22499   0.00000  Uiso   1.00
C959   C     0.59514   0.62186   0.77501   0.00000  Uiso   1.00
C960   C     0.62186   0.59514   0.77501   0.00000  Uiso   1.00
C961   C     0.87814   0.90486   0.22499   0.00000  Uiso   1.00
C962   C     0.59542   0.87785   0.77543   0.00000  Uiso   1.00
C963   C     0.90458   0.62215   0.22457   0.00000  Uiso   1.00
C964   C     0.87814   0.90486   0.77501   0.00000  Uiso   1.00
C965   C     0.62186   0.59514   0.22499   0.00000  Uiso   1.00
C966   C     0.90458   0.62215   0.77543   0.00000  Uiso   1.00
C967   C     0.72248   0.98074   0.58160   0.00000  Uiso   1.00
C968   C     0.59542   0.87785   0.22457   0.00000  Uiso   1.00
C969   C     0.87215   0.65458   0.72457   0.00000  Uiso   1.00
C970   C     0.62785   0.84542   0.27543   0.00000  Uiso   1.00
C971   C     0.84514   0.87186   0.72499   0.00000  Uiso   1.00
C972   C     0.65486   0.62814   0.27501   0.00000  Uiso   1.00
C973   C     0.62785   0.84542   0.72457   0.00000  Uiso   1.00
C974   C     0.87215   0.65458   0.27543   0.00000  Uiso   1.00
C975   C     0.65486   0.62814   0.72498   0.00000  Uiso   1.00
C976   C     0.84514   0.87186   0.27501   0.00000  Uiso   1.00
C977   C     0.87186   0.84514   0.27501   0.00000  Uiso   1.00
C978   C     0.76926   0.52752   0.91840   0.00000  Uiso   1.00
C979   C     0.62814   0.65486   0.72498   0.00000  Uiso   1.00
C980   C     0.84542   0.62785   0.27543   0.00000  Uiso   1.00
C981   C     0.65458   0.87215   0.72457   0.00000  Uiso   1.00
C982   C     0.62814   0.65486   0.27501   0.00000  Uiso   1.00
C983   C     0.87186   0.84514   0.72499   0.00000  Uiso   1.00
C984   C     0.65458   0.87215   0.27543   0.00000  Uiso   1.00
C985   C     0.84542   0.62785   0.72457   0.00000  Uiso   1.00
C986   C     0.98012   0.72314   0.45908   0.00000  Uiso   1.00
C987   C     0.51988   0.77686   0.54092   0.00000  Uiso   1.00
C988   C     0.77686   0.51988   0.45908   0.00000  Uiso   1.00
H989   H     0.94498   0.67575   0.46505   0.00000  Uiso   1.00
H990   H     0.80501   0.57425   0.03495   0.00000  Uiso   1.00
H991   H     0.57425   0.80501   0.96505   0.00000  Uiso   1.00
H992   H     0.92575   0.69499   0.03495   0.00000  Uiso   1.00
H993   H     0.80501   0.57425   0.96505   0.00000  Uiso   1.00
H994   H     0.69499   0.92575   0.03495   0.00000  Uiso   1.00
H995   H     0.92575   0.69499   0.96505   0.00000  Uiso   1.00
H996   H     0.57425   0.80501   0.03495   0.00000  Uiso   1.00
H997   H     0.61952   0.92729   0.20466   0.00000  Uiso   1.00
H998   H     0.88048   0.57271   0.79534   0.00000  Uiso   1.00
H999   H     0.57219   0.61900   0.20542   0.00000  Uiso   1.00
H1000  H     0.55501   0.82425   0.53495   0.00000  Uiso   1.00
H1001  H     0.92781   0.88100   0.79458   0.00000  Uiso   1.00
H1002  H     0.88048   0.57271   0.20466   0.00000  Uiso   1.00
H1003  H     0.61952   0.92729   0.79534   0.00000  Uiso   1.00
H1004  H     0.92781   0.88100   0.20542   0.00000  Uiso   1.00
H1005  H     0.57219   0.61900   0.79458   0.00000  Uiso   1.00
H1006  H     0.61900   0.57219   0.79458   0.00000  Uiso   1.00
H1007  H     0.88100   0.92781   0.20542   0.00000  Uiso   1.00
H1008  H     0.57271   0.88048   0.79534   0.00000  Uiso   1.00
H1009  H     0.92729   0.61952   0.20466   0.00000  Uiso   1.00
H1010  H     0.88100   0.92781   0.79458   0.00000  Uiso   1.00
H1011  H     0.82425   0.55502   0.46505   0.00000  Uiso   1.00
H1012  H     0.61900   0.57219   0.20542   0.00000  Uiso   1.00
H1013  H     0.92729   0.61952   0.79534   0.00000  Uiso   1.00
H1014  H     0.57271   0.88048   0.20466   0.00000  Uiso   1.00
H1015  H     0.86952   0.67729   0.70466   0.00000  Uiso   1.00
H1016  H     0.63048   0.82271   0.29534   0.00000  Uiso   1.00
H1017  H     0.82219   0.86900   0.70542   0.00000  Uiso   1.00
H1018  H     0.67781   0.63100   0.29458   0.00000  Uiso   1.00
H1019  H     0.63048   0.82271   0.70466   0.00000  Uiso   1.00
H1020  H     0.86952   0.67729   0.29534   0.00000  Uiso   1.00
H1021  H     0.67781   0.63100   0.70542   0.00000  Uiso   1.00
H1022  H     0.67575   0.94498   0.53495   0.00000  Uiso   1.00
H1023  H     0.82219   0.86900   0.29458   0.00000  Uiso   1.00
H1024  H     0.86900   0.82219   0.29458   0.00000  Uiso   1.00
H1025  H     0.63100   0.67781   0.70542   0.00000  Uiso   1.00
H1026  H     0.82271   0.63048   0.29534   0.00000  Uiso   1.00
H1027  H     0.67729   0.86952   0.70466   0.00000  Uiso   1.00
H1028  H     0.63100   0.67781   0.29458   0.00000  Uiso   1.00
H1029  H     0.86900   0.82219   0.70542   0.00000  Uiso   1.00
H1030  H     0.67729   0.86952   0.29534   0.00000  Uiso   1.00
H1031  H     0.82271   0.63048   0.70466   0.00000  Uiso   1.00
H1032  H     0.52673   0.80947   0.37351   0.00000  Uiso   1.00
H1033  H     0.55501   0.82425   0.46505   0.00000  Uiso   1.00
H1034  H     0.97326   0.69053   0.62649   0.00000  Uiso   1.00
H1035  H     0.69053   0.97326   0.37352   0.00000  Uiso   1.00
H1036  H     0.80947   0.52674   0.62648   0.00000  Uiso   1.00
H1037  H     0.97326   0.69053   0.37351   0.00000  Uiso   1.00
H1038  H     0.52673   0.80947   0.62649   0.00000  Uiso   1.00
H1039  H     0.80947   0.52674   0.37352   0.00000  Uiso   1.00
H1040  H     0.69053   0.97326   0.62649   0.00000  Uiso   1.00
H1041  H     0.77673   0.55947   0.87351   0.00000  Uiso   1.00
H1042  H     0.72327   0.94053   0.12649   0.00000  Uiso   1.00
H1043  H     0.94053   0.72327   0.87351   0.00000  Uiso   1.00
H1044  H     0.94498   0.67575   0.53495   0.00000  Uiso   1.00
H1045  H     0.55947   0.77673   0.12649   0.00000  Uiso   1.00
H1046  H     0.72327   0.94053   0.87351   0.00000  Uiso   1.00
H1047  H     0.77673   0.55947   0.12649   0.00000  Uiso   1.00
H1048  H     0.55947   0.77673   0.87351   0.00000  Uiso   1.00
H1049  H     0.94053   0.72327   0.12649   0.00000  Uiso   1.00
H1050  H     0.67575   0.94498   0.46505   0.00000  Uiso   1.00
H1051  H     0.82425   0.55502   0.53495   0.00000  Uiso   1.00
H1052  H     0.69499   0.92575   0.96505   0.00000  Uiso   1.00
O1053  O     0.75000   0.50000   0.25000   0.00000  Uiso   1.00
O1054  O     0.75000   0.96964   0.66245   0.00000  Uiso   1.00
O1055  O     0.96963   0.75000   0.33755   0.00000  Uiso   1.00
O1056  O     0.53036   0.75000   0.66245   0.00000  Uiso   1.00
O1057  O     0.50000   0.71964   0.83755   0.00000  Uiso   1.00
O1058  O     0.50000   0.78037   0.16245   0.00000  Uiso   1.00
O1059  O     0.78036   0.50000   0.83755   0.00000  Uiso   1.00
O1060  O     0.71963   0.50000   0.16245   0.00000  Uiso   1.00
O1061  O     0.50000   0.78037   0.83755   0.00000  Uiso   1.00
O1062  O     0.50000   0.71964   0.16245   0.00000  Uiso   1.00
O1063  O     0.71963   0.50000   0.83755   0.00000  Uiso   1.00
O1064  O     0.75000   0.50000   0.75000   0.00000  Uiso   1.00
O1065  O     0.78036   0.50000   0.16245   0.00000  Uiso   1.00
O1066  O     0.70724   0.57308   0.27302   0.00000  Uiso   1.00
O1067  O     0.79275   0.92693   0.72698   0.00000  Uiso   1.00
O1068  O     0.92692   0.70725   0.27302   0.00000  Uiso   1.00
O1069  O     0.57307   0.79276   0.72698   0.00000  Uiso   1.00
O1070  O     0.79275   0.92693   0.27302   0.00000  Uiso   1.00
O1071  O     0.70724   0.57308   0.72698   0.00000  Uiso   1.00
O1072  O     0.57307   0.79276   0.27302   0.00000  Uiso   1.00
O1073  O     0.92692   0.70725   0.72698   0.00000  Uiso   1.00
O1074  O     0.70724   0.92693   0.72698   0.00000  Uiso   1.00
O1075  O     0.50000   0.75000   0.25000   0.00000  Uiso   1.00
O1076  O     0.79275   0.57308   0.27302   0.00000  Uiso   1.00
O1077  O     0.92692   0.79276   0.72698   0.00000  Uiso   1.00
O1078  O     0.57307   0.70725   0.27302   0.00000  Uiso   1.00
O1079  O     0.79275   0.57308   0.72698   0.00000  Uiso   1.00
O1080  O     0.70724   0.92693   0.27302   0.00000  Uiso   1.00
O1081  O     0.57307   0.70725   0.72698   0.00000  Uiso   1.00
O1082  O     0.92692   0.79276   0.27302   0.00000  Uiso   1.00
O1083  O     0.95724   0.82308   0.77302   0.00000  Uiso   1.00
O1084  O     0.54275   0.67693   0.22698   0.00000  Uiso   1.00
O1085  O     0.67692   0.95725   0.77302   0.00000  Uiso   1.00
O1086  O     0.50000   0.75000   0.75000   0.00000  Uiso   1.00
O1087  O     0.82307   0.54276   0.22698   0.00000  Uiso   1.00
O1088  O     0.54275   0.67693   0.77302   0.00000  Uiso   1.00
O1089  O     0.95724   0.82308   0.22698   0.00000  Uiso   1.00
O1090  O     0.82307   0.54276   0.77302   0.00000  Uiso   1.00
O1091  O     0.67692   0.95725   0.22698   0.00000  Uiso   1.00
O1092  O     0.95724   0.67693   0.22698   0.00000  Uiso   1.00
O1093  O     0.54275   0.82308   0.77302   0.00000  Uiso   1.00
O1094  O     0.67692   0.54276   0.22698   0.00000  Uiso   1.00
O1095  O     0.82307   0.95725   0.77302   0.00000  Uiso   1.00
O1096  O     0.54275   0.82308   0.22698   0.00000  Uiso   1.00
O1097  O     0.75000   0.96964   0.33755   0.00000  Uiso   1.00
O1098  O     0.95724   0.67693   0.77302   0.00000  Uiso   1.00
O1099  O     0.82307   0.95725   0.22698   0.00000  Uiso   1.00
O1100  O     0.67692   0.54276   0.77302   0.00000  Uiso   1.00
O1101  O     0.53735   0.80560   0.39959   0.00000  Uiso   1.00
O1102  O     0.96265   0.69440   0.60041   0.00000  Uiso   1.00
O1103  O     0.69440   0.96265   0.39959   0.00000  Uiso   1.00
O1104  O     0.80560   0.53735   0.60041   0.00000  Uiso   1.00
O1105  O     0.96265   0.69440   0.39959   0.00000  Uiso   1.00
O1106  O     0.53735   0.80560   0.60041   0.00000  Uiso   1.00
O1107  O     0.80560   0.53735   0.39959   0.00000  Uiso   1.00
O1108  O     0.75000   0.53037   0.66245   0.00000  Uiso   1.00
O1109  O     0.69440   0.96265   0.60041   0.00000  Uiso   1.00
O1110  O     0.78735   0.55560   0.89959   0.00000  Uiso   1.00
O1111  O     0.71265   0.94440   0.10041   0.00000  Uiso   1.00
O1112  O     0.94440   0.71265   0.89959   0.00000  Uiso   1.00
O1113  O     0.55560   0.78735   0.10041   0.00000  Uiso   1.00
O1114  O     0.71265   0.94440   0.89959   0.00000  Uiso   1.00
O1115  O     0.78735   0.55560   0.10041   0.00000  Uiso   1.00
O1116  O     0.55560   0.78735   0.89959   0.00000  Uiso   1.00
O1117  O     0.94440   0.71265   0.10041   0.00000  Uiso   1.00
O1118  O     0.53036   0.75000   0.33755   0.00000  Uiso   1.00
O1119  O     0.96963   0.75000   0.66245   0.00000  Uiso   1.00
O1120  O     0.75000   0.53037   0.33755   0.00000  Uiso   1.00
Zn1121 Zn    0.70659   0.50000   0.21735   0.00000  Uiso   1.00
Zn1122 Zn    0.54340   0.75000   0.28265   0.00000  Uiso   1.00
Zn1123 Zn    0.75000   0.95660   0.71735   0.00000  Uiso   1.00
Zn1124 Zn    0.75000   0.54341   0.28265   0.00000  Uiso   1.00
Zn1125 Zn    0.54340   0.75000   0.71735   0.00000  Uiso   1.00
Zn1126 Zn    0.95659   0.75000   0.28265   0.00000  Uiso   1.00
Zn1127 Zn    0.75000   0.54341   0.71735   0.00000  Uiso   1.00
Zn1128 Zn    0.75000   0.95660   0.28265   0.00000  Uiso   1.00
Zn1129 Zn    0.79340   0.50000   0.78265   0.00000  Uiso   1.00
Zn1130 Zn    0.50000   0.70660   0.21735   0.00000  Uiso   1.00
Zn1131 Zn    0.50000   0.79341   0.78265   0.00000  Uiso   1.00
Zn1132 Zn    0.79340   0.50000   0.21735   0.00000  Uiso   1.00
Zn1133 Zn    0.70659   0.50000   0.78265   0.00000  Uiso   1.00
Zn1134 Zn    0.50000   0.79341   0.21735   0.00000  Uiso   1.00
Zn1135 Zn    0.50000   0.70660   0.78265   0.00000  Uiso   1.00
Zn1136 Zn    0.95659   0.75000   0.71735   0.00000  Uiso   1.00
loop_
_geom_bond_atom_site_label_1
_geom_bond_atom_site_label_2
_geom_bond_distance
_geom_bond_site_symmetry_2
_ccdc_geom_bond_type
C1     O249    1.386   .     S
C1     C4      1.401   .     A
C1     C46     1.417   .     A
C2     O259    1.386   .     S
C2     C14     1.401   .     A
C2     C620    1.417   .     A
C3     C606    1.413   .     A
C3     C58     1.404   .     A
C3     C115    1.401   .     A
C4     C59     1.404   .     A
C4     C34     1.413   .     A
C5     C49     1.401   .     A
C5     C61     1.404   .     A
C5     C320    1.413   .     S
C6     C60     1.401   .     A
C6     C62     1.404   .     A
C6     C605    1.413   .     S
C7     C63     1.404   .     A
C7     C71     1.401   .     A
C7     C38     1.413   .     S
C8     C35     1.401   .     A
C8     C607    1.413   .     A
C8     C64     1.404   .     A
C9     C43     1.401   .     A
C9     C65     1.404   .     A
C9     C40     1.413   .     S
C10    C66     1.404   .     A
C10    C44     1.401   .     A
C10    C41     1.413   .     S
C11    C326    1.413   .     A
C11    C67     1.404   .     A
C11    C45     1.401   .     A
C12    C68     1.404   .     A
C12    C126    1.401   .     A
C12    C39     1.413   .     S
C13    O260    1.386   .     S
C13    C337    1.417   .     A
C13    C15     1.401   .     A
C14    C69     1.404   .     A
C14    C608    1.413   .     A
C15    C325    1.413   .     A
C15    C70     1.404   .     A
C16    C72     1.404   .     A
C16    C24     1.401   .     A
C16    C42     1.413   .     S
C17    C88     1.456   .     S
C17    C118    1.402   .     A
C17    C116    1.402   .     A
C18    C114    1.402   .     A
C18    C89     1.456   .     S
C18    C117    1.402   .     A
C19    C120    1.402   .     A
C19    C113    1.402   .     A
C19    C81     1.456   .     S
C20    C112    1.402   .     A
C20    C83     1.456   .     S
C20    C119    1.402   .     A
C21    C122    1.402   .     A
C21    C111    1.402   .     A
C21    C84     1.456   .     S
C22    C85     1.456   .     S
C22    C110    1.402   .     A
C22    C121    1.402   .     A
C23    C86     1.456   .     S
C23    C109    1.402   .     A
C23    C124    1.402   .     A
C24    C54     1.417   .     A
C24    O261    1.386   .     S
C25    C87     1.456   .     S
C25    C108    1.402   .     A
C25    C123    1.402   .     A
C26    C107    1.402   .     A
C26    C127    1.402   .     A
C26    C97     1.456   .     S
C27    C98     1.456   .     S
C27    C125    1.402   .     A
C27    C106    1.402   .     A
C28    C105    1.402   .     A
C28    C129    1.402   .     A
C28    C90     1.456   .     S
C29    C103    1.402   .     A
C29    C128    1.402   .     A
C29    C91     1.456   .     S
C30    C131    1.402   .     A
C30    C92     1.456   .     S
C30    C102    1.402   .     A
C31    C101    1.402   .     A
C31    C130    1.402   .     A
C31    C94     1.456   .     S
C32    C133    1.402   .     A
C32    C100    1.402   .     A
C32    C95     1.456   .     S
C33    C99     1.402   .     A
C33    C132    1.402   .     A
C33    C96     1.456   .     S
C34    C36     1.413   .     A
C34    C418    1.413   1_455 S
C35    O262    1.386   .     S
C35    C619    1.417   .     A
C36    C135    1.413   .     A
C36    C289    1.413   1_455 S
C37    C136    1.413   .     A
C37    C574    1.413   1_545 S
C37    C38     1.413   .     S
C38    C571    1.413   1_545 A
C39    C576    1.413   1_545 A
C39    C40     1.413   1_556 S
C40    C582    1.413   1_545 A
C40    C39     1.413   1_554 S
C41    C299    1.413   1_455 A
C41    C42     1.413   1_556 S
C42    C295    1.413   1_455 A
C42    C41     1.413   1_554 S
C43    O263    1.386   .     S
C43    C52     1.417   .     S
C44    O264    1.386   .     S
C44    C53     1.417   .     S
C45    O265    1.386   .     S
C45    C338    1.417   .     S
C46    C75     1.457   .     S
C46    C366    1.417   1_455 S
C47    C333    1.417   1_455 A
C47    C76     1.457   .     S
C47    C93     1.417   .     S
C48    C628    1.417   1_545 A
C48    C73     1.457   .     S
C48    C104    1.417   .     S
C49    C331    1.417   .     A
C49    O250    1.386   .     S
C50    C71     1.417   .     A
C50    C74     1.457   .     S
C50    C683    1.417   1_545 S
C51    C603    1.417   1_545 A
C51    C79     1.457   .     S
C51    C126    1.417   .     S
C52    C570    1.417   1_545 A
C52    C80     1.457   .     S
C53    C297    1.417   1_455 A
C53    C77     1.457   .     S
C54    C78     1.457   .     S
C54    C329    1.417   1_455 S
C55    H137    1.083   .     S
C55    C134    1.404   .     A
C55    C61     1.388   .     A
C56    H148    1.083   .     S
C56    C135    1.404   .     A
C56    C59     1.388   .     A
C57    C136    1.404   .     A
C57    C63     1.388   .     A
C57    H159    1.083   .     S
C58    C62     1.388   .     A
C58    H170    1.083   .     S
C59    H181    1.083   .     S
C60    C616    1.417   .     A
C60    O251    1.386   .     S
C61    H192    1.083   .     S
C62    H198    1.083   .     S
C63    H199    1.083   .     S
C64    H200    1.083   .     S
C64    C69     1.388   1_556 S
C65    H138    1.083   .     S
C65    C68     1.388   1_554 S
C66    H139    1.083   .     S
C66    C72     1.388   1_556 S
C67    H140    1.083   .     S
C67    C70     1.388   1_554 S
C68    H141    1.083   .     S
C68    C65     1.388   1_556 S
C69    H142    1.083   .     S
C69    C64     1.388   1_554 S
C70    H143    1.083   .     S
C70    C67     1.388   1_556 S
C71    O252    1.386   .     S
C72    H144    1.083   .     S
C72    C66     1.388   1_554 S
C73    O268    1.278   .     A
C73    O813    1.278   1_545 S
C74    O770    1.278   1_545 A
C74    O256    1.278   .     S
C75    O487    1.278   1_455 A
C75    O266    1.278   .     S
C76    O551    1.278   1_455 A
C76    O204    1.278   .     S
C77    O209    1.278   .     A
C77    O205    1.278   .     S
C78    O210    1.278   .     A
C78    O206    1.278   .     S
C79    O207    1.278   .     S
C79    O211    1.278   .     S
C80    O208    1.278   .     S
C80    O213    1.278   .     S
C81    O242    1.282   .     A
C81    O214    1.282   .     A
C82    C134    1.401   .     A
C82    O253    1.386   .     S
C82    C330    1.417   .     S
C83    O243    1.282   .     A
C83    O215    1.282   .     A
C84    O216    1.282   .     A
C84    O240    1.282   .     A
C85    O217    1.282   .     A
C85    O241    1.282   .     A
C86    O247    1.282   .     A
C86    O218    1.282   .     A
C87    O248    1.282   .     A
C87    O219    1.282   .     A
C88    O220    1.282   .     A
C88    O244    1.282   .     A
C89    O246    1.282   .     A
C89    O221    1.282   .     A
C90    O222    1.282   .     A
C90    O233    1.282   .     A
C91    O235    1.282   .     A
C91    O224    1.282   .     A
C92    O231    1.282   .     A
C92    O225    1.282   .     A
C93    O254    1.386   .     S
C93    C135    1.401   .     A
C94    O232    1.282   .     A
C94    O226    1.282   .     A
C95    O238    1.282   .     A
C95    O227    1.282   .     A
C96    O228    1.282   .     A
C96    O239    1.282   .     A
C97    O229    1.282   .     A
C97    O236    1.282   .     A
C98    O230    1.282   .     A
C98    O237    1.282   .     A
C99    H145    1.083   .     S
C99    C116    1.386   .     A
C100   H146    1.083   .     S
C100   C114    1.386   .     A
C101   C113    1.386   .     A
C101   H147    1.083   .     S
C102   C112    1.386   .     A
C102   H149    1.083   .     S
C103   C111    1.386   .     A
C103   H150    1.083   .     S
C104   C136    1.401   .     A
C104   O255    1.386   .     S
C105   C110    1.386   .     A
C105   H151    1.083   .     S
C106   H152    1.083   .     S
C106   C109    1.386   .     A
C107   C108    1.386   .     A
C107   H153    1.083   .     S
C108   H154    1.083   .     S
C109   H155    1.083   .     S
C110   H156    1.083   .     S
C111   H157    1.083   .     S
C112   H158    1.083   .     S
C113   H160    1.083   .     S
C114   H161    1.083   .     S
C115   O257    1.386   .     S
C115   C618    1.417   .     S
C116   H162    1.083   .     S
C117   C133    1.386   .     A
C117   H163    1.083   .     S
C118   H164    1.083   .     S
C118   C132    1.386   .     A
C119   C131    1.386   .     A
C119   H165    1.083   .     S
C120   H166    1.083   .     S
C120   C130    1.386   .     A
C121   H167    1.083   .     S
C121   C129    1.386   .     A
C122   C128    1.386   .     A
C122   H168    1.083   .     S
C123   C127    1.386   .     A
C123   H169    1.083   .     S
C124   H171    1.083   .     S
C124   C125    1.386   .     A
C125   H172    1.083   .     S
C126   O258    1.386   .     S
C127   H173    1.083   .     S
C128   H174    1.083   .     S
C129   H175    1.083   .     S
C130   H176    1.083   .     S
C131   H177    1.083   .     S
C132   H178    1.083   .     S
C133   H179    1.083   .     S
C134   C318    1.413   .     S
H180   O249    0.989   .     S
H182   O250    0.989   .     S
H183   O251    0.989   .     S
H184   O252    0.989   .     S
H185   O253    0.989   .     S
H186   O254    0.989   .     S
H187   O255    0.989   .     S
H188   O257    0.989   .     S
H189   O258    0.989   .     S
H190   O259    0.989   .     S
H191   O260    0.989   .     S
H193   O261    0.989   .     S
H194   O262    0.989   .     S
H195   O263    0.989   .     S
H196   O264    0.989   .     S
H197   O265    0.989   .     S
O201   Zn280   1.949   .     S
O201   Zn269   1.949   .     S
O201   Zn272   1.949   .     S
O201   Zn844   1.949   1_545 S
O202   Zn271   1.950   .     S
O202   C642    1.278   .     A
O203   Zn274   1.950   .     S
O203   C359    1.278   .     A
O204   Zn273   1.950   .     S
O205   Zn283   1.950   .     S
O206   Zn282   1.950   .     S
O207   Zn277   1.950   .     S
O208   Zn269   1.950   .     S
O209   Zn279   1.950   .     S
O210   Zn278   1.950   .     S
O211   Zn281   1.950   .     S
O212   Zn277   1.949   .     S
O212   Zn281   1.949   .     S
O212   Zn275   1.949   .     S
O212   Zn839   1.949   1_545 S
O213   Zn280   1.950   .     S
O214   Zn272   1.938   .     S
O215   Zn271   1.938   .     S
O216   Zn274   1.937   .     S
O217   Zn273   1.937   .     S
O218   Zn276   1.938   .     S
O219   Zn275   1.938   .     S
O220   Zn270   1.937   .     S
O221   Zn284   1.937   .     S
O222   Zn271   1.937   .     S
O223   Zn558   1.949   1_455 S
O223   Zn270   1.949   .     S
O223   Zn278   1.949   .     S
O223   Zn282   1.949   .     S
O224   Zn272   1.937   .     S
O225   Zn284   1.938   .     S
O226   Zn270   1.938   .     S
O227   Zn275   1.937   .     S
O228   Zn276   1.937   .     S
O229   Zn273   1.938   .     S
O230   Zn274   1.938   .     S
O231   Zn563   1.938   .     S
O232   Zn278   1.938   .     S
O233   Zn849   1.937   .     S
O234   Zn273   1.949   .     S
O234   Zn279   1.949   .     S
O234   Zn283   1.949   .     S
O234   Zn568   1.949   1_455 S
O235   Zn280   1.937   .     S
O236   Zn283   1.938   .     S
O237   Zn566   1.938   .     S
O238   Zn277   1.937   .     S
O239   Zn837   1.937   .     S
O240   Zn562   1.937   .     S
O241   Zn279   1.937   .     S
O242   Zn269   1.938   .     S
O243   Zn845   1.938   .     S
O244   Zn282   1.937   .     S
O245   Zn276   1.950   .     S
O245   C641    1.278   .     S
O246   Zn567   1.937   .     S
O247   Zn848   1.938   .     S
O248   Zn281   1.938   .     S
O256   Zn275   1.950   .     S
O266   Zn270   1.950   .     S
O267   Zn284   1.950   .     S
O267   C360    1.278   .     A
O268   Zn272   1.950   .     S
Zn269  O807    1.937   1_545 S
Zn271  O780    1.949   .     S
Zn274  O507    1.949   .     S
Zn276  O769    1.949   .     S
Zn277  O811    1.938   1_545 S
Zn278  O524    1.937   1_455 S
Zn279  O515    1.938   1_455 S
Zn280  O815    1.938   1_545 S
Zn281  O801    1.937   1_545 S
Zn282  O521    1.938   1_455 S
Zn283  O530    1.937   1_455 S
Zn284  O518    1.949   .     S
C285   O533    1.386   .     S
C285   C288    1.401   .     A
C285   C330    1.417   .     A
C286   O543    1.386   .     S
C286   C298    1.401   .     A
C286   C904    1.417   .     A
C287   C890    1.413   .     A
C287   C342    1.404   .     A
C287   C399    1.401   .     A
C288   C343    1.404   .     A
C288   C318    1.413   .     A
C289   C333    1.401   .     A
C289   C345    1.404   .     A
C289   C36     1.413   1_655 S
C290   C344    1.401   .     A
C290   C346    1.404   .     A
C290   C889    1.413   .     S
C291   C347    1.404   .     A
C291   C355    1.401   .     A
C291   C322    1.413   .     S
C292   C319    1.401   .     A
C292   C891    1.413   .     A
C292   C348    1.404   .     A
C293   C327    1.401   .     A
C293   C349    1.404   .     A
C293   C324    1.413   .     S
C294   C350    1.404   .     A
C294   C328    1.401   .     A
C294   C325    1.413   .     S
C295   C42     1.413   1_655 A
C295   C351    1.404   .     A
C295   C329    1.401   .     A
C296   C352    1.404   .     A
C296   C410    1.401   .     A
C296   C323    1.413   .     S
C297   O544    1.386   .     S
C297   C53     1.417   1_655 A
C297   C299    1.401   .     A
C298   C353    1.404   .     A
C298   C892    1.413   .     A
C299   C41     1.413   1_655 A
C299   C354    1.404   .     A
C300   C356    1.404   .     A
C300   C308    1.401   .     A
C300   C326    1.413   .     S
C301   C372    1.456   .     S
C301   C402    1.402   .     A
C301   C400    1.402   .     A
C302   C398    1.402   .     A
C302   C373    1.456   .     S
C302   C401    1.402   .     A
C303   C404    1.402   .     A
C303   C397    1.402   .     A
C303   C365    1.456   .     S
C304   C396    1.402   .     A
C304   C367    1.456   .     S
C304   C403    1.402   .     A
C305   C406    1.402   .     A
C305   C395    1.402   .     A
C305   C368    1.456   .     S
C306   C369    1.456   .     S
C306   C394    1.402   .     A
C306   C405    1.402   .     A
C307   C370    1.456   .     S
C307   C393    1.402   .     A
C307   C408    1.402   .     A
C308   C338    1.417   .     A
C308   O545    1.386   .     S
C309   C371    1.456   .     S
C309   C392    1.402   .     A
C309   C407    1.402   .     A
C310   C391    1.402   .     A
C310   C411    1.402   .     A
C310   C381    1.456   .     S
C311   C382    1.456   .     S
C311   C409    1.402   .     A
C311   C390    1.402   .     A
C312   C389    1.402   .     A
C312   C413    1.402   .     A
C312   C374    1.456   .     S
C313   C387    1.402   .     A
C313   C412    1.402   .     A
C313   C375    1.456   .     S
C314   C415    1.402   .     A
C314   C376    1.456   .     S
C314   C386    1.402   .     A
C315   C385    1.402   .     A
C315   C414    1.402   .     A
C315   C378    1.456   .     S
C316   C417    1.402   .     A
C316   C384    1.402   .     A
C316   C379    1.456   .     S
C317   C383    1.402   .     A
C317   C416    1.402   .     A
C317   C380    1.456   .     S
C318   C320    1.413   .     A
C319   O546    1.386   .     S
C319   C903    1.417   .     A
C320   C419    1.413   .     A
C321   C420    1.413   .     A
C321   C858    1.413   1_545 S
C321   C322    1.413   .     S
C322   C855    1.413   1_545 A
C323   C860    1.413   1_545 A
C323   C324    1.413   1_556 S
C324   C866    1.413   1_545 A
C324   C323    1.413   1_554 S
C325   C326    1.413   1_556 S
C326   C325    1.413   1_554 S
C327   O547    1.386   .     S
C327   C336    1.417   .     S
C328   O548    1.386   .     S
C328   C337    1.417   .     S
C329   O549    1.386   .     S
C329   C54     1.417   1_655 S
C330   C359    1.457   .     S
C331   C360    1.457   .     S
C331   C377    1.417   .     S
C332   C912    1.417   1_545 A
C332   C357    1.457   .     S
C332   C388    1.417   .     S
C333   C47     1.417   1_655 A
C333   O534    1.386   .     S
C334   C355    1.417   .     A
C334   C358    1.457   .     S
C334   C967    1.417   1_545 S
C335   C887    1.417   1_545 A
C335   C363    1.457   .     S
C335   C410    1.417   .     S
C336   C854    1.417   1_545 A
C336   C364    1.457   .     S
C337   C361    1.457   .     S
C338   C362    1.457   .     S
C339   H421    1.083   .     S
C339   C418    1.404   .     A
C339   C345    1.388   .     A
C340   H432    1.083   .     S
C340   C419    1.404   .     A
C340   C343    1.388   .     A
C341   C420    1.404   .     A
C341   C347    1.388   .     A
C341   H443    1.083   .     S
C342   C346    1.388   .     A
C342   H454    1.083   .     S
C343   H465    1.083   .     S
C344   C900    1.417   .     A
C344   O535    1.386   .     S
C345   H476    1.083   .     S
C346   H482    1.083   .     S
C347   H483    1.083   .     S
C348   H484    1.083   .     S
C348   C353    1.388   1_556 S
C349   H422    1.083   .     S
C349   C352    1.388   1_554 S
C350   H423    1.083   .     S
C350   C356    1.388   1_556 S
C351   H424    1.083   .     S
C351   C354    1.388   1_554 S
C352   H425    1.083   .     S
C352   C349    1.388   1_556 S
C353   H426    1.083   .     S
C353   C348    1.388   1_554 S
C354   H427    1.083   .     S
C354   C351    1.388   1_556 S
C355   O536    1.386   .     S
C356   H428    1.083   .     S
C356   C350    1.388   1_554 S
C357   O552    1.278   .     A
C357   O1097   1.278   1_545 S
C358   O1054   1.278   1_545 A
C358   O540    1.278   .     S
C359   O550    1.278   .     S
C360   O488    1.278   .     S
C361   O493    1.278   .     A
C361   O489    1.278   .     S
C362   O494    1.278   .     A
C362   O490    1.278   .     S
C363   O491    1.278   .     S
C363   O495    1.278   .     S
C364   O492    1.278   .     S
C364   O497    1.278   .     S
C365   O526    1.282   .     A
C365   O498    1.282   .     A
C366   C418    1.401   .     A
C366   O537    1.386   .     S
C366   C46     1.417   1_655 S
C367   O527    1.282   .     A
C367   O499    1.282   .     A
C368   O500    1.282   .     A
C368   O524    1.282   .     A
C369   O501    1.282   .     A
C369   O525    1.282   .     A
C370   O531    1.282   .     A
C370   O502    1.282   .     A
C371   O532    1.282   .     A
C371   O503    1.282   .     A
C372   O504    1.282   .     A
C372   O528    1.282   .     A
C373   O530    1.282   .     A
C373   O505    1.282   .     A
C374   O506    1.282   .     A
C374   O517    1.282   .     A
C375   O519    1.282   .     A
C375   O508    1.282   .     A
C376   O515    1.282   .     A
C376   O509    1.282   .     A
C377   O538    1.386   .     S
C377   C419    1.401   .     A
C378   O516    1.282   .     A
C378   O510    1.282   .     A
C379   O522    1.282   .     A
C379   O511    1.282   .     A
C380   O512    1.282   .     A
C380   O523    1.282   .     A
C381   O513    1.282   .     A
C381   O520    1.282   .     A
C382   O514    1.282   .     A
C382   O521    1.282   .     A
C383   H429    1.083   .     S
C383   C400    1.386   .     A
C384   H430    1.083   .     S
C384   C398    1.386   .     A
C385   C397    1.386   .     A
C385   H431    1.083   .     S
C386   C396    1.386   .     A
C386   H433    1.083   .     S
C387   C395    1.386   .     A
C387   H434    1.083   .     S
C388   C420    1.401   .     A
C388   O539    1.386   .     S
C389   C394    1.386   .     A
C389   H435    1.083   .     S
C390   H436    1.083   .     S
C390   C393    1.386   .     A
C391   C392    1.386   .     A
C391   H437    1.083   .     S
C392   H438    1.083   .     S
C393   H439    1.083   .     S
C394   H440    1.083   .     S
C395   H441    1.083   .     S
C396   H442    1.083   .     S
C397   H444    1.083   .     S
C398   H445    1.083   .     S
C399   O541    1.386   .     S
C399   C902    1.417   .     S
C400   H446    1.083   .     S
C401   C417    1.386   .     A
C401   H447    1.083   .     S
C402   H448    1.083   .     S
C402   C416    1.386   .     A
C403   C415    1.386   .     A
C403   H449    1.083   .     S
C404   H450    1.083   .     S
C404   C414    1.386   .     A
C405   H451    1.083   .     S
C405   C413    1.386   .     A
C406   C412    1.386   .     A
C406   H452    1.083   .     S
C407   C411    1.386   .     A
C407   H453    1.083   .     S
C408   H455    1.083   .     S
C408   C409    1.386   .     A
C409   H456    1.083   .     S
C410   O542    1.386   .     S
C411   H457    1.083   .     S
C412   H458    1.083   .     S
C413   H459    1.083   .     S
C414   H460    1.083   .     S
C415   H461    1.083   .     S
C416   H462    1.083   .     S
C417   H463    1.083   .     S
C418   C34     1.413   1_655 S
H464   O533    0.989   .     S
H466   O534    0.989   .     S
H467   O535    0.989   .     S
H468   O536    0.989   .     S
H469   O537    0.989   .     S
H470   O538    0.989   .     S
H471   O539    0.989   .     S
H472   O541    0.989   .     S
H473   O542    0.989   .     S
H474   O543    0.989   .     S
H475   O544    0.989   .     S
H477   O545    0.989   .     S
H478   O546    0.989   .     S
H479   O547    0.989   .     S
H480   O548    0.989   .     S
H481   O549    0.989   .     S
O485   Zn564   1.949   .     S
O485   Zn553   1.949   .     S
O485   Zn556   1.949   .     S
O485   Zn1128  1.949   1_545 S
O486   Zn555   1.950   .     S
O486   C926    1.278   .     A
O487   Zn558   1.950   .     S
O487   C75     1.278   1_655 A
O488   Zn557   1.950   .     S
O489   Zn567   1.950   .     S
O490   Zn566   1.950   .     S
O491   Zn561   1.950   .     S
O492   Zn553   1.950   .     S
O493   Zn563   1.950   .     S
O494   Zn562   1.950   .     S
O495   Zn565   1.950   .     S
O496   Zn561   1.949   .     S
O496   Zn565   1.949   .     S
O496   Zn559   1.949   .     S
O496   Zn1123  1.949   1_545 S
O497   Zn564   1.950   .     S
O498   Zn556   1.938   .     S
O499   Zn555   1.938   .     S
O500   Zn558   1.937   .     S
O501   Zn557   1.937   .     S
O502   Zn560   1.938   .     S
O503   Zn559   1.938   .     S
O504   Zn554   1.937   .     S
O505   Zn568   1.937   .     S
O506   Zn555   1.937   .     S
O507   Zn554   1.949   .     S
O507   Zn562   1.949   .     S
O507   Zn566   1.949   .     S
O508   Zn556   1.937   .     S
O509   Zn568   1.938   .     S
O510   Zn554   1.938   .     S
O511   Zn559   1.937   .     S
O512   Zn560   1.937   .     S
O513   Zn557   1.938   .     S
O514   Zn558   1.938   .     S
O515   Zn279   1.938   1_655 S
O516   Zn562   1.938   .     S
O517   Zn1133  1.937   .     S
O518   Zn557   1.949   .     S
O518   Zn563   1.949   .     S
O518   Zn567   1.949   .     S
O519   Zn564   1.937   .     S
O520   Zn567   1.938   .     S
O521   Zn282   1.938   1_655 S
O522   Zn561   1.937   .     S
O523   Zn1121  1.937   .     S
O524   Zn278   1.937   1_655 S
O525   Zn563   1.937   .     S
O526   Zn553   1.938   .     S
O527   Zn1129  1.938   .     S
O528   Zn566   1.937   .     S
O529   Zn560   1.950   .     S
O529   C925    1.278   .     S
O530   Zn283   1.937   1_655 S
O531   Zn1132  1.938   .     S
O532   Zn565   1.938   .     S
O540   Zn559   1.950   .     S
O550   Zn554   1.950   .     S
O551   Zn568   1.950   .     S
O551   C76     1.278   1_655 A
O552   Zn556   1.950   .     S
Zn553  O1091   1.937   1_545 S
Zn555  O1064   1.949   .     S
Zn558  O223    1.949   1_655 S
Zn560  O1053   1.949   .     S
Zn561  O1095   1.938   1_545 S
Zn564  O1099   1.938   1_545 S
Zn565  O1085   1.937   1_545 S
Zn568  O234    1.949   1_655 S
C569   O817    1.386   .     S
C569   C572    1.401   .     A
C569   C614    1.417   .     A
C570   O827    1.386   .     S
C570   C582    1.401   .     A
C570   C52     1.417   1_565 A
C571   C38     1.413   1_565 A
C571   C626    1.404   .     A
C571   C683    1.401   .     A
C572   C627    1.404   .     A
C572   C602    1.413   .     A
C573   C617    1.401   .     A
C573   C629    1.404   .     A
C573   C888    1.413   .     S
C574   C628    1.401   .     A
C574   C630    1.404   .     A
C574   C37     1.413   1_565 S
C575   C631    1.404   .     A
C575   C639    1.401   .     A
C575   C606    1.413   .     S
C576   C603    1.401   .     A
C576   C39     1.413   1_565 A
C576   C632    1.404   .     A
C577   C611    1.401   .     A
C577   C633    1.404   .     A
C577   C608    1.413   .     S
C578   C634    1.404   .     A
C578   C612    1.401   .     A
C578   C609    1.413   .     S
C579   C894    1.413   .     A
C579   C635    1.404   .     A
C579   C613    1.401   .     A
C580   C636    1.404   .     A
C580   C694    1.401   .     A
C580   C607    1.413   .     S
C581   O828    1.386   .     S
C581   C905    1.417   .     A
C581   C583    1.401   .     A
C582   C637    1.404   .     A
C582   C40     1.413   1_565 A
C583   C893    1.413   .     A
C583   C638    1.404   .     A
C584   C640    1.404   .     A
C584   C592    1.401   .     A
C584   C610    1.413   .     S
C585   C656    1.456   .     S
C585   C686    1.402   .     A
C585   C684    1.402   .     A
C586   C682    1.402   .     A
C586   C657    1.456   .     S
C586   C685    1.402   .     A
C587   C688    1.402   .     A
C587   C681    1.402   .     A
C587   C649    1.456   .     S
C588   C680    1.402   .     A
C588   C651    1.456   .     S
C588   C687    1.402   .     A
C589   C690    1.402   .     A
C589   C679    1.402   .     A
C589   C652    1.456   .     S
C590   C653    1.456   .     S
C590   C678    1.402   .     A
C590   C689    1.402   .     A
C591   C654    1.456   .     S
C591   C677    1.402   .     A
C591   C692    1.402   .     A
C592   C622    1.417   .     A
C592   O829    1.386   .     S
C593   C655    1.456   .     S
C593   C676    1.402   .     A
C593   C691    1.402   .     A
C594   C675    1.402   .     A
C594   C695    1.402   .     A
C594   C665    1.456   .     S
C595   C666    1.456   .     S
C595   C693    1.402   .     A
C595   C674    1.402   .     A
C596   C673    1.402   .     A
C596   C697    1.402   .     A
C596   C658    1.456   .     S
C597   C671    1.402   .     A
C597   C696    1.402   .     A
C597   C659    1.456   .     S
C598   C699    1.402   .     A
C598   C660    1.456   .     S
C598   C670    1.402   .     A
C599   C669    1.402   .     A
C599   C698    1.402   .     A
C599   C662    1.456   .     S
C600   C701    1.402   .     A
C600   C668    1.402   .     A
C600   C663    1.456   .     S
C601   C667    1.402   .     A
C601   C700    1.402   .     A
C601   C664    1.456   .     S
C602   C604    1.413   .     A
C602   C986    1.413   1_455 S
C603   O830    1.386   .     S
C603   C51     1.417   1_565 A
C604   C703    1.413   .     A
C604   C857    1.413   1_455 S
C605   C704    1.413   .     A
C605   C606    1.413   .     S
C607   C608    1.413   1_556 S
C608   C607    1.413   1_554 S
C609   C867    1.413   1_455 A
C609   C610    1.413   1_556 S
C610   C863    1.413   1_455 A
C610   C609    1.413   1_554 S
C611   O831    1.386   .     S
C611   C620    1.417   .     S
C612   O832    1.386   .     S
C612   C621    1.417   .     S
C613   O833    1.386   .     S
C613   C906    1.417   .     S
C614   C643    1.457   .     S
C614   C934    1.417   1_455 S
C615   C901    1.417   1_455 A
C615   C644    1.457   .     S
C615   C661    1.417   .     S
C616   C641    1.457   .     S
C616   C672    1.417   .     S
C617   C899    1.417   .     A
C617   O818    1.386   .     S
C618   C639    1.417   .     A
C618   C642    1.457   .     S
C619   C647    1.457   .     S
C619   C694    1.417   .     S
C620   C648    1.457   .     S
C621   C865    1.417   1_455 A
C621   C645    1.457   .     S
C622   C646    1.457   .     S
C622   C897    1.417   1_455 S
C623   H705    1.083   .     S
C623   C702    1.404   .     A
C623   C629    1.388   .     A
C624   H716    1.083   .     S
C624   C703    1.404   .     A
C624   C627    1.388   .     A
C625   C704    1.404   .     A
C625   C631    1.388   .     A
C625   H727    1.083   .     S
C626   C630    1.388   .     A
C626   H738    1.083   .     S
C627   H749    1.083   .     S
C628   C48     1.417   1_565 A
C628   O819    1.386   .     S
C629   H760    1.083   .     S
C630   H766    1.083   .     S
C631   H767    1.083   .     S
C632   H768    1.083   .     S
C632   C637    1.388   1_556 S
C633   H706    1.083   .     S
C633   C636    1.388   1_554 S
C634   H707    1.083   .     S
C634   C640    1.388   1_556 S
C635   H708    1.083   .     S
C635   C638    1.388   1_554 S
C636   H709    1.083   .     S
C636   C633    1.388   1_556 S
C637   H710    1.083   .     S
C637   C632    1.388   1_554 S
C638   H711    1.083   .     S
C638   C635    1.388   1_556 S
C639   O820    1.386   .     S
C640   H712    1.083   .     S
C640   C634    1.388   1_554 S
C641   O836    1.278   .     A
C642   O824    1.278   .     S
C643   O1055   1.278   1_455 A
C643   O834    1.278   .     S
C644   O1119   1.278   1_455 A
C644   O772    1.278   .     S
C645   O777    1.278   .     A
C645   O773    1.278   .     S
C646   O778    1.278   .     A
C646   O774    1.278   .     S
C647   O775    1.278   .     S
C647   O779    1.278   .     S
C648   O776    1.278   .     S
C648   O781    1.278   .     S
C649   O810    1.282   .     A
C649   O782    1.282   .     A
C650   C702    1.401   .     A
C650   O821    1.386   .     S
C650   C898    1.417   .     S
C651   O811    1.282   .     A
C651   O783    1.282   .     A
C652   O784    1.282   .     A
C652   O808    1.282   .     A
C653   O785    1.282   .     A
C653   O809    1.282   .     A
C654   O815    1.282   .     A
C654   O786    1.282   .     A
C655   O816    1.282   .     A
C655   O787    1.282   .     A
C656   O788    1.282   .     A
C656   O812    1.282   .     A
C657   O814    1.282   .     A
C657   O789    1.282   .     A
C658   O790    1.282   .     A
C658   O801    1.282   .     A
C659   O803    1.282   .     A
C659   O792    1.282   .     A
C660   O799    1.282   .     A
C660   O793    1.282   .     A
C661   O822    1.386   .     S
C661   C703    1.401   .     A
C662   O800    1.282   .     A
C662   O794    1.282   .     A
C663   O806    1.282   .     A
C663   O795    1.282   .     A
C664   O796    1.282   .     A
C664   O807    1.282   .     A
C665   O797    1.282   .     A
C665   O804    1.282   .     A
C666   O798    1.282   .     A
C666   O805    1.282   .     A
C667   H713    1.083   .     S
C667   C684    1.386   .     A
C668   H714    1.083   .     S
C668   C682    1.386   .     A
C669   C681    1.386   .     A
C669   H715    1.083   .     S
C670   C680    1.386   .     A
C670   H717    1.083   .     S
C671   C679    1.386   .     A
C671   H718    1.083   .     S
C672   C704    1.401   .     A
C672   O823    1.386   .     S
C673   C678    1.386   .     A
C673   H719    1.083   .     S
C674   H720    1.083   .     S
C674   C677    1.386   .     A
C675   C676    1.386   .     A
C675   H721    1.083   .     S
C676   H722    1.083   .     S
C677   H723    1.083   .     S
C678   H724    1.083   .     S
C679   H725    1.083   .     S
C680   H726    1.083   .     S
C681   H728    1.083   .     S
C682   H729    1.083   .     S
C683   O825    1.386   .     S
C683   C50     1.417   1_565 S
C684   H730    1.083   .     S
C685   C701    1.386   .     A
C685   H731    1.083   .     S
C686   H732    1.083   .     S
C686   C700    1.386   .     A
C687   C699    1.386   .     A
C687   H733    1.083   .     S
C688   H734    1.083   .     S
C688   C698    1.386   .     A
C689   H735    1.083   .     S
C689   C697    1.386   .     A
C690   C696    1.386   .     A
C690   H736    1.083   .     S
C691   C695    1.386   .     A
C691   H737    1.083   .     S
C692   H739    1.083   .     S
C692   C693    1.386   .     A
C693   H740    1.083   .     S
C694   O826    1.386   .     S
C695   H741    1.083   .     S
C696   H742    1.083   .     S
C697   H743    1.083   .     S
C698   H744    1.083   .     S
C699   H745    1.083   .     S
C700   H746    1.083   .     S
C701   H747    1.083   .     S
C702   C886    1.413   .     S
H748   O817    0.989   .     S
H750   O818    0.989   .     S
H751   O819    0.989   .     S
H752   O820    0.989   .     S
H753   O821    0.989   .     S
H754   O822    0.989   .     S
H755   O823    0.989   .     S
H756   O825    0.989   .     S
H757   O826    0.989   .     S
H758   O827    0.989   .     S
H759   O828    0.989   .     S
H761   O829    0.989   .     S
H762   O830    0.989   .     S
H763   O831    0.989   .     S
H764   O832    0.989   .     S
H765   O833    0.989   .     S
O769   Zn848   1.949   .     S
O769   Zn837   1.949   .     S
O769   Zn840   1.949   .     S
O770   Zn839   1.950   .     S
O770   C74     1.278   1_565 A
O771   Zn842   1.950   .     S
O771   C927    1.278   .     A
O772   Zn841   1.950   .     S
O773   Zn851   1.950   .     S
O774   Zn850   1.950   .     S
O775   Zn845   1.950   .     S
O776   Zn837   1.950   .     S
O777   Zn847   1.950   .     S
O778   Zn846   1.950   .     S
O779   Zn849   1.950   .     S
O780   Zn845   1.949   .     S
O780   Zn849   1.949   .     S
O780   Zn843   1.949   .     S
O781   Zn848   1.950   .     S
O782   Zn840   1.938   .     S
O783   Zn839   1.938   .     S
O784   Zn842   1.937   .     S
O785   Zn841   1.937   .     S
O786   Zn844   1.938   .     S
O787   Zn843   1.938   .     S
O788   Zn838   1.937   .     S
O789   Zn852   1.937   .     S
O790   Zn839   1.937   .     S
O791   Zn1126  1.949   1_455 S
O791   Zn838   1.949   .     S
O791   Zn846   1.949   .     S
O791   Zn850   1.949   .     S
O792   Zn840   1.937   .     S
O793   Zn852   1.938   .     S
O794   Zn838   1.938   .     S
O795   Zn843   1.937   .     S
O796   Zn844   1.937   .     S
O797   Zn841   1.938   .     S
O798   Zn842   1.938   .     S
O799   Zn1131  1.938   .     S
O800   Zn846   1.938   .     S
O801   Zn281   1.937   1_565 S
O802   Zn841   1.949   .     S
O802   Zn847   1.949   .     S
O802   Zn851   1.949   .     S
O802   Zn1136  1.949   1_455 S
O803   Zn848   1.937   .     S
O804   Zn851   1.938   .     S
O805   Zn1134  1.938   .     S
O806   Zn845   1.937   .     S
O807   Zn269   1.937   1_565 S
O808   Zn1130  1.937   .     S
O809   Zn847   1.937   .     S
O810   Zn837   1.938   .     S
O811   Zn277   1.938   1_565 S
O812   Zn850   1.937   .     S
O813   Zn844   1.950   .     S
O813   C73     1.278   1_565 S
O814   Zn1135  1.937   .     S
O815   Zn280   1.938   1_565 S
O816   Zn849   1.938   .     S
O824   Zn843   1.950   .     S
O834   Zn838   1.950   .     S
O835   Zn852   1.950   .     S
O835   C928    1.278   .     A
O836   Zn840   1.950   .     S
Zn839  O212    1.949   1_565 S
Zn842  O1075   1.949   .     S
Zn844  O201    1.949   1_565 S
Zn846  O1092   1.937   1_455 S
Zn847  O1083   1.938   1_455 S
Zn850  O1089   1.938   1_455 S
Zn851  O1098   1.937   1_455 S
Zn852  O1086   1.949   .     S
C853   O1101   1.386   .     S
C853   C856    1.401   .     A
C853   C898    1.417   .     A
C854   O1111   1.386   .     S
C854   C866    1.401   .     A
C854   C336    1.417   1_565 A
C855   C322    1.413   1_565 A
C855   C910    1.404   .     A
C855   C967    1.401   .     A
C856   C911    1.404   .     A
C856   C886    1.413   .     A
C857   C901    1.401   .     A
C857   C913    1.404   .     A
C857   C604    1.413   1_655 S
C858   C912    1.401   .     A
C858   C914    1.404   .     A
C858   C321    1.413   1_565 S
C859   C915    1.404   .     A
C859   C923    1.401   .     A
C859   C890    1.413   .     S
C860   C887    1.401   .     A
C860   C323    1.413   1_565 A
C860   C916    1.404   .     A
C861   C895    1.401   .     A
C861   C917    1.404   .     A
C861   C892    1.413   .     S
C862   C918    1.404   .     A
C862   C896    1.401   .     A
C862   C893    1.413   .     S
C863   C610    1.413   1_655 A
C863   C919    1.404   .     A
C863   C897    1.401   .     A
C864   C920    1.404   .     A
C864   C978    1.401   .     A
C864   C891    1.413   .     S
C865   O1112   1.386   .     S
C865   C621    1.417   1_655 A
C865   C867    1.401   .     A
C866   C921    1.404   .     A
C866   C324    1.413   1_565 A
C867   C609    1.413   1_655 A
C867   C922    1.404   .     A
C868   C924    1.404   .     A
C868   C876    1.401   .     A
C868   C894    1.413   .     S
C869   C940    1.456   .     S
C869   C970    1.402   .     A
C869   C968    1.402   .     A
C870   C966    1.402   .     A
C870   C941    1.456   .     S
C870   C969    1.402   .     A
C871   C972    1.402   .     A
C871   C965    1.402   .     A
C871   C933    1.456   .     S
C872   C964    1.402   .     A
C872   C935    1.456   .     S
C872   C971    1.402   .     A
C873   C974    1.402   .     A
C873   C963    1.402   .     A
C873   C936    1.456   .     S
C874   C937    1.456   .     S
C874   C962    1.402   .     A
C874   C973    1.402   .     A
C875   C938    1.456   .     S
C875   C961    1.402   .     A
C875   C976    1.402   .     A
C876   C906    1.417   .     A
C876   O1113   1.386   .     S
C877   C939    1.456   .     S
C877   C960    1.402   .     A
C877   C975    1.402   .     A
C878   C959    1.402   .     A
C878   C979    1.402   .     A
C878   C949    1.456   .     S
C879   C950    1.456   .     S
C879   C977    1.402   .     A
C879   C958    1.402   .     A
C880   C957    1.402   .     A
C880   C981    1.402   .     A
C880   C942    1.456   .     S
C881   C955    1.402   .     A
C881   C980    1.402   .     A
C881   C943    1.456   .     S
C882   C983    1.402   .     A
C882   C944    1.456   .     S
C882   C954    1.402   .     A
C883   C953    1.402   .     A
C883   C982    1.402   .     A
C883   C946    1.456   .     S
C884   C985    1.402   .     A
C884   C952    1.402   .     A
C884   C947    1.456   .     S
C885   C951    1.402   .     A
C885   C984    1.402   .     A
C885   C948    1.456   .     S
C886   C888    1.413   .     A
C887   O1114   1.386   .     S
C887   C335    1.417   1_565 A
C888   C987    1.413   .     A
C889   C988    1.413   .     A
C889   C890    1.413   .     S
C891   C892    1.413   1_556 S
C892   C891    1.413   1_554 S
C893   C894    1.413   1_556 S
C894   C893    1.413   1_554 S
C895   O1115   1.386   .     S
C895   C904    1.417   .     S
C896   O1116   1.386   .     S
C896   C905    1.417   .     S
C897   O1117   1.386   .     S
C897   C622    1.417   1_655 S
C898   C927    1.457   .     S
C899   C928    1.457   .     S
C899   C945    1.417   .     S
C900   C925    1.457   .     S
C900   C956    1.417   .     S
C901   C615    1.417   1_655 A
C901   O1102   1.386   .     S
C902   C923    1.417   .     A
C902   C926    1.457   .     S
C903   C931    1.457   .     S
C903   C978    1.417   .     S
C904   C932    1.457   .     S
C905   C929    1.457   .     S
C906   C930    1.457   .     S
C907   H989    1.083   .     S
C907   C986    1.404   .     A
C907   C913    1.388   .     A
C908   H1000   1.083   .     S
C908   C987    1.404   .     A
C908   C911    1.388   .     A
C909   C988    1.404   .     A
C909   C915    1.388   .     A
C909   H1011   1.083   .     S
C910   C914    1.388   .     A
C910   H1022   1.083   .     S
C911   H1033   1.083   .     S
C912   C332    1.417   1_565 A
C912   O1103   1.386   .     S
C913   H1044   1.083   .     S
C914   H1050   1.083   .     S
C915   H1051   1.083   .     S
C916   H1052   1.083   .     S
C916   C921    1.388   1_556 S
C917   H990    1.083   .     S
C917   C920    1.388   1_554 S
C918   H991    1.083   .     S
C918   C924    1.388   1_556 S
C919   H992    1.083   .     S
C919   C922    1.388   1_554 S
C920   H993    1.083   .     S
C920   C917    1.388   1_556 S
C921   H994    1.083   .     S
C921   C916    1.388   1_554 S
C922   H995    1.083   .     S
C922   C919    1.388   1_556 S
C923   O1104   1.386   .     S
C924   H996    1.083   .     S
C924   C918    1.388   1_554 S
C925   O1120   1.278   .     A
C926   O1108   1.278   .     S
C927   O1118   1.278   .     S
C928   O1056   1.278   .     S
C929   O1061   1.278   .     A
C929   O1057   1.278   .     S
C930   O1062   1.278   .     A
C930   O1058   1.278   .     S
C931   O1059   1.278   .     S
C931   O1063   1.278   .     S
C932   O1060   1.278   .     S
C932   O1065   1.278   .     S
C933   O1094   1.282   .     A
C933   O1066   1.282   .     A
C934   C986    1.401   .     A
C934   O1105   1.386   .     S
C934   C614    1.417   1_655 S
C935   O1095   1.282   .     A
C935   O1067   1.282   .     A
C936   O1068   1.282   .     A
C936   O1092   1.282   .     A
C937   O1069   1.282   .     A
C937   O1093   1.282   .     A
C938   O1099   1.282   .     A
C938   O1070   1.282   .     A
C939   O1100   1.282   .     A
C939   O1071   1.282   .     A
C940   O1072   1.282   .     A
C940   O1096   1.282   .     A
C941   O1098   1.282   .     A
C941   O1073   1.282   .     A
C942   O1074   1.282   .     A
C942   O1085   1.282   .     A
C943   O1087   1.282   .     A
C943   O1076   1.282   .     A
C944   O1083   1.282   .     A
C944   O1077   1.282   .     A
C945   O1106   1.386   .     S
C945   C987    1.401   .     A
C946   O1084   1.282   .     A
C946   O1078   1.282   .     A
C947   O1090   1.282   .     A
C947   O1079   1.282   .     A
C948   O1080   1.282   .     A
C948   O1091   1.282   .     A
C949   O1081   1.282   .     A
C949   O1088   1.282   .     A
C950   O1082   1.282   .     A
C950   O1089   1.282   .     A
C951   H997    1.083   .     S
C951   C968    1.386   .     A
C952   H998    1.083   .     S
C952   C966    1.386   .     A
C953   C965    1.386   .     A
C953   H999    1.083   .     S
C954   C964    1.386   .     A
C954   H1001   1.083   .     S
C955   C963    1.386   .     A
C955   H1002   1.083   .     S
C956   C988    1.401   .     A
C956   O1107   1.386   .     S
C957   C962    1.386   .     A
C957   H1003   1.083   .     S
C958   H1004   1.083   .     S
C958   C961    1.386   .     A
C959   C960    1.386   .     A
C959   H1005   1.083   .     S
C960   H1006   1.083   .     S
C961   H1007   1.083   .     S
C962   H1008   1.083   .     S
C963   H1009   1.083   .     S
C964   H1010   1.083   .     S
C965   H1012   1.083   .     S
C966   H1013   1.083   .     S
C967   O1109   1.386   .     S
C967   C334    1.417   1_565 S
C968   H1014   1.083   .     S
C969   C985    1.386   .     A
C969   H1015   1.083   .     S
C970   H1016   1.083   .     S
C970   C984    1.386   .     A
C971   C983    1.386   .     A
C971   H1017   1.083   .     S
C972   H1018   1.083   .     S
C972   C982    1.386   .     A
C973   H1019   1.083   .     S
C973   C981    1.386   .     A
C974   C980    1.386   .     A
C974   H1020   1.083   .     S
C975   C979    1.386   .     A
C975   H1021   1.083   .     S
C976   H1023   1.083   .     S
C976   C977    1.386   .     A
C977   H1024   1.083   .     S
C978   O1110   1.386   .     S
C979   H1025   1.083   .     S
C980   H1026   1.083   .     S
C981   H1027   1.083   .     S
C982   H1028   1.083   .     S
C983   H1029   1.083   .     S
C984   H1030   1.083   .     S
C985   H1031   1.083   .     S
C986   C602    1.413   1_655 S
H1032  O1101   0.989   .     S
H1034  O1102   0.989   .     S
H1035  O1103   0.989   .     S
H1036  O1104   0.989   .     S
H1037  O1105   0.989   .     S
H1038  O1106   0.989   .     S
H1039  O1107   0.989   .     S
H1040  O1109   0.989   .     S
H1041  O1110   0.989   .     S
H1042  O1111   0.989   .     S
H1043  O1112   0.989   .     S
H1045  O1113   0.989   .     S
H1046  O1114   0.989   .     S
H1047  O1115   0.989   .     S
H1048  O1116   0.989   .     S
H1049  O1117   0.989   .     S
O1053  Zn1132  1.949   .     S
O1053  Zn1121  1.949   .     S
O1053  Zn1124  1.949   .     S
O1054  Zn1123  1.950   .     S
O1054  C358    1.278   1_565 A
O1055  Zn1126  1.950   .     S
O1055  C643    1.278   1_655 A
O1056  Zn1125  1.950   .     S
O1057  Zn1135  1.950   .     S
O1058  Zn1134  1.950   .     S
O1059  Zn1129  1.950   .     S
O1060  Zn1121  1.950   .     S
O1061  Zn1131  1.950   .     S
O1062  Zn1130  1.950   .     S
O1063  Zn1133  1.950   .     S
O1064  Zn1129  1.949   .     S
O1064  Zn1133  1.949   .     S
O1064  Zn1127  1.949   .     S
O1065  Zn1132  1.950   .     S
O1066  Zn1124  1.938   .     S
O1067  Zn1123  1.938   .     S
O1068  Zn1126  1.937   .     S
O1069  Zn1125  1.937   .     S
O1070  Zn1128  1.938   .     S
O1071  Zn1127  1.938   .     S
O1072  Zn1122  1.937   .     S
O1073  Zn1136  1.937   .     S
O1074  Zn1123  1.937   .     S
O1075  Zn1122  1.949   .     S
O1075  Zn1130  1.949   .     S
O1075  Zn1134  1.949   .     S
O1076  Zn1124  1.937   .     S
O1077  Zn1136  1.938   .     S
O1078  Zn1122  1.938   .     S
O1079  Zn1127  1.937   .     S
O1080  Zn1128  1.937   .     S
O1081  Zn1125  1.938   .     S
O1082  Zn1126  1.938   .     S
O1083  Zn847   1.938   1_655 S
O1084  Zn1130  1.938   .     S
O1085  Zn565   1.937   1_565 S
O1086  Zn1125  1.949   .     S
O1086  Zn1131  1.949   .     S
O1086  Zn1135  1.949   .     S
O1087  Zn1132  1.937   .     S
O1088  Zn1135  1.938   .     S
O1089  Zn850   1.938   1_655 S
O1090  Zn1129  1.937   .     S
O1091  Zn553   1.937   1_565 S
O1092  Zn846   1.937   1_655 S
O1093  Zn1131  1.937   .     S
O1094  Zn1121  1.938   .     S
O1095  Zn561   1.938   1_565 S
O1096  Zn1134  1.937   .     S
O1097  Zn1128  1.950   .     S
O1097  C357    1.278   1_565 S
O1098  Zn851   1.937   1_655 S
O1099  Zn564   1.938   1_565 S
O1100  Zn1133  1.938   .     S
O1108  Zn1127  1.950   .     S
O1118  Zn1122  1.950   .     S
O1119  Zn1136  1.950   .     S
O1119  C644    1.278   1_655 A
O1120  Zn1124  1.950   .     S
Zn1123 O496    1.949   1_565 S
Zn1126 O791    1.949   1_655 S
Zn1128 O485    1.949   1_565 S
Zn1136 O802    1.949   1_655 S
