data_str_m1_o1_o17_pcu_sym.33
_audit_creation_date              2020-01-03
_audit_creation_method            'Materials Studio'
_symmetry_space_group_name_H-M    'P1'
_symmetry_Int_Tables_number       1
_symmetry_cell_setting            triclinic
loop_
_symmetry_equiv_pos_as_xyz
  x,y,z
_cell_length_a                    36.5215
_cell_length_b                    36.5223
_cell_length_c                    34.4081
_cell_angle_alpha                 90.0148
_cell_angle_beta                  89.9831
_cell_angle_gamma                 89.8839
loop_
_atom_site_label
_atom_site_type_symbol
_atom_site_fract_x
_atom_site_fract_y
_atom_site_fract_z
_atom_site_U_iso_or_equiv
_atom_site_adp_type
_atom_site_occupancy
Br1    Br    0.03349   0.14047   0.45417   0.00000  Uiso   1.00
Br2    Br    0.18133   0.09053   0.04682   0.00000  Uiso   1.00
Br3    Br    0.11209   0.23330   0.95288   0.00000  Uiso   1.00
Br4    Br    0.39049   0.28368   0.04577   0.00000  Uiso   1.00
Br5    Br    0.17032   0.08205   0.95324   0.00000  Uiso   1.00
Br6    Br    0.32133   0.41186   0.04633   0.00000  Uiso   1.00
Br7    Br    0.38807   0.26747   0.95289   0.00000  Uiso   1.00
Br8    Br    0.10961   0.21659   0.04569   0.00000  Uiso   1.00
Br9    Br    0.10153   0.46252   0.26426   0.00000  Uiso   1.00
Br10   Br    0.39654   0.03901   0.72558   0.00000  Uiso   1.00
Br11   Br    0.07660   0.14120   0.33076   0.00000  Uiso   1.00
Br12   Br    0.48346   0.36211   0.54715   0.00000  Uiso   1.00
Br13   Br    0.43572   0.37080   0.67750   0.00000  Uiso   1.00
Br14   Br    0.39846   0.03748   0.26427   0.00000  Uiso   1.00
Br15   Br    0.16611   0.39765   0.83325   0.00000  Uiso   1.00
Br16   Br    0.42334   0.35883   0.33076   0.00000  Uiso   1.00
Br17   Br    0.06444   0.12923   0.67736   0.00000  Uiso   1.00
Br18   Br    0.13049   0.06612   0.67618   0.00000  Uiso   1.00
Br19   Br    0.35827   0.42273   0.33103   0.00000  Uiso   1.00
Br20   Br    0.10370   0.33207   0.83286   0.00000  Uiso   1.00
Br21   Br    0.46280   0.10112   0.26170   0.00000  Uiso   1.00
Br22   Br    0.36958   0.43380   0.67616   0.00000  Uiso   1.00
Br23   Br    0.34030   0.43103   0.45317   0.00000  Uiso   1.00
Br24   Br    0.14172   0.07735   0.33105   0.00000  Uiso   1.00
Br25   Br    0.46095   0.10338   0.72562   0.00000  Uiso   1.00
Br26   Br    0.03719   0.39890   0.26164   0.00000  Uiso   1.00
Br27   Br    0.35338   0.21095   0.77439   0.00000  Uiso   1.00
Br28   Br    0.14890   0.28719   0.23839   0.00000  Uiso   1.00
Br29   Br    0.31614   0.38051   0.82385   0.00000  Uiso   1.00
Br30   Br    0.17273   0.10827   0.16897   0.00000  Uiso   1.00
Br31   Br    0.08208   0.35371   0.66714   0.00000  Uiso   1.00
Br32   Br    0.35110   0.21280   0.23836   0.00000  Uiso   1.00
Br33   Br    0.18381   0.11959   0.82384   0.00000  Uiso   1.00
Br34   Br    0.17327   0.08439   0.54686   0.00000  Uiso   1.00
Br35   Br    0.32735   0.39172   0.16894   0.00000  Uiso   1.00
Br36   Br    0.39120   0.32661   0.16924   0.00000  Uiso   1.00
Br37   Br    0.12080   0.18573   0.82250   0.00000  Uiso   1.00
Br38   Br    0.28748   0.14846   0.23572   0.00000  Uiso   1.00
Br39   Br    0.14764   0.41613   0.66675   0.00000  Uiso   1.00
Br40   Br    0.10884   0.17334   0.16924   0.00000  Uiso   1.00
Br41   Br    0.37926   0.31447   0.82267   0.00000  Uiso   1.00
Br42   Br    0.21253   0.35153   0.23574   0.00000  Uiso   1.00
Br43   Br    0.28900   0.14654   0.77441   0.00000  Uiso   1.00
Br44   Br    0.46686   0.35971   0.45432   0.00000  Uiso   1.00
Br45   Br    0.01739   0.13806   0.54708   0.00000  Uiso   1.00
Br46   Br    0.16205   0.07157   0.45366   0.00000  Uiso   1.00
Br47   Br    0.33189   0.42017   0.54677   0.00000  Uiso   1.00
Br48   Br    0.33429   0.42317   0.95316   0.00000  Uiso   1.00
C49    C     0.49751   0.28327   0.41785   0.00000  Uiso   1.00
C50    C     0.27868   0.48272   0.08065   0.00000  Uiso   1.00
C51    C     0.22488   0.02250   0.54152   0.00000  Uiso   1.00
C52    C     0.49352   0.28333   0.45872   0.00000  Uiso   1.00
C53    C     0.01036   0.21796   0.54080   0.00000  Uiso   1.00
C54    C     0.22782   0.02531   0.45976   0.00000  Uiso   1.00
C55    C     0.27725   0.47955   0.54161   0.00000  Uiso   1.00
C56    C     0.27246   0.47485   0.95848   0.00000  Uiso   1.00
C57    C     0.22634   0.02403   0.04023   0.00000  Uiso   1.00
C58    C     0.03216   0.23990   0.95918   0.00000  Uiso   1.00
C59    C     0.46677   0.25673   0.04130   0.00000  Uiso   1.00
C60    C     0.22961   0.02730   0.95838   0.00000  Uiso   1.00
C61    C     0.47050   0.26547   0.91862   0.00000  Uiso   1.00
C62    C     0.27526   0.47777   0.04025   0.00000  Uiso   1.00
C63    C     0.46796   0.26039   0.95919   0.00000  Uiso   1.00
C64    C     0.03329   0.24342   0.04129   0.00000  Uiso   1.00
C65    C     0.09808   0.34808   0.25000   0.00000  Uiso   1.00
C66    C     0.40191   0.15191   0.75000   0.00000  Uiso   1.00
C67    C     0.15193   0.09809   0.25001   0.00000  Uiso   1.00
C68    C     0.34812   0.40188   0.75000   0.00000  Uiso   1.00
C69    C     0.40191   0.15192   0.25000   0.00000  Uiso   1.00
C70    C     0.09804   0.34804   0.75000   0.00000  Uiso   1.00
C71    C     0.34809   0.40193   0.24999   0.00000  Uiso   1.00
C72    C     0.03323   0.24741   0.08215   0.00000  Uiso   1.00
C73    C     0.15188   0.09812   0.75001   0.00000  Uiso   1.00
C74    C     0.09801   0.15199   0.74998   0.00000  Uiso   1.00
C75    C     0.40193   0.34805   0.25000   0.00000  Uiso   1.00
C76    C     0.15187   0.40188   0.75000   0.00000  Uiso   1.00
C77    C     0.34809   0.09809   0.25000   0.00000  Uiso   1.00
C78    C     0.40199   0.34801   0.75003   0.00000  Uiso   1.00
C79    C     0.09805   0.15194   0.25000   0.00000  Uiso   1.00
C80    C     0.34807   0.09807   0.75000   0.00000  Uiso   1.00
C81    C     0.15191   0.40191   0.25000   0.00000  Uiso   1.00
C82    C     0.00011   0.25006   0.47922   0.00000  Uiso   1.00
C83    C     0.26793   0.47206   0.91801   0.00000  Uiso   1.00
C84    C     0.00014   0.25007   0.52021   0.00000  Uiso   1.00
C85    C     0.25095   0.00086   0.48027   0.00000  Uiso   1.00
C86    C     0.25102   0.00095   0.52111   0.00000  Uiso   1.00
C87    C     0.25095   0.00104   0.97889   0.00000  Uiso   1.00
C88    C     0.25087   0.00097   0.01973   0.00000  Uiso   1.00
C89    C     0.00005   0.25012   0.97979   0.00000  Uiso   1.00
C90    C     0.00004   0.25009   0.02078   0.00000  Uiso   1.00
C91    C     0.03605   0.32667   0.39434   0.00000  Uiso   1.00
C92    C     0.03898   0.35858   0.36583   0.00000  Uiso   1.00
C93    C     0.07853   0.37144   0.36156   0.00000  Uiso   1.00
C94    C     0.22227   0.01849   0.08052   0.00000  Uiso   1.00
C95    C     0.07233   0.20537   0.60490   0.00000  Uiso   1.00
C96    C     0.09701   0.18035   0.58062   0.00000  Uiso   1.00
C97    C     0.13740   0.18894   0.58725   0.00000  Uiso   1.00
C98    C     0.24915   0.08547   0.39662   0.00000  Uiso   1.00
C99    C     0.24744   0.11381   0.42940   0.00000  Uiso   1.00
C100   C     0.27641   0.14342   0.42398   0.00000  Uiso   1.00
C101   C     0.33176   0.00384   0.61179   0.00000  Uiso   1.00
C102   C     0.36790   0.00191   0.58942   0.00000  Uiso   1.00
C103   C     0.39333   0.03327   0.60067   0.00000  Uiso   1.00
C104   C     0.46397   0.17339   0.39446   0.00000  Uiso   1.00
C105   C     0.02966   0.23478   0.91860   0.00000  Uiso   1.00
C106   C     0.46097   0.14151   0.36590   0.00000  Uiso   1.00
C107   C     0.42141   0.12869   0.36170   0.00000  Uiso   1.00
C108   C     0.42796   0.29518   0.60474   0.00000  Uiso   1.00
C109   C     0.40353   0.32091   0.58103   0.00000  Uiso   1.00
C110   C     0.36305   0.31284   0.58775   0.00000  Uiso   1.00
C111   C     0.25252   0.41503   0.39764   0.00000  Uiso   1.00
C112   C     0.25477   0.38732   0.43098   0.00000  Uiso   1.00
C113   C     0.22616   0.35724   0.42636   0.00000  Uiso   1.00
C114   C     0.16729   0.49891   0.60746   0.00000  Uiso   1.00
C115   C     0.13248   0.00438   0.58339   0.00000  Uiso   1.00
C116   C     0.46679   0.25264   0.08215   0.00000  Uiso   1.00
C117   C     0.10451   0.47430   0.59120   0.00000  Uiso   1.00
C118   C     0.25393   0.08174   0.88814   0.00000  Uiso   1.00
C119   C     0.25210   0.11788   0.91054   0.00000  Uiso   1.00
C120   C     0.28350   0.14326   0.89926   0.00000  Uiso   1.00
C121   C     0.33548   0.49888   0.10339   0.00000  Uiso   1.00
C122   C     0.36392   0.49695   0.07071   0.00000  Uiso   1.00
C123   C     0.39361   0.02584   0.07612   0.00000  Uiso   1.00
C124   C     0.45544   0.32238   0.89512   0.00000  Uiso   1.00
C125   C     0.43037   0.34707   0.91935   0.00000  Uiso   1.00
C126   C     0.43899   0.38746   0.91275   0.00000  Uiso   1.00
C127   C    -0.00000   0.25003   0.39802   0.00000  Uiso   1.00
C128   C     0.07672   0.28587   0.10564   0.00000  Uiso   1.00
C129   C     0.10862   0.28875   0.13417   0.00000  Uiso   1.00
C130   C     0.12156   0.32828   0.13840   0.00000  Uiso   1.00
C131   C     0.24884   0.41729   0.89254   0.00000  Uiso   1.00
C132   C     0.25425   0.38249   0.91665   0.00000  Uiso   1.00
C133   C     0.22415   0.35455   0.90885   0.00000  Uiso   1.00
C134   C     0.16503   0.00285   0.10237   0.00000  Uiso   1.00
C135   C     0.13709   0.00551   0.06928   0.00000  Uiso   1.00
C136   C     0.10693   0.47698   0.07387   0.00000  Uiso   1.00
C137   C     0.04512   0.17790   0.89524   0.00000  Uiso   1.00
C138   C     0.00006   0.25004   0.60162   0.00000  Uiso   1.00
C139   C     0.07084   0.15344   0.91892   0.00000  Uiso   1.00
C140   C     0.06275   0.11297   0.91218   0.00000  Uiso   1.00
C141   C     0.42325   0.21429   0.10575   0.00000  Uiso   1.00
C142   C     0.39079   0.21166   0.13360   0.00000  Uiso   1.00
C143   C     0.37812   0.17211   0.13843   0.00000  Uiso   1.00
C144   C     0.25031   0.00023   0.39885   0.00000  Uiso   1.00
C145   C     0.01544   0.22048   0.58138   0.00000  Uiso   1.00
C146   C     0.25022   0.00022   0.60209   0.00000  Uiso   1.00
C147   C     0.25022   0.00022   0.89791   0.00000  Uiso   1.00
C148   C     0.25024   0.00032   0.10116   0.00000  Uiso   1.00
C149   C     0.00005   0.25005   0.89838   0.00000  Uiso   1.00
C150   C    -0.00000   0.24999   0.10198   0.00000  Uiso   1.00
C151   C     0.01593   0.18456   0.47960   0.00000  Uiso   1.00
C152   C     0.48445   0.31534   0.52043   0.00000  Uiso   1.00
C153   C     0.30063   0.45568   0.48011   0.00000  Uiso   1.00
C154   C     0.20155   0.04662   0.52088   0.00000  Uiso   1.00
C155   C     0.48440   0.31558   0.47966   0.00000  Uiso   1.00
C156   C     0.23279   0.02872   0.41935   0.00000  Uiso   1.00
C157   C     0.01599   0.18483   0.52038   0.00000  Uiso   1.00
C158   C     0.20175   0.04662   0.48017   0.00000  Uiso   1.00
C159   C     0.30134   0.45616   0.52087   0.00000  Uiso   1.00
C160   C     0.29653   0.45148   0.97913   0.00000  Uiso   1.00
C161   C     0.20582   0.05076   0.01989   0.00000  Uiso   1.00
C162   C     0.06530   0.23432   0.97958   0.00000  Uiso   1.00
C163   C     0.43456   0.26603   0.02038   0.00000  Uiso   1.00
C164   C     0.20628   0.05145   0.97913   0.00000  Uiso   1.00
C165   C     0.29651   0.45165   0.01983   0.00000  Uiso   1.00
C166   C     0.43484   0.26606   0.97960   0.00000  Uiso   1.00
C167   C     0.27920   0.48349   0.58228   0.00000  Uiso   1.00
C168   C     0.06553   0.23424   0.02035   0.00000  Uiso   1.00
C169   C     0.25005   0.00003   0.35611   0.00000  Uiso   1.00
C170   C     0.24986   0.00002   0.64425   0.00000  Uiso   1.00
C171   C    -0.00000   0.25001   0.35578   0.00000  Uiso   1.00
C172   C     0.00001   0.25002   0.64407   0.00000  Uiso   1.00
C173   C     0.00002   0.25001   0.85593   0.00000  Uiso   1.00
C174   C     0.49999   0.25000   0.14422   0.00000  Uiso   1.00
C175   C     0.25002   0.49986   0.85575   0.00000  Uiso   1.00
C176   C     0.25003   0.00006   0.14389   0.00000  Uiso   1.00
C177   C     0.17999   0.07002   0.25000   0.00000  Uiso   1.00
C178   C     0.00255   0.21681   0.41785   0.00000  Uiso   1.00
C179   C     0.32003   0.42998   0.74999   0.00000  Uiso   1.00
C180   C     0.42997   0.17997   0.25000   0.00000  Uiso   1.00
C181   C     0.07001   0.32001   0.75000   0.00000  Uiso   1.00
C182   C     0.32002   0.42999   0.25000   0.00000  Uiso   1.00
C183   C     0.17998   0.07003   0.75001   0.00000  Uiso   1.00
C184   C     0.07003   0.32003   0.25000   0.00000  Uiso   1.00
C185   C     0.42998   0.17998   0.75000   0.00000  Uiso   1.00
C186   C     0.17996   0.42996   0.75000   0.00000  Uiso   1.00
C187   C     0.32003   0.07003   0.25000   0.00000  Uiso   1.00
C188   C     0.43001   0.31998   0.75002   0.00000  Uiso   1.00
C189   C     0.48482   0.27968   0.58140   0.00000  Uiso   1.00
C190   C     0.07000   0.17999   0.25000   0.00000  Uiso   1.00
C191   C     0.32002   0.07002   0.75000   0.00000  Uiso   1.00
C192   C     0.17998   0.42997   0.25000   0.00000  Uiso   1.00
C193   C     0.06998   0.18001   0.74998   0.00000  Uiso   1.00
C194   C     0.42999   0.32000   0.25000   0.00000  Uiso   1.00
C195   C     0.11499   0.41204   0.25481   0.00000  Uiso   1.00
C196   C     0.38432   0.08860   0.74042   0.00000  Uiso   1.00
C197   C     0.10521   0.13235   0.28437   0.00000  Uiso   1.00
C198   C     0.40006   0.37279   0.71888   0.00000  Uiso   1.00
C199   C     0.38501   0.08796   0.25482   0.00000  Uiso   1.00
C200   C     0.26839   0.47221   0.41948   0.00000  Uiso   1.00
C201   C     0.14198   0.38490   0.78519   0.00000  Uiso   1.00
C202   C     0.39477   0.36767   0.28437   0.00000  Uiso   1.00
C203   C     0.09998   0.12720   0.71884   0.00000  Uiso   1.00
C204   C     0.12732   0.10036   0.71866   0.00000  Uiso   1.00
C205   C     0.36759   0.39465   0.28441   0.00000  Uiso   1.00
C206   C     0.11523   0.35762   0.78514   0.00000  Uiso   1.00
C207   C     0.41208   0.11493   0.25436   0.00000  Uiso   1.00
C208   C     0.37271   0.39962   0.71867   0.00000  Uiso   1.00
C209   C     0.13240   0.10538   0.28442   0.00000  Uiso   1.00
C210   C     0.41137   0.11565   0.74043   0.00000  Uiso   1.00
C211   C     0.22208   0.01796   0.58200   0.00000  Uiso   1.00
C212   C     0.08791   0.38507   0.25434   0.00000  Uiso   1.00
C213   C     0.36565   0.16137   0.75957   0.00000  Uiso   1.00
C214   C     0.13508   0.33791   0.24566   0.00000  Uiso   1.00
C215   C     0.35037   0.37733   0.78135   0.00000  Uiso   1.00
C216   C     0.14465   0.11759   0.21559   0.00000  Uiso   1.00
C217   C     0.10762   0.36524   0.71486   0.00000  Uiso   1.00
C218   C     0.36493   0.16208   0.24564   0.00000  Uiso   1.00
C219   C     0.14962   0.12272   0.78133   0.00000  Uiso   1.00
C220   C     0.35538   0.38241   0.21558   0.00000  Uiso   1.00
C221   C     0.38235   0.35521   0.21563   0.00000  Uiso   1.00
C222   C     0.23354   0.02923   0.91772   0.00000  Uiso   1.00
C223   C     0.12279   0.15006   0.78112   0.00000  Uiso   1.00
C224   C     0.33796   0.13501   0.24517   0.00000  Uiso   1.00
C225   C     0.13490   0.39199   0.71480   0.00000  Uiso   1.00
C226   C     0.11767   0.14477   0.21563   0.00000  Uiso   1.00
C227   C     0.37721   0.34999   0.78118   0.00000  Uiso   1.00
C228   C     0.16204   0.36499   0.24519   0.00000  Uiso   1.00
C229   C     0.33860   0.13432   0.75958   0.00000  Uiso   1.00
C230   C     0.00667   0.21678   0.45870   0.00000  Uiso   1.00
C231   C     0.48997   0.28219   0.54083   0.00000  Uiso   1.00
C232   C     0.27395   0.47627   0.45978   0.00000  Uiso   1.00
H233   H     0.05425   0.30417   0.38391   0.00000  Uiso   1.00
H234   H     0.09193   0.15132   0.58861   0.00000  Uiso   1.00
H235   H     0.01618   0.17242   0.90412   0.00000  Uiso   1.00
H236   H     0.09968   0.15898   0.91048   0.00000  Uiso   1.00
H237   H     0.06754   0.15964   0.95034   0.00000  Uiso   1.00
H238   H     0.06685   0.10584   0.88109   0.00000  Uiso   1.00
H239   H     0.03413   0.10659   0.92071   0.00000  Uiso   1.00
H240   H     0.08161   0.09604   0.93003   0.00000  Uiso   1.00
H241   H     0.44555   0.19620   0.11684   0.00000  Uiso   1.00
H242   H     0.41458   0.20439   0.07654   0.00000  Uiso   1.00
H243   H     0.39888   0.22270   0.16246   0.00000  Uiso   1.00
H244   H     0.36773   0.22843   0.12225   0.00000  Uiso   1.00
H245   H     0.09061   0.18403   0.54930   0.00000  Uiso   1.00
H246   H     0.40007   0.15540   0.15211   0.00000  Uiso   1.00
H247   H     0.37090   0.16011   0.10978   0.00000  Uiso   1.00
H248   H     0.35354   0.17128   0.15737   0.00000  Uiso   1.00
H249   H     0.14476   0.18443   0.61821   0.00000  Uiso   1.00
H250   H     0.14331   0.21779   0.57923   0.00000  Uiso   1.00
H251   H     0.15451   0.17064   0.56892   0.00000  Uiso   1.00
H252   H     0.24550   0.10001   0.36851   0.00000  Uiso   1.00
H253   H     0.27700   0.07275   0.39559   0.00000  Uiso   1.00
H254   H     0.21995   0.12690   0.42979   0.00000  Uiso   1.00
H255   H     0.25216   0.10019   0.45780   0.00000  Uiso   1.00
H256   H     0.27202   0.15810   0.39609   0.00000  Uiso   1.00
H257   H     0.04565   0.33588   0.42347   0.00000  Uiso   1.00
H258   H     0.30424   0.13109   0.42410   0.00000  Uiso   1.00
H259   H     0.27453   0.16350   0.44815   0.00000  Uiso   1.00
H260   H     0.33760   0.00339   0.64346   0.00000  Uiso   1.00
H261   H     0.31835   0.03080   0.60574   0.00000  Uiso   1.00
H262   H     0.38181   0.47547   0.59566   0.00000  Uiso   1.00
H263   H     0.36223   0.00338   0.55773   0.00000  Uiso   1.00
H264   H     0.40004   0.03187   0.63211   0.00000  Uiso   1.00
H265   H     0.38022   0.06005   0.59421   0.00000  Uiso   1.00
H266   H     0.41916   0.03119   0.58378   0.00000  Uiso   1.00
H267   H     0.44574   0.19590   0.38412   0.00000  Uiso   1.00
H268   H     0.02857   0.34982   0.33694   0.00000  Uiso   1.00
H269   H     0.45444   0.16415   0.42360   0.00000  Uiso   1.00
H270   H     0.47135   0.15030   0.33700   0.00000  Uiso   1.00
H271   H     0.47812   0.11832   0.37629   0.00000  Uiso   1.00
H272   H     0.40423   0.15086   0.34914   0.00000  Uiso   1.00
H273   H     0.41014   0.12057   0.39041   0.00000  Uiso   1.00
H274   H     0.42031   0.10462   0.34203   0.00000  Uiso   1.00
H275   H     0.41996   0.29738   0.63581   0.00000  Uiso   1.00
H276   H     0.42246   0.26624   0.59588   0.00000  Uiso   1.00
H277   H     0.40908   0.34974   0.58946   0.00000  Uiso   1.00
H278   H     0.40974   0.31758   0.54962   0.00000  Uiso   1.00
H279   H     0.02183   0.38175   0.37630   0.00000  Uiso   1.00
H280   H     0.35590   0.31697   0.61883   0.00000  Uiso   1.00
H281   H     0.35666   0.28421   0.57925   0.00000  Uiso   1.00
H282   H     0.34613   0.33169   0.56987   0.00000  Uiso   1.00
H283   H     0.25619   0.40004   0.36980   0.00000  Uiso   1.00
H284   H     0.22452   0.42740   0.39654   0.00000  Uiso   1.00
H285   H     0.28242   0.37460   0.43145   0.00000  Uiso   1.00
H286   H     0.25001   0.40141   0.45913   0.00000  Uiso   1.00
H287   H     0.23061   0.34209   0.39876   0.00000  Uiso   1.00
H288   H     0.19817   0.36922   0.42638   0.00000  Uiso   1.00
H289   H     0.22840   0.33766   0.45093   0.00000  Uiso   1.00
H290   H     0.09571   0.34929   0.34894   0.00000  Uiso   1.00
H291   H     0.15984   0.49779   0.63871   0.00000  Uiso   1.00
H292   H     0.17955   0.47165   0.60022   0.00000  Uiso   1.00
H293   H     0.11997   0.03130   0.59058   0.00000  Uiso   1.00
H294   H     0.13959   0.00417   0.55199   0.00000  Uiso   1.00
H295   H     0.09621   0.47454   0.62226   0.00000  Uiso   1.00
H296   H     0.11617   0.44708   0.58374   0.00000  Uiso   1.00
H297   H     0.07981   0.47902   0.57305   0.00000  Uiso   1.00
H298   H     0.25344   0.08761   0.85648   0.00000  Uiso   1.00
H299   H     0.28089   0.06829   0.89414   0.00000  Uiso   1.00
H300   H     0.22568   0.13184   0.90436   0.00000  Uiso   1.00
H301   H     0.08983   0.37955   0.39026   0.00000  Uiso   1.00
H302   H     0.25361   0.11218   0.94223   0.00000  Uiso   1.00
H303   H     0.28205   0.15000   0.86783   0.00000  Uiso   1.00
H304   H     0.31027   0.13008   0.90565   0.00000  Uiso   1.00
H305   H     0.28150   0.16907   0.91618   0.00000  Uiso   1.00
H306   H     0.34992   0.49526   0.13155   0.00000  Uiso   1.00
H307   H     0.32288   0.02678   0.10428   0.00000  Uiso   1.00
H308   H     0.37691   0.46943   0.07048   0.00000  Uiso   1.00
H309   H     0.35040   0.00162   0.04225   0.00000  Uiso   1.00
H310   H     0.40818   0.02152   0.10409   0.00000  Uiso   1.00
H311   H     0.38138   0.05372   0.07582   0.00000  Uiso   1.00
H312   H     0.07957   0.39553   0.34194   0.00000  Uiso   1.00
H313   H     0.41376   0.02380   0.05204   0.00000  Uiso   1.00
H314   H     0.45281   0.33042   0.86412   0.00000  Uiso   1.00
H315   H     0.48459   0.32756   0.90341   0.00000  Uiso   1.00
H316   H     0.40135   0.34200   0.91129   0.00000  Uiso   1.00
H317   H     0.43398   0.34067   0.95067   0.00000  Uiso   1.00
H318   H     0.46782   0.39336   0.92085   0.00000  Uiso   1.00
H319   H     0.42064   0.40457   0.93101   0.00000  Uiso   1.00
H320   H     0.43457   0.39482   0.88177   0.00000  Uiso   1.00
H321   H     0.05425   0.30413   0.11605   0.00000  Uiso   1.00
H322   H     0.08597   0.29543   0.07651   0.00000  Uiso   1.00
H323   H     0.08036   0.20267   0.63590   0.00000  Uiso   1.00
H324   H     0.09981   0.27839   0.16307   0.00000  Uiso   1.00
H325   H     0.13175   0.27154   0.12374   0.00000  Uiso   1.00
H326   H     0.09943   0.34552   0.15097   0.00000  Uiso   1.00
H327   H     0.12973   0.33952   0.10969   0.00000  Uiso   1.00
H328   H     0.14563   0.32929   0.15805   0.00000  Uiso   1.00
H329   H     0.24774   0.40981   0.86129   0.00000  Uiso   1.00
H330   H     0.22158   0.42958   0.89973   0.00000  Uiso   1.00
H331   H     0.28116   0.36994   0.90949   0.00000  Uiso   1.00
H332   H     0.25403   0.38963   0.94804   0.00000  Uiso   1.00
H333   H     0.22440   0.34622   0.87780   0.00000  Uiso   1.00
H334   H     0.07752   0.23454   0.59669   0.00000  Uiso   1.00
H335   H     0.19693   0.36625   0.91627   0.00000  Uiso   1.00
H336   H     0.22882   0.32986   0.92703   0.00000  Uiso   1.00
H337   H     0.15025   0.00640   0.13036   0.00000  Uiso   1.00
H338   H     0.17725   0.47478   0.10313   0.00000  Uiso   1.00
H339   H     0.12448   0.03321   0.06919   0.00000  Uiso   1.00
H340   H     0.15097   0.00095   0.04098   0.00000  Uiso   1.00
H341   H     0.09204   0.48120   0.10167   0.00000  Uiso   1.00
H342   H     0.11879   0.44894   0.07338   0.00000  Uiso   1.00
H343   H     0.08715   0.47957   0.04952   0.00000  Uiso   1.00
H344   H     0.04729   0.16992   0.86417   0.00000  Uiso   1.00
O345   O     0.25000  -0.00000   0.25000   0.00000  Uiso   1.00
O346   O     0.25000   0.46963   0.66245   0.00000  Uiso   1.00
O347   O     0.46963   0.25000   0.33755   0.00000  Uiso   1.00
O348   O     0.03036   0.25000   0.66245   0.00000  Uiso   1.00
O349   O     0.00000   0.21963   0.83755   0.00000  Uiso   1.00
O350   O    -0.00000   0.28036   0.16245   0.00000  Uiso   1.00
O351   O     0.28036  -0.00000   0.83755   0.00000  Uiso   1.00
O352   O     0.21963  -0.00000   0.16245   0.00000  Uiso   1.00
O353   O    -0.00000   0.28036   0.83755   0.00000  Uiso   1.00
O354   O     0.00000   0.21963   0.16245   0.00000  Uiso   1.00
O355   O     0.21963  -0.00000   0.83755   0.00000  Uiso   1.00
O356   O     0.25000  -0.00000   0.75000   0.00000  Uiso   1.00
O357   O     0.28036  -0.00000   0.16245   0.00000  Uiso   1.00
O358   O     0.20724   0.07307   0.27302   0.00000  Uiso   1.00
O359   O     0.29275   0.42692   0.72698   0.00000  Uiso   1.00
O360   O     0.42692   0.20724   0.27302   0.00000  Uiso   1.00
O361   O     0.07307   0.29275   0.72698   0.00000  Uiso   1.00
O362   O     0.29275   0.42692   0.27302   0.00000  Uiso   1.00
O363   O     0.20724   0.07307   0.72698   0.00000  Uiso   1.00
O364   O     0.07307   0.29275   0.27302   0.00000  Uiso   1.00
O365   O     0.42692   0.20724   0.72698   0.00000  Uiso   1.00
O366   O     0.20724   0.42692   0.72698   0.00000  Uiso   1.00
O367   O     0.00000   0.25000   0.25000   0.00000  Uiso   1.00
O368   O     0.29275   0.07307   0.27302   0.00000  Uiso   1.00
O369   O     0.42692   0.29275   0.72698   0.00000  Uiso   1.00
O370   O     0.07307   0.20724   0.27302   0.00000  Uiso   1.00
O371   O     0.29275   0.07307   0.72698   0.00000  Uiso   1.00
O372   O     0.20724   0.42692   0.27302   0.00000  Uiso   1.00
O373   O     0.07307   0.20724   0.72698   0.00000  Uiso   1.00
O374   O     0.42692   0.29275   0.27302   0.00000  Uiso   1.00
O375   O     0.45724   0.32307   0.77302   0.00000  Uiso   1.00
O376   O     0.04275   0.17692   0.22698   0.00000  Uiso   1.00
O377   O     0.17692   0.45724   0.77302   0.00000  Uiso   1.00
O378   O    -0.00000   0.25000   0.75000   0.00000  Uiso   1.00
O379   O     0.32307   0.04275   0.22698   0.00000  Uiso   1.00
O380   O     0.04275   0.17692   0.77302   0.00000  Uiso   1.00
O381   O     0.45724   0.32307   0.22698   0.00000  Uiso   1.00
O382   O     0.32307   0.04275   0.77302   0.00000  Uiso   1.00
O383   O     0.17692   0.45724   0.22698   0.00000  Uiso   1.00
O384   O     0.45724   0.17692   0.22698   0.00000  Uiso   1.00
O385   O     0.04275   0.32307   0.77302   0.00000  Uiso   1.00
O386   O     0.17692   0.04275   0.22698   0.00000  Uiso   1.00
O387   O     0.32307   0.45724   0.77302   0.00000  Uiso   1.00
O388   O     0.04275   0.32307   0.22698   0.00000  Uiso   1.00
O389   O     0.25000   0.46963   0.33755   0.00000  Uiso   1.00
O390   O     0.45724   0.17692   0.77302   0.00000  Uiso   1.00
O391   O     0.32307   0.45724   0.22698   0.00000  Uiso   1.00
O392   O     0.17692   0.04275   0.77302   0.00000  Uiso   1.00
O393   O     0.49911   0.31528   0.39646   0.00000  Uiso   1.00
O394   O     0.03521   0.19425   0.60156   0.00000  Uiso   1.00
O395   O     0.22035   0.05954   0.39987   0.00000  Uiso   1.00
O396   O     0.30998   0.47276   0.60285   0.00000  Uiso   1.00
O397   O     0.00091   0.18478   0.39648   0.00000  Uiso   1.00
O398   O     0.46518   0.30600   0.60160   0.00000  Uiso   1.00
O399   O     0.28100   0.44135   0.40018   0.00000  Uiso   1.00
O400   O     0.25000   0.03036   0.66245   0.00000  Uiso   1.00
O401   O     0.19118   0.02913   0.60211   0.00000  Uiso   1.00
O402   O     0.22283   0.06002   0.89713   0.00000  Uiso   1.00
O403   O     0.30945   0.47017   0.10014   0.00000  Uiso   1.00
O404   O     0.44429   0.28527   0.89843   0.00000  Uiso   1.00
O405   O     0.06525   0.24895   0.10354   0.00000  Uiso   1.00
O406   O     0.27907   0.44115   0.89789   0.00000  Uiso   1.00
O407   O     0.19147   0.03122   0.09984   0.00000  Uiso   1.00
O408   O     0.05597   0.21512   0.89840   0.00000  Uiso   1.00
O409   O     0.43474   0.25119   0.10352   0.00000  Uiso   1.00
O410   O     0.03036   0.25000   0.33755   0.00000  Uiso   1.00
O411   O     0.46963   0.25000   0.66245   0.00000  Uiso   1.00
O412   O     0.25000   0.03036   0.33755   0.00000  Uiso   1.00
Zn413  Zn    0.20659  -0.00000   0.21735   0.00000  Uiso   1.00
Zn414  Zn    0.04340   0.25000   0.28265   0.00000  Uiso   1.00
Zn415  Zn    0.25000   0.45659   0.71735   0.00000  Uiso   1.00
Zn416  Zn    0.25000   0.04340   0.28265   0.00000  Uiso   1.00
Zn417  Zn    0.04340   0.25000   0.71735   0.00000  Uiso   1.00
Zn418  Zn    0.45659   0.25000   0.28265   0.00000  Uiso   1.00
Zn419  Zn    0.25000   0.04340   0.71735   0.00000  Uiso   1.00
Zn420  Zn    0.25000   0.45659   0.28265   0.00000  Uiso   1.00
Zn421  Zn    0.29340  -0.00000   0.78265   0.00000  Uiso   1.00
Zn422  Zn    0.00000   0.20659   0.21735   0.00000  Uiso   1.00
Zn423  Zn    0.00000   0.29340   0.78265   0.00000  Uiso   1.00
Zn424  Zn    0.29340  -0.00000   0.21735   0.00000  Uiso   1.00
Zn425  Zn    0.20659  -0.00000   0.78265   0.00000  Uiso   1.00
Zn426  Zn    0.00000   0.29340   0.21735   0.00000  Uiso   1.00
Zn427  Zn    0.00000   0.20659   0.78265   0.00000  Uiso   1.00
Zn428  Zn    0.45659   0.25000   0.71735   0.00000  Uiso   1.00
Br429  Br    0.53349   0.14047   0.45417   0.00000  Uiso   1.00
Br430  Br    0.68133   0.09053   0.04682   0.00000  Uiso   1.00
Br431  Br    0.61209   0.23330   0.95288   0.00000  Uiso   1.00
Br432  Br    0.89049   0.28368   0.04577   0.00000  Uiso   1.00
Br433  Br    0.67032   0.08205   0.95324   0.00000  Uiso   1.00
Br434  Br    0.82133   0.41186   0.04633   0.00000  Uiso   1.00
Br435  Br    0.88807   0.26747   0.95289   0.00000  Uiso   1.00
Br436  Br    0.60961   0.21659   0.04569   0.00000  Uiso   1.00
Br437  Br    0.60153   0.46252   0.26426   0.00000  Uiso   1.00
Br438  Br    0.89654   0.03901   0.72558   0.00000  Uiso   1.00
Br439  Br    0.57660   0.14120   0.33076   0.00000  Uiso   1.00
Br440  Br    0.98346   0.36211   0.54715   0.00000  Uiso   1.00
Br441  Br    0.93572   0.37080   0.67750   0.00000  Uiso   1.00
Br442  Br    0.89846   0.03748   0.26427   0.00000  Uiso   1.00
Br443  Br    0.66611   0.39765   0.83325   0.00000  Uiso   1.00
Br444  Br    0.92334   0.35883   0.33076   0.00000  Uiso   1.00
Br445  Br    0.56444   0.12923   0.67736   0.00000  Uiso   1.00
Br446  Br    0.63049   0.06612   0.67618   0.00000  Uiso   1.00
Br447  Br    0.85827   0.42273   0.33103   0.00000  Uiso   1.00
Br448  Br    0.60370   0.33207   0.83286   0.00000  Uiso   1.00
Br449  Br    0.96280   0.10112   0.26170   0.00000  Uiso   1.00
Br450  Br    0.86958   0.43380   0.67616   0.00000  Uiso   1.00
Br451  Br    0.84030   0.43103   0.45317   0.00000  Uiso   1.00
Br452  Br    0.64172   0.07735   0.33105   0.00000  Uiso   1.00
Br453  Br    0.96095   0.10338   0.72562   0.00000  Uiso   1.00
Br454  Br    0.53719   0.39890   0.26164   0.00000  Uiso   1.00
Br455  Br    0.85338   0.21095   0.77439   0.00000  Uiso   1.00
Br456  Br    0.64890   0.28719   0.23839   0.00000  Uiso   1.00
Br457  Br    0.81614   0.38051   0.82385   0.00000  Uiso   1.00
Br458  Br    0.67273   0.10827   0.16897   0.00000  Uiso   1.00
Br459  Br    0.58208   0.35371   0.66714   0.00000  Uiso   1.00
Br460  Br    0.85110   0.21280   0.23836   0.00000  Uiso   1.00
Br461  Br    0.68381   0.11959   0.82384   0.00000  Uiso   1.00
Br462  Br    0.67327   0.08439   0.54686   0.00000  Uiso   1.00
Br463  Br    0.82735   0.39172   0.16894   0.00000  Uiso   1.00
Br464  Br    0.89120   0.32661   0.16924   0.00000  Uiso   1.00
Br465  Br    0.62080   0.18573   0.82250   0.00000  Uiso   1.00
Br466  Br    0.78748   0.14846   0.23572   0.00000  Uiso   1.00
Br467  Br    0.64764   0.41613   0.66675   0.00000  Uiso   1.00
Br468  Br    0.60884   0.17334   0.16924   0.00000  Uiso   1.00
Br469  Br    0.87926   0.31447   0.82267   0.00000  Uiso   1.00
Br470  Br    0.71253   0.35153   0.23574   0.00000  Uiso   1.00
Br471  Br    0.78900   0.14654   0.77441   0.00000  Uiso   1.00
Br472  Br    0.96686   0.35971   0.45432   0.00000  Uiso   1.00
Br473  Br    0.51739   0.13806   0.54708   0.00000  Uiso   1.00
Br474  Br    0.66205   0.07157   0.45366   0.00000  Uiso   1.00
Br475  Br    0.83189   0.42017   0.54677   0.00000  Uiso   1.00
Br476  Br    0.83429   0.42317   0.95316   0.00000  Uiso   1.00
C477   C     0.99751   0.28327   0.41785   0.00000  Uiso   1.00
C478   C     0.77868   0.48272   0.08065   0.00000  Uiso   1.00
C479   C     0.72488   0.02250   0.54152   0.00000  Uiso   1.00
C480   C     0.99352   0.28333   0.45872   0.00000  Uiso   1.00
C481   C     0.51036   0.21796   0.54080   0.00000  Uiso   1.00
C482   C     0.72782   0.02531   0.45976   0.00000  Uiso   1.00
C483   C     0.77725   0.47955   0.54161   0.00000  Uiso   1.00
C484   C     0.77246   0.47485   0.95848   0.00000  Uiso   1.00
C485   C     0.72634   0.02403   0.04023   0.00000  Uiso   1.00
C486   C     0.53216   0.23990   0.95918   0.00000  Uiso   1.00
C487   C     0.96677   0.25673   0.04130   0.00000  Uiso   1.00
C488   C     0.72961   0.02730   0.95838   0.00000  Uiso   1.00
C489   C     0.97050   0.26547   0.91862   0.00000  Uiso   1.00
C490   C     0.77526   0.47777   0.04025   0.00000  Uiso   1.00
C491   C     0.96796   0.26039   0.95919   0.00000  Uiso   1.00
C492   C     0.53329   0.24342   0.04129   0.00000  Uiso   1.00
C493   C     0.59808   0.34808   0.25000   0.00000  Uiso   1.00
C494   C     0.90191   0.15191   0.75000   0.00000  Uiso   1.00
C495   C     0.65193   0.09809   0.25001   0.00000  Uiso   1.00
C496   C     0.84812   0.40188   0.75000   0.00000  Uiso   1.00
C497   C     0.90191   0.15192   0.25000   0.00000  Uiso   1.00
C498   C     0.59804   0.34804   0.75000   0.00000  Uiso   1.00
C499   C     0.84809   0.40193   0.24999   0.00000  Uiso   1.00
C500   C     0.53323   0.24741   0.08215   0.00000  Uiso   1.00
C501   C     0.65188   0.09812   0.75001   0.00000  Uiso   1.00
C502   C     0.59801   0.15199   0.74998   0.00000  Uiso   1.00
C503   C     0.90193   0.34805   0.25000   0.00000  Uiso   1.00
C504   C     0.65187   0.40188   0.75000   0.00000  Uiso   1.00
C505   C     0.84809   0.09809   0.25000   0.00000  Uiso   1.00
C506   C     0.90199   0.34801   0.75003   0.00000  Uiso   1.00
C507   C     0.59805   0.15194   0.25000   0.00000  Uiso   1.00
C508   C     0.84807   0.09807   0.75000   0.00000  Uiso   1.00
C509   C     0.65191   0.40191   0.25000   0.00000  Uiso   1.00
C510   C     0.50011   0.25006   0.47922   0.00000  Uiso   1.00
C511   C     0.76793   0.47206   0.91801   0.00000  Uiso   1.00
C512   C     0.50014   0.25007   0.52021   0.00000  Uiso   1.00
C513   C     0.75095   0.00086   0.48027   0.00000  Uiso   1.00
C514   C     0.75102   0.00095   0.52111   0.00000  Uiso   1.00
C515   C     0.75095   0.00104   0.97889   0.00000  Uiso   1.00
C516   C     0.75087   0.00097   0.01973   0.00000  Uiso   1.00
C517   C     0.50005   0.25012   0.97979   0.00000  Uiso   1.00
C518   C     0.50004   0.25009   0.02078   0.00000  Uiso   1.00
C519   C     0.53605   0.32667   0.39434   0.00000  Uiso   1.00
C520   C     0.53898   0.35858   0.36583   0.00000  Uiso   1.00
C521   C     0.57853   0.37144   0.36156   0.00000  Uiso   1.00
C522   C     0.72227   0.01849   0.08052   0.00000  Uiso   1.00
C523   C     0.57233   0.20537   0.60490   0.00000  Uiso   1.00
C524   C     0.59701   0.18035   0.58062   0.00000  Uiso   1.00
C525   C     0.63740   0.18894   0.58725   0.00000  Uiso   1.00
C526   C     0.74915   0.08547   0.39662   0.00000  Uiso   1.00
C527   C     0.74744   0.11381   0.42940   0.00000  Uiso   1.00
C528   C     0.77641   0.14342   0.42398   0.00000  Uiso   1.00
C529   C     0.83176   0.00384   0.61179   0.00000  Uiso   1.00
C530   C     0.86790   0.00191   0.58942   0.00000  Uiso   1.00
C531   C     0.89333   0.03327   0.60067   0.00000  Uiso   1.00
C532   C     0.96397   0.17339   0.39446   0.00000  Uiso   1.00
C533   C     0.52966   0.23478   0.91860   0.00000  Uiso   1.00
C534   C     0.96097   0.14151   0.36590   0.00000  Uiso   1.00
C535   C     0.92141   0.12869   0.36170   0.00000  Uiso   1.00
C536   C     0.92796   0.29518   0.60474   0.00000  Uiso   1.00
C537   C     0.90353   0.32091   0.58103   0.00000  Uiso   1.00
C538   C     0.86305   0.31284   0.58775   0.00000  Uiso   1.00
C539   C     0.75252   0.41503   0.39764   0.00000  Uiso   1.00
C540   C     0.75477   0.38732   0.43098   0.00000  Uiso   1.00
C541   C     0.72616   0.35724   0.42636   0.00000  Uiso   1.00
C542   C     0.66729   0.49891   0.60746   0.00000  Uiso   1.00
C543   C     0.63248   0.00438   0.58339   0.00000  Uiso   1.00
C544   C     0.96679   0.25264   0.08215   0.00000  Uiso   1.00
C545   C     0.60451   0.47430   0.59120   0.00000  Uiso   1.00
C546   C     0.75393   0.08174   0.88814   0.00000  Uiso   1.00
C547   C     0.75210   0.11788   0.91054   0.00000  Uiso   1.00
C548   C     0.78350   0.14326   0.89926   0.00000  Uiso   1.00
C549   C     0.83548   0.49888   0.10339   0.00000  Uiso   1.00
C550   C     0.86392   0.49695   0.07071   0.00000  Uiso   1.00
C551   C     0.89361   0.02584   0.07612   0.00000  Uiso   1.00
C552   C     0.95544   0.32238   0.89512   0.00000  Uiso   1.00
C553   C     0.93037   0.34707   0.91935   0.00000  Uiso   1.00
C554   C     0.93899   0.38746   0.91275   0.00000  Uiso   1.00
C555   C     0.50000   0.25003   0.39802   0.00000  Uiso   1.00
C556   C     0.57672   0.28587   0.10564   0.00000  Uiso   1.00
C557   C     0.60862   0.28875   0.13417   0.00000  Uiso   1.00
C558   C     0.62156   0.32828   0.13840   0.00000  Uiso   1.00
C559   C     0.74884   0.41729   0.89254   0.00000  Uiso   1.00
C560   C     0.75425   0.38249   0.91665   0.00000  Uiso   1.00
C561   C     0.72415   0.35455   0.90885   0.00000  Uiso   1.00
C562   C     0.66503   0.00285   0.10237   0.00000  Uiso   1.00
C563   C     0.63709   0.00551   0.06928   0.00000  Uiso   1.00
C564   C     0.60693   0.47698   0.07387   0.00000  Uiso   1.00
C565   C     0.54512   0.17790   0.89524   0.00000  Uiso   1.00
C566   C     0.50006   0.25004   0.60162   0.00000  Uiso   1.00
C567   C     0.57084   0.15344   0.91892   0.00000  Uiso   1.00
C568   C     0.56275   0.11297   0.91218   0.00000  Uiso   1.00
C569   C     0.92325   0.21429   0.10575   0.00000  Uiso   1.00
C570   C     0.89079   0.21166   0.13360   0.00000  Uiso   1.00
C571   C     0.87812   0.17211   0.13843   0.00000  Uiso   1.00
C572   C     0.75031   0.00023   0.39885   0.00000  Uiso   1.00
C573   C     0.51544   0.22048   0.58138   0.00000  Uiso   1.00
C574   C     0.75022   0.00022   0.60209   0.00000  Uiso   1.00
C575   C     0.75022   0.00022   0.89791   0.00000  Uiso   1.00
C576   C     0.75024   0.00032   0.10116   0.00000  Uiso   1.00
C577   C     0.50005   0.25005   0.89838   0.00000  Uiso   1.00
C578   C     0.50000   0.24999   0.10198   0.00000  Uiso   1.00
C579   C     0.51593   0.18456   0.47960   0.00000  Uiso   1.00
C580   C     0.98445   0.31534   0.52043   0.00000  Uiso   1.00
C581   C     0.80063   0.45568   0.48011   0.00000  Uiso   1.00
C582   C     0.70155   0.04662   0.52088   0.00000  Uiso   1.00
C583   C     0.98440   0.31558   0.47966   0.00000  Uiso   1.00
C584   C     0.73279   0.02872   0.41935   0.00000  Uiso   1.00
C585   C     0.51599   0.18483   0.52038   0.00000  Uiso   1.00
C586   C     0.70175   0.04662   0.48017   0.00000  Uiso   1.00
C587   C     0.80134   0.45616   0.52087   0.00000  Uiso   1.00
C588   C     0.79653   0.45148   0.97913   0.00000  Uiso   1.00
C589   C     0.70582   0.05076   0.01989   0.00000  Uiso   1.00
C590   C     0.56530   0.23432   0.97958   0.00000  Uiso   1.00
C591   C     0.93456   0.26603   0.02038   0.00000  Uiso   1.00
C592   C     0.70628   0.05145   0.97913   0.00000  Uiso   1.00
C593   C     0.79651   0.45165   0.01983   0.00000  Uiso   1.00
C594   C     0.93484   0.26606   0.97960   0.00000  Uiso   1.00
C595   C     0.77920   0.48349   0.58228   0.00000  Uiso   1.00
C596   C     0.56553   0.23424   0.02035   0.00000  Uiso   1.00
C597   C     0.75005   0.00003   0.35611   0.00000  Uiso   1.00
C598   C     0.74986   0.00002   0.64425   0.00000  Uiso   1.00
C599   C     0.50000   0.25001   0.35578   0.00000  Uiso   1.00
C600   C     0.50001   0.25002   0.64407   0.00000  Uiso   1.00
C601   C     0.50002   0.25001   0.85593   0.00000  Uiso   1.00
C602   C     0.99999   0.25000   0.14422   0.00000  Uiso   1.00
C603   C     0.75002   0.49986   0.85575   0.00000  Uiso   1.00
C604   C     0.75003   0.00006   0.14389   0.00000  Uiso   1.00
C605   C     0.67999   0.07002   0.25000   0.00000  Uiso   1.00
C606   C     0.50255   0.21681   0.41785   0.00000  Uiso   1.00
C607   C     0.82003   0.42998   0.74999   0.00000  Uiso   1.00
C608   C     0.92997   0.17997   0.25000   0.00000  Uiso   1.00
C609   C     0.57001   0.32001   0.75000   0.00000  Uiso   1.00
C610   C     0.82002   0.42999   0.25000   0.00000  Uiso   1.00
C611   C     0.67998   0.07003   0.75001   0.00000  Uiso   1.00
C612   C     0.57003   0.32003   0.25000   0.00000  Uiso   1.00
C613   C     0.92998   0.17998   0.75000   0.00000  Uiso   1.00
C614   C     0.67996   0.42996   0.75000   0.00000  Uiso   1.00
C615   C     0.82003   0.07003   0.25000   0.00000  Uiso   1.00
C616   C     0.93001   0.31998   0.75002   0.00000  Uiso   1.00
C617   C     0.98482   0.27968   0.58140   0.00000  Uiso   1.00
C618   C     0.57000   0.17999   0.25000   0.00000  Uiso   1.00
C619   C     0.82002   0.07002   0.75000   0.00000  Uiso   1.00
C620   C     0.67998   0.42997   0.25000   0.00000  Uiso   1.00
C621   C     0.56998   0.18001   0.74998   0.00000  Uiso   1.00
C622   C     0.92999   0.32000   0.25000   0.00000  Uiso   1.00
C623   C     0.61499   0.41204   0.25481   0.00000  Uiso   1.00
C624   C     0.88432   0.08860   0.74042   0.00000  Uiso   1.00
C625   C     0.60521   0.13235   0.28437   0.00000  Uiso   1.00
C626   C     0.90006   0.37279   0.71888   0.00000  Uiso   1.00
C627   C     0.88501   0.08796   0.25482   0.00000  Uiso   1.00
C628   C     0.76839   0.47221   0.41948   0.00000  Uiso   1.00
C629   C     0.64198   0.38490   0.78519   0.00000  Uiso   1.00
C630   C     0.89477   0.36767   0.28437   0.00000  Uiso   1.00
C631   C     0.59998   0.12720   0.71884   0.00000  Uiso   1.00
C632   C     0.62732   0.10036   0.71866   0.00000  Uiso   1.00
C633   C     0.86759   0.39465   0.28441   0.00000  Uiso   1.00
C634   C     0.61523   0.35762   0.78514   0.00000  Uiso   1.00
C635   C     0.91208   0.11493   0.25436   0.00000  Uiso   1.00
C636   C     0.87271   0.39962   0.71867   0.00000  Uiso   1.00
C637   C     0.63240   0.10538   0.28442   0.00000  Uiso   1.00
C638   C     0.91137   0.11565   0.74043   0.00000  Uiso   1.00
C639   C     0.72208   0.01796   0.58200   0.00000  Uiso   1.00
C640   C     0.58791   0.38507   0.25434   0.00000  Uiso   1.00
C641   C     0.86565   0.16137   0.75957   0.00000  Uiso   1.00
C642   C     0.63508   0.33791   0.24566   0.00000  Uiso   1.00
C643   C     0.85037   0.37733   0.78135   0.00000  Uiso   1.00
C644   C     0.64465   0.11759   0.21559   0.00000  Uiso   1.00
C645   C     0.60762   0.36524   0.71486   0.00000  Uiso   1.00
C646   C     0.86493   0.16208   0.24564   0.00000  Uiso   1.00
C647   C     0.64962   0.12272   0.78133   0.00000  Uiso   1.00
C648   C     0.85538   0.38241   0.21558   0.00000  Uiso   1.00
C649   C     0.88235   0.35521   0.21563   0.00000  Uiso   1.00
C650   C     0.73354   0.02923   0.91772   0.00000  Uiso   1.00
C651   C     0.62279   0.15006   0.78112   0.00000  Uiso   1.00
C652   C     0.83796   0.13501   0.24517   0.00000  Uiso   1.00
C653   C     0.63490   0.39199   0.71480   0.00000  Uiso   1.00
C654   C     0.61767   0.14477   0.21563   0.00000  Uiso   1.00
C655   C     0.87721   0.34999   0.78118   0.00000  Uiso   1.00
C656   C     0.66204   0.36499   0.24519   0.00000  Uiso   1.00
C657   C     0.83860   0.13432   0.75958   0.00000  Uiso   1.00
C658   C     0.50667   0.21678   0.45870   0.00000  Uiso   1.00
C659   C     0.98997   0.28219   0.54083   0.00000  Uiso   1.00
C660   C     0.77395   0.47627   0.45978   0.00000  Uiso   1.00
H661   H     0.55425   0.30417   0.38391   0.00000  Uiso   1.00
H662   H     0.59193   0.15132   0.58861   0.00000  Uiso   1.00
H663   H     0.51618   0.17242   0.90412   0.00000  Uiso   1.00
H664   H     0.59968   0.15898   0.91048   0.00000  Uiso   1.00
H665   H     0.56754   0.15964   0.95034   0.00000  Uiso   1.00
H666   H     0.56685   0.10584   0.88109   0.00000  Uiso   1.00
H667   H     0.53413   0.10659   0.92071   0.00000  Uiso   1.00
H668   H     0.58161   0.09604   0.93003   0.00000  Uiso   1.00
H669   H     0.94555   0.19620   0.11684   0.00000  Uiso   1.00
H670   H     0.91458   0.20439   0.07654   0.00000  Uiso   1.00
H671   H     0.89888   0.22270   0.16246   0.00000  Uiso   1.00
H672   H     0.86773   0.22843   0.12225   0.00000  Uiso   1.00
H673   H     0.59061   0.18403   0.54930   0.00000  Uiso   1.00
H674   H     0.90007   0.15540   0.15211   0.00000  Uiso   1.00
H675   H     0.87090   0.16011   0.10978   0.00000  Uiso   1.00
H676   H     0.85354   0.17128   0.15737   0.00000  Uiso   1.00
H677   H     0.64476   0.18443   0.61821   0.00000  Uiso   1.00
H678   H     0.64331   0.21779   0.57923   0.00000  Uiso   1.00
H679   H     0.65451   0.17064   0.56892   0.00000  Uiso   1.00
H680   H     0.74550   0.10001   0.36851   0.00000  Uiso   1.00
H681   H     0.77700   0.07275   0.39559   0.00000  Uiso   1.00
H682   H     0.71995   0.12690   0.42979   0.00000  Uiso   1.00
H683   H     0.75216   0.10019   0.45780   0.00000  Uiso   1.00
H684   H     0.77202   0.15810   0.39609   0.00000  Uiso   1.00
H685   H     0.54565   0.33588   0.42347   0.00000  Uiso   1.00
H686   H     0.80424   0.13109   0.42410   0.00000  Uiso   1.00
H687   H     0.77453   0.16350   0.44815   0.00000  Uiso   1.00
H688   H     0.83760   0.00339   0.64346   0.00000  Uiso   1.00
H689   H     0.81835   0.03080   0.60574   0.00000  Uiso   1.00
H690   H     0.88181   0.47547   0.59566   0.00000  Uiso   1.00
H691   H     0.86223   0.00338   0.55773   0.00000  Uiso   1.00
H692   H     0.90004   0.03187   0.63211   0.00000  Uiso   1.00
H693   H     0.88022   0.06005   0.59421   0.00000  Uiso   1.00
H694   H     0.91916   0.03119   0.58378   0.00000  Uiso   1.00
H695   H     0.94574   0.19590   0.38412   0.00000  Uiso   1.00
H696   H     0.52857   0.34982   0.33694   0.00000  Uiso   1.00
H697   H     0.95444   0.16415   0.42360   0.00000  Uiso   1.00
H698   H     0.97135   0.15030   0.33700   0.00000  Uiso   1.00
H699   H     0.97812   0.11832   0.37629   0.00000  Uiso   1.00
H700   H     0.90423   0.15086   0.34914   0.00000  Uiso   1.00
H701   H     0.91014   0.12057   0.39041   0.00000  Uiso   1.00
H702   H     0.92031   0.10462   0.34203   0.00000  Uiso   1.00
H703   H     0.91996   0.29738   0.63581   0.00000  Uiso   1.00
H704   H     0.92246   0.26624   0.59588   0.00000  Uiso   1.00
H705   H     0.90908   0.34974   0.58946   0.00000  Uiso   1.00
H706   H     0.90974   0.31758   0.54962   0.00000  Uiso   1.00
H707   H     0.52183   0.38175   0.37630   0.00000  Uiso   1.00
H708   H     0.85590   0.31697   0.61883   0.00000  Uiso   1.00
H709   H     0.85666   0.28421   0.57925   0.00000  Uiso   1.00
H710   H     0.84613   0.33169   0.56987   0.00000  Uiso   1.00
H711   H     0.75619   0.40004   0.36980   0.00000  Uiso   1.00
H712   H     0.72452   0.42740   0.39654   0.00000  Uiso   1.00
H713   H     0.78242   0.37460   0.43145   0.00000  Uiso   1.00
H714   H     0.75001   0.40141   0.45913   0.00000  Uiso   1.00
H715   H     0.73061   0.34209   0.39876   0.00000  Uiso   1.00
H716   H     0.69817   0.36922   0.42638   0.00000  Uiso   1.00
H717   H     0.72840   0.33766   0.45093   0.00000  Uiso   1.00
H718   H     0.59571   0.34929   0.34894   0.00000  Uiso   1.00
H719   H     0.65984   0.49779   0.63871   0.00000  Uiso   1.00
H720   H     0.67955   0.47165   0.60022   0.00000  Uiso   1.00
H721   H     0.61997   0.03130   0.59058   0.00000  Uiso   1.00
H722   H     0.63959   0.00417   0.55199   0.00000  Uiso   1.00
H723   H     0.59621   0.47454   0.62226   0.00000  Uiso   1.00
H724   H     0.61617   0.44708   0.58374   0.00000  Uiso   1.00
H725   H     0.57981   0.47902   0.57305   0.00000  Uiso   1.00
H726   H     0.75344   0.08761   0.85648   0.00000  Uiso   1.00
H727   H     0.78089   0.06829   0.89414   0.00000  Uiso   1.00
H728   H     0.72568   0.13184   0.90436   0.00000  Uiso   1.00
H729   H     0.58983   0.37955   0.39026   0.00000  Uiso   1.00
H730   H     0.75361   0.11218   0.94223   0.00000  Uiso   1.00
H731   H     0.78205   0.15000   0.86783   0.00000  Uiso   1.00
H732   H     0.81027   0.13008   0.90565   0.00000  Uiso   1.00
H733   H     0.78150   0.16907   0.91618   0.00000  Uiso   1.00
H734   H     0.84992   0.49526   0.13155   0.00000  Uiso   1.00
H735   H     0.82288   0.02678   0.10428   0.00000  Uiso   1.00
H736   H     0.87691   0.46943   0.07048   0.00000  Uiso   1.00
H737   H     0.85040   0.00162   0.04225   0.00000  Uiso   1.00
H738   H     0.90818   0.02152   0.10409   0.00000  Uiso   1.00
H739   H     0.88138   0.05372   0.07582   0.00000  Uiso   1.00
H740   H     0.57957   0.39553   0.34194   0.00000  Uiso   1.00
H741   H     0.91376   0.02380   0.05204   0.00000  Uiso   1.00
H742   H     0.95281   0.33042   0.86412   0.00000  Uiso   1.00
H743   H     0.98459   0.32756   0.90341   0.00000  Uiso   1.00
H744   H     0.90135   0.34200   0.91129   0.00000  Uiso   1.00
H745   H     0.93398   0.34067   0.95067   0.00000  Uiso   1.00
H746   H     0.96782   0.39336   0.92085   0.00000  Uiso   1.00
H747   H     0.92064   0.40457   0.93101   0.00000  Uiso   1.00
H748   H     0.93457   0.39482   0.88177   0.00000  Uiso   1.00
H749   H     0.55425   0.30413   0.11605   0.00000  Uiso   1.00
H750   H     0.58597   0.29543   0.07651   0.00000  Uiso   1.00
H751   H     0.58036   0.20267   0.63590   0.00000  Uiso   1.00
H752   H     0.59981   0.27839   0.16307   0.00000  Uiso   1.00
H753   H     0.63175   0.27154   0.12374   0.00000  Uiso   1.00
H754   H     0.59943   0.34552   0.15097   0.00000  Uiso   1.00
H755   H     0.62973   0.33952   0.10969   0.00000  Uiso   1.00
H756   H     0.64563   0.32929   0.15805   0.00000  Uiso   1.00
H757   H     0.74774   0.40981   0.86129   0.00000  Uiso   1.00
H758   H     0.72158   0.42958   0.89973   0.00000  Uiso   1.00
H759   H     0.78116   0.36994   0.90949   0.00000  Uiso   1.00
H760   H     0.75403   0.38963   0.94804   0.00000  Uiso   1.00
H761   H     0.72440   0.34622   0.87780   0.00000  Uiso   1.00
H762   H     0.57752   0.23454   0.59669   0.00000  Uiso   1.00
H763   H     0.69693   0.36625   0.91627   0.00000  Uiso   1.00
H764   H     0.72882   0.32986   0.92703   0.00000  Uiso   1.00
H765   H     0.65025   0.00640   0.13036   0.00000  Uiso   1.00
H766   H     0.67725   0.47478   0.10313   0.00000  Uiso   1.00
H767   H     0.62448   0.03321   0.06919   0.00000  Uiso   1.00
H768   H     0.65097   0.00095   0.04098   0.00000  Uiso   1.00
H769   H     0.59204   0.48120   0.10167   0.00000  Uiso   1.00
H770   H     0.61879   0.44894   0.07338   0.00000  Uiso   1.00
H771   H     0.58715   0.47957   0.04952   0.00000  Uiso   1.00
H772   H     0.54729   0.16992   0.86417   0.00000  Uiso   1.00
O773   O     0.75000  -0.00000   0.25000   0.00000  Uiso   1.00
O774   O     0.75000   0.46963   0.66245   0.00000  Uiso   1.00
O775   O     0.96963   0.25000   0.33755   0.00000  Uiso   1.00
O776   O     0.53036   0.25000   0.66245   0.00000  Uiso   1.00
O777   O     0.50000   0.21963   0.83755   0.00000  Uiso   1.00
O778   O     0.50000   0.28036   0.16245   0.00000  Uiso   1.00
O779   O     0.78036  -0.00000   0.83755   0.00000  Uiso   1.00
O780   O     0.71963  -0.00000   0.16245   0.00000  Uiso   1.00
O781   O     0.50000   0.28036   0.83755   0.00000  Uiso   1.00
O782   O     0.50000   0.21963   0.16245   0.00000  Uiso   1.00
O783   O     0.71963  -0.00000   0.83755   0.00000  Uiso   1.00
O784   O     0.75000  -0.00000   0.75000   0.00000  Uiso   1.00
O785   O     0.78036  -0.00000   0.16245   0.00000  Uiso   1.00
O786   O     0.70724   0.07307   0.27302   0.00000  Uiso   1.00
O787   O     0.79275   0.42692   0.72698   0.00000  Uiso   1.00
O788   O     0.92692   0.20724   0.27302   0.00000  Uiso   1.00
O789   O     0.57307   0.29275   0.72698   0.00000  Uiso   1.00
O790   O     0.79275   0.42692   0.27302   0.00000  Uiso   1.00
O791   O     0.70724   0.07307   0.72698   0.00000  Uiso   1.00
O792   O     0.57307   0.29275   0.27302   0.00000  Uiso   1.00
O793   O     0.92692   0.20724   0.72698   0.00000  Uiso   1.00
O794   O     0.70724   0.42692   0.72698   0.00000  Uiso   1.00
O795   O     0.50000   0.25000   0.25000   0.00000  Uiso   1.00
O796   O     0.79275   0.07307   0.27302   0.00000  Uiso   1.00
O797   O     0.92692   0.29275   0.72698   0.00000  Uiso   1.00
O798   O     0.57307   0.20724   0.27302   0.00000  Uiso   1.00
O799   O     0.79275   0.07307   0.72698   0.00000  Uiso   1.00
O800   O     0.70724   0.42692   0.27302   0.00000  Uiso   1.00
O801   O     0.57307   0.20724   0.72698   0.00000  Uiso   1.00
O802   O     0.92692   0.29275   0.27302   0.00000  Uiso   1.00
O803   O     0.95724   0.32307   0.77302   0.00000  Uiso   1.00
O804   O     0.54275   0.17692   0.22698   0.00000  Uiso   1.00
O805   O     0.67692   0.45724   0.77302   0.00000  Uiso   1.00
O806   O     0.50000   0.25000   0.75000   0.00000  Uiso   1.00
O807   O     0.82307   0.04275   0.22698   0.00000  Uiso   1.00
O808   O     0.54275   0.17692   0.77302   0.00000  Uiso   1.00
O809   O     0.95724   0.32307   0.22698   0.00000  Uiso   1.00
O810   O     0.82307   0.04275   0.77302   0.00000  Uiso   1.00
O811   O     0.67692   0.45724   0.22698   0.00000  Uiso   1.00
O812   O     0.95724   0.17692   0.22698   0.00000  Uiso   1.00
O813   O     0.54275   0.32307   0.77302   0.00000  Uiso   1.00
O814   O     0.67692   0.04275   0.22698   0.00000  Uiso   1.00
O815   O     0.82307   0.45724   0.77302   0.00000  Uiso   1.00
O816   O     0.54275   0.32307   0.22698   0.00000  Uiso   1.00
O817   O     0.75000   0.46963   0.33755   0.00000  Uiso   1.00
O818   O     0.95724   0.17692   0.77302   0.00000  Uiso   1.00
O819   O     0.82307   0.45724   0.22698   0.00000  Uiso   1.00
O820   O     0.67692   0.04275   0.77302   0.00000  Uiso   1.00
O821   O     0.99911   0.31528   0.39646   0.00000  Uiso   1.00
O822   O     0.53521   0.19425   0.60156   0.00000  Uiso   1.00
O823   O     0.72035   0.05954   0.39987   0.00000  Uiso   1.00
O824   O     0.80998   0.47276   0.60285   0.00000  Uiso   1.00
O825   O     0.50091   0.18478   0.39648   0.00000  Uiso   1.00
O826   O     0.96518   0.30600   0.60160   0.00000  Uiso   1.00
O827   O     0.78100   0.44135   0.40018   0.00000  Uiso   1.00
O828   O     0.75000   0.03036   0.66245   0.00000  Uiso   1.00
O829   O     0.69118   0.02913   0.60211   0.00000  Uiso   1.00
O830   O     0.72283   0.06002   0.89713   0.00000  Uiso   1.00
O831   O     0.80945   0.47017   0.10014   0.00000  Uiso   1.00
O832   O     0.94429   0.28527   0.89843   0.00000  Uiso   1.00
O833   O     0.56525   0.24895   0.10354   0.00000  Uiso   1.00
O834   O     0.77907   0.44115   0.89789   0.00000  Uiso   1.00
O835   O     0.69147   0.03122   0.09984   0.00000  Uiso   1.00
O836   O     0.55597   0.21512   0.89840   0.00000  Uiso   1.00
O837   O     0.93474   0.25119   0.10352   0.00000  Uiso   1.00
O838   O     0.53036   0.25000   0.33755   0.00000  Uiso   1.00
O839   O     0.96963   0.25000   0.66245   0.00000  Uiso   1.00
O840   O     0.75000   0.03036   0.33755   0.00000  Uiso   1.00
Zn841  Zn    0.70659  -0.00000   0.21735   0.00000  Uiso   1.00
Zn842  Zn    0.54340   0.25000   0.28265   0.00000  Uiso   1.00
Zn843  Zn    0.75000   0.45659   0.71735   0.00000  Uiso   1.00
Zn844  Zn    0.75000   0.04340   0.28265   0.00000  Uiso   1.00
Zn845  Zn    0.54340   0.25000   0.71735   0.00000  Uiso   1.00
Zn846  Zn    0.95659   0.25000   0.28265   0.00000  Uiso   1.00
Zn847  Zn    0.75000   0.04340   0.71735   0.00000  Uiso   1.00
Zn848  Zn    0.75000   0.45659   0.28265   0.00000  Uiso   1.00
Zn849  Zn    0.79340  -0.00000   0.78265   0.00000  Uiso   1.00
Zn850  Zn    0.50000   0.20659   0.21735   0.00000  Uiso   1.00
Zn851  Zn    0.50000   0.29340   0.78265   0.00000  Uiso   1.00
Zn852  Zn    0.79340  -0.00000   0.21735   0.00000  Uiso   1.00
Zn853  Zn    0.70659  -0.00000   0.78265   0.00000  Uiso   1.00
Zn854  Zn    0.50000   0.29340   0.21735   0.00000  Uiso   1.00
Zn855  Zn    0.50000   0.20659   0.78265   0.00000  Uiso   1.00
Zn856  Zn    0.95659   0.25000   0.71735   0.00000  Uiso   1.00
Br857  Br    0.03349   0.64047   0.45417   0.00000  Uiso   1.00
Br858  Br    0.18133   0.59053   0.04682   0.00000  Uiso   1.00
Br859  Br    0.11209   0.73330   0.95288   0.00000  Uiso   1.00
Br860  Br    0.39049   0.78368   0.04577   0.00000  Uiso   1.00
Br861  Br    0.17032   0.58205   0.95324   0.00000  Uiso   1.00
Br862  Br    0.32133   0.91186   0.04633   0.00000  Uiso   1.00
Br863  Br    0.38807   0.76747   0.95289   0.00000  Uiso   1.00
Br864  Br    0.10961   0.71659   0.04569   0.00000  Uiso   1.00
Br865  Br    0.10153   0.96252   0.26426   0.00000  Uiso   1.00
Br866  Br    0.39654   0.53901   0.72558   0.00000  Uiso   1.00
Br867  Br    0.07660   0.64120   0.33076   0.00000  Uiso   1.00
Br868  Br    0.48346   0.86211   0.54715   0.00000  Uiso   1.00
Br869  Br    0.43572   0.87080   0.67750   0.00000  Uiso   1.00
Br870  Br    0.39846   0.53748   0.26427   0.00000  Uiso   1.00
Br871  Br    0.16611   0.89765   0.83325   0.00000  Uiso   1.00
Br872  Br    0.42334   0.85883   0.33076   0.00000  Uiso   1.00
Br873  Br    0.06444   0.62923   0.67736   0.00000  Uiso   1.00
Br874  Br    0.13049   0.56612   0.67618   0.00000  Uiso   1.00
Br875  Br    0.35827   0.92273   0.33103   0.00000  Uiso   1.00
Br876  Br    0.10370   0.83207   0.83286   0.00000  Uiso   1.00
Br877  Br    0.46280   0.60112   0.26170   0.00000  Uiso   1.00
Br878  Br    0.36958   0.93380   0.67616   0.00000  Uiso   1.00
Br879  Br    0.34030   0.93103   0.45317   0.00000  Uiso   1.00
Br880  Br    0.14172   0.57735   0.33105   0.00000  Uiso   1.00
Br881  Br    0.46095   0.60338   0.72562   0.00000  Uiso   1.00
Br882  Br    0.03719   0.89890   0.26164   0.00000  Uiso   1.00
Br883  Br    0.35338   0.71095   0.77439   0.00000  Uiso   1.00
Br884  Br    0.14890   0.78719   0.23839   0.00000  Uiso   1.00
Br885  Br    0.31614   0.88051   0.82385   0.00000  Uiso   1.00
Br886  Br    0.17273   0.60827   0.16897   0.00000  Uiso   1.00
Br887  Br    0.08208   0.85371   0.66714   0.00000  Uiso   1.00
Br888  Br    0.35110   0.71280   0.23836   0.00000  Uiso   1.00
Br889  Br    0.18381   0.61959   0.82384   0.00000  Uiso   1.00
Br890  Br    0.17327   0.58439   0.54686   0.00000  Uiso   1.00
Br891  Br    0.32735   0.89172   0.16894   0.00000  Uiso   1.00
Br892  Br    0.39120   0.82661   0.16924   0.00000  Uiso   1.00
Br893  Br    0.12080   0.68573   0.82250   0.00000  Uiso   1.00
Br894  Br    0.28748   0.64846   0.23572   0.00000  Uiso   1.00
Br895  Br    0.14764   0.91613   0.66675   0.00000  Uiso   1.00
Br896  Br    0.10884   0.67334   0.16924   0.00000  Uiso   1.00
Br897  Br    0.37926   0.81447   0.82267   0.00000  Uiso   1.00
Br898  Br    0.21253   0.85153   0.23574   0.00000  Uiso   1.00
Br899  Br    0.28900   0.64654   0.77441   0.00000  Uiso   1.00
Br900  Br    0.46686   0.85971   0.45432   0.00000  Uiso   1.00
Br901  Br    0.01739   0.63806   0.54708   0.00000  Uiso   1.00
Br902  Br    0.16205   0.57157   0.45366   0.00000  Uiso   1.00
Br903  Br    0.33189   0.92017   0.54677   0.00000  Uiso   1.00
Br904  Br    0.33429   0.92317   0.95316   0.00000  Uiso   1.00
C905   C     0.49751   0.78327   0.41785   0.00000  Uiso   1.00
C906   C     0.27868   0.98272   0.08065   0.00000  Uiso   1.00
C907   C     0.22488   0.52250   0.54152   0.00000  Uiso   1.00
C908   C     0.49352   0.78333   0.45872   0.00000  Uiso   1.00
C909   C     0.01036   0.71796   0.54080   0.00000  Uiso   1.00
C910   C     0.22782   0.52531   0.45976   0.00000  Uiso   1.00
C911   C     0.27725   0.97955   0.54161   0.00000  Uiso   1.00
C912   C     0.27246   0.97485   0.95848   0.00000  Uiso   1.00
C913   C     0.22634   0.52403   0.04023   0.00000  Uiso   1.00
C914   C     0.03216   0.73990   0.95918   0.00000  Uiso   1.00
C915   C     0.46677   0.75673   0.04130   0.00000  Uiso   1.00
C916   C     0.22961   0.52730   0.95838   0.00000  Uiso   1.00
C917   C     0.47050   0.76547   0.91862   0.00000  Uiso   1.00
C918   C     0.27526   0.97777   0.04025   0.00000  Uiso   1.00
C919   C     0.46796   0.76039   0.95919   0.00000  Uiso   1.00
C920   C     0.03329   0.74342   0.04129   0.00000  Uiso   1.00
C921   C     0.09808   0.84808   0.25000   0.00000  Uiso   1.00
C922   C     0.40191   0.65191   0.75000   0.00000  Uiso   1.00
C923   C     0.15193   0.59809   0.25001   0.00000  Uiso   1.00
C924   C     0.34812   0.90188   0.75000   0.00000  Uiso   1.00
C925   C     0.40191   0.65192   0.25000   0.00000  Uiso   1.00
C926   C     0.09804   0.84804   0.75000   0.00000  Uiso   1.00
C927   C     0.34809   0.90193   0.24999   0.00000  Uiso   1.00
C928   C     0.03323   0.74741   0.08215   0.00000  Uiso   1.00
C929   C     0.15188   0.59812   0.75001   0.00000  Uiso   1.00
C930   C     0.09801   0.65199   0.74998   0.00000  Uiso   1.00
C931   C     0.40193   0.84805   0.25000   0.00000  Uiso   1.00
C932   C     0.15187   0.90188   0.75000   0.00000  Uiso   1.00
C933   C     0.34809   0.59809   0.25000   0.00000  Uiso   1.00
C934   C     0.40199   0.84801   0.75003   0.00000  Uiso   1.00
C935   C     0.09805   0.65194   0.25000   0.00000  Uiso   1.00
C936   C     0.34807   0.59807   0.75000   0.00000  Uiso   1.00
C937   C     0.15191   0.90191   0.25000   0.00000  Uiso   1.00
C938   C     0.00011   0.75006   0.47922   0.00000  Uiso   1.00
C939   C     0.26793   0.97206   0.91801   0.00000  Uiso   1.00
C940   C     0.00014   0.75007   0.52021   0.00000  Uiso   1.00
C941   C     0.25095   0.50086   0.48027   0.00000  Uiso   1.00
C942   C     0.25102   0.50095   0.52111   0.00000  Uiso   1.00
C943   C     0.25095   0.50104   0.97889   0.00000  Uiso   1.00
C944   C     0.25087   0.50097   0.01973   0.00000  Uiso   1.00
C945   C     0.00005   0.75012   0.97979   0.00000  Uiso   1.00
C946   C     0.00004   0.75009   0.02078   0.00000  Uiso   1.00
C947   C     0.03605   0.82667   0.39434   0.00000  Uiso   1.00
C948   C     0.03898   0.85858   0.36583   0.00000  Uiso   1.00
C949   C     0.07853   0.87144   0.36156   0.00000  Uiso   1.00
C950   C     0.22227   0.51849   0.08052   0.00000  Uiso   1.00
C951   C     0.07233   0.70537   0.60490   0.00000  Uiso   1.00
C952   C     0.09701   0.68035   0.58062   0.00000  Uiso   1.00
C953   C     0.13740   0.68894   0.58725   0.00000  Uiso   1.00
C954   C     0.24915   0.58547   0.39662   0.00000  Uiso   1.00
C955   C     0.24744   0.61381   0.42940   0.00000  Uiso   1.00
C956   C     0.27641   0.64342   0.42398   0.00000  Uiso   1.00
C957   C     0.33176   0.50384   0.61179   0.00000  Uiso   1.00
C958   C     0.36790   0.50191   0.58942   0.00000  Uiso   1.00
C959   C     0.39333   0.53327   0.60067   0.00000  Uiso   1.00
C960   C     0.46397   0.67339   0.39446   0.00000  Uiso   1.00
C961   C     0.02966   0.73478   0.91860   0.00000  Uiso   1.00
C962   C     0.46097   0.64151   0.36590   0.00000  Uiso   1.00
C963   C     0.42141   0.62869   0.36170   0.00000  Uiso   1.00
C964   C     0.42796   0.79518   0.60474   0.00000  Uiso   1.00
C965   C     0.40353   0.82091   0.58103   0.00000  Uiso   1.00
C966   C     0.36305   0.81284   0.58775   0.00000  Uiso   1.00
C967   C     0.25252   0.91503   0.39764   0.00000  Uiso   1.00
C968   C     0.25477   0.88732   0.43098   0.00000  Uiso   1.00
C969   C     0.22616   0.85724   0.42636   0.00000  Uiso   1.00
C970   C     0.16729   0.99891   0.60746   0.00000  Uiso   1.00
C971   C     0.13248   0.50438   0.58339   0.00000  Uiso   1.00
C972   C     0.46679   0.75264   0.08215   0.00000  Uiso   1.00
C973   C     0.10451   0.97430   0.59120   0.00000  Uiso   1.00
C974   C     0.25393   0.58174   0.88814   0.00000  Uiso   1.00
C975   C     0.25210   0.61788   0.91054   0.00000  Uiso   1.00
C976   C     0.28350   0.64326   0.89926   0.00000  Uiso   1.00
C977   C     0.33548   0.99888   0.10339   0.00000  Uiso   1.00
C978   C     0.36392   0.99695   0.07071   0.00000  Uiso   1.00
C979   C     0.39361   0.52584   0.07612   0.00000  Uiso   1.00
C980   C     0.45544   0.82238   0.89512   0.00000  Uiso   1.00
C981   C     0.43037   0.84707   0.91935   0.00000  Uiso   1.00
C982   C     0.43899   0.88746   0.91275   0.00000  Uiso   1.00
C983   C    -0.00000   0.75003   0.39802   0.00000  Uiso   1.00
C984   C     0.07672   0.78587   0.10564   0.00000  Uiso   1.00
C985   C     0.10862   0.78875   0.13417   0.00000  Uiso   1.00
C986   C     0.12156   0.82828   0.13840   0.00000  Uiso   1.00
C987   C     0.24884   0.91729   0.89254   0.00000  Uiso   1.00
C988   C     0.25425   0.88249   0.91665   0.00000  Uiso   1.00
C989   C     0.22415   0.85455   0.90885   0.00000  Uiso   1.00
C990   C     0.16503   0.50285   0.10237   0.00000  Uiso   1.00
C991   C     0.13709   0.50551   0.06928   0.00000  Uiso   1.00
C992   C     0.10693   0.97698   0.07387   0.00000  Uiso   1.00
C993   C     0.04512   0.67790   0.89524   0.00000  Uiso   1.00
C994   C     0.00006   0.75004   0.60162   0.00000  Uiso   1.00
C995   C     0.07084   0.65344   0.91892   0.00000  Uiso   1.00
C996   C     0.06275   0.61297   0.91218   0.00000  Uiso   1.00
C997   C     0.42325   0.71429   0.10575   0.00000  Uiso   1.00
C998   C     0.39079   0.71166   0.13360   0.00000  Uiso   1.00
C999   C     0.37812   0.67211   0.13843   0.00000  Uiso   1.00
C1000  C     0.25031   0.50023   0.39885   0.00000  Uiso   1.00
C1001  C     0.01544   0.72048   0.58138   0.00000  Uiso   1.00
C1002  C     0.25022   0.50022   0.60209   0.00000  Uiso   1.00
C1003  C     0.25022   0.50022   0.89791   0.00000  Uiso   1.00
C1004  C     0.25024   0.50032   0.10116   0.00000  Uiso   1.00
C1005  C     0.00005   0.75005   0.89838   0.00000  Uiso   1.00
C1006  C    -0.00000   0.74999   0.10198   0.00000  Uiso   1.00
C1007  C     0.01593   0.68456   0.47960   0.00000  Uiso   1.00
C1008  C     0.48445   0.81534   0.52043   0.00000  Uiso   1.00
C1009  C     0.30063   0.95568   0.48011   0.00000  Uiso   1.00
C1010  C     0.20155   0.54662   0.52088   0.00000  Uiso   1.00
C1011  C     0.48440   0.81558   0.47966   0.00000  Uiso   1.00
C1012  C     0.23279   0.52872   0.41935   0.00000  Uiso   1.00
C1013  C     0.01599   0.68483   0.52038   0.00000  Uiso   1.00
C1014  C     0.20175   0.54662   0.48017   0.00000  Uiso   1.00
C1015  C     0.30134   0.95616   0.52087   0.00000  Uiso   1.00
C1016  C     0.29653   0.95148   0.97913   0.00000  Uiso   1.00
C1017  C     0.20582   0.55076   0.01989   0.00000  Uiso   1.00
C1018  C     0.06530   0.73432   0.97958   0.00000  Uiso   1.00
C1019  C     0.43456   0.76603   0.02038   0.00000  Uiso   1.00
C1020  C     0.20628   0.55145   0.97913   0.00000  Uiso   1.00
C1021  C     0.29651   0.95165   0.01983   0.00000  Uiso   1.00
C1022  C     0.43484   0.76606   0.97960   0.00000  Uiso   1.00
C1023  C     0.27920   0.98349   0.58228   0.00000  Uiso   1.00
C1024  C     0.06553   0.73424   0.02035   0.00000  Uiso   1.00
C1025  C     0.25005   0.50003   0.35611   0.00000  Uiso   1.00
C1026  C     0.24986   0.50002   0.64425   0.00000  Uiso   1.00
C1027  C    -0.00000   0.75001   0.35578   0.00000  Uiso   1.00
C1028  C     0.00001   0.75002   0.64407   0.00000  Uiso   1.00
C1029  C     0.00002   0.75001   0.85593   0.00000  Uiso   1.00
C1030  C     0.49999   0.75000   0.14422   0.00000  Uiso   1.00
C1031  C     0.25002   0.99986   0.85575   0.00000  Uiso   1.00
C1032  C     0.25003   0.50006   0.14389   0.00000  Uiso   1.00
C1033  C     0.17999   0.57002   0.25000   0.00000  Uiso   1.00
C1034  C     0.00255   0.71681   0.41785   0.00000  Uiso   1.00
C1035  C     0.32003   0.92998   0.74999   0.00000  Uiso   1.00
C1036  C     0.42997   0.67997   0.25000   0.00000  Uiso   1.00
C1037  C     0.07001   0.82001   0.75000   0.00000  Uiso   1.00
C1038  C     0.32002   0.92999   0.25000   0.00000  Uiso   1.00
C1039  C     0.17998   0.57003   0.75001   0.00000  Uiso   1.00
C1040  C     0.07003   0.82003   0.25000   0.00000  Uiso   1.00
C1041  C     0.42998   0.67998   0.75000   0.00000  Uiso   1.00
C1042  C     0.17996   0.92996   0.75000   0.00000  Uiso   1.00
C1043  C     0.32003   0.57003   0.25000   0.00000  Uiso   1.00
C1044  C     0.43001   0.81998   0.75002   0.00000  Uiso   1.00
C1045  C     0.48482   0.77968   0.58140   0.00000  Uiso   1.00
C1046  C     0.07000   0.67999   0.25000   0.00000  Uiso   1.00
C1047  C     0.32002   0.57002   0.75000   0.00000  Uiso   1.00
C1048  C     0.17998   0.92997   0.25000   0.00000  Uiso   1.00
C1049  C     0.06998   0.68001   0.74998   0.00000  Uiso   1.00
C1050  C     0.42999   0.82000   0.25000   0.00000  Uiso   1.00
C1051  C     0.11499   0.91204   0.25481   0.00000  Uiso   1.00
C1052  C     0.38432   0.58860   0.74042   0.00000  Uiso   1.00
C1053  C     0.10521   0.63235   0.28437   0.00000  Uiso   1.00
C1054  C     0.40006   0.87279   0.71888   0.00000  Uiso   1.00
C1055  C     0.38501   0.58796   0.25482   0.00000  Uiso   1.00
C1056  C     0.26839   0.97221   0.41948   0.00000  Uiso   1.00
C1057  C     0.14198   0.88490   0.78519   0.00000  Uiso   1.00
C1058  C     0.39477   0.86767   0.28437   0.00000  Uiso   1.00
C1059  C     0.09998   0.62720   0.71884   0.00000  Uiso   1.00
C1060  C     0.12732   0.60036   0.71866   0.00000  Uiso   1.00
C1061  C     0.36759   0.89465   0.28441   0.00000  Uiso   1.00
C1062  C     0.11523   0.85762   0.78514   0.00000  Uiso   1.00
C1063  C     0.41208   0.61493   0.25436   0.00000  Uiso   1.00
C1064  C     0.37271   0.89962   0.71867   0.00000  Uiso   1.00
C1065  C     0.13240   0.60538   0.28442   0.00000  Uiso   1.00
C1066  C     0.41137   0.61565   0.74043   0.00000  Uiso   1.00
C1067  C     0.22208   0.51796   0.58200   0.00000  Uiso   1.00
C1068  C     0.08791   0.88507   0.25434   0.00000  Uiso   1.00
C1069  C     0.36565   0.66137   0.75957   0.00000  Uiso   1.00
C1070  C     0.13508   0.83791   0.24566   0.00000  Uiso   1.00
C1071  C     0.35037   0.87733   0.78135   0.00000  Uiso   1.00
C1072  C     0.14465   0.61759   0.21559   0.00000  Uiso   1.00
C1073  C     0.10762   0.86524   0.71486   0.00000  Uiso   1.00
C1074  C     0.36493   0.66208   0.24564   0.00000  Uiso   1.00
C1075  C     0.14962   0.62272   0.78133   0.00000  Uiso   1.00
C1076  C     0.35538   0.88241   0.21558   0.00000  Uiso   1.00
C1077  C     0.38235   0.85521   0.21563   0.00000  Uiso   1.00
C1078  C     0.23354   0.52923   0.91772   0.00000  Uiso   1.00
C1079  C     0.12279   0.65006   0.78112   0.00000  Uiso   1.00
C1080  C     0.33796   0.63501   0.24517   0.00000  Uiso   1.00
C1081  C     0.13490   0.89199   0.71480   0.00000  Uiso   1.00
C1082  C     0.11767   0.64477   0.21563   0.00000  Uiso   1.00
C1083  C     0.37721   0.84999   0.78118   0.00000  Uiso   1.00
C1084  C     0.16204   0.86499   0.24519   0.00000  Uiso   1.00
C1085  C     0.33860   0.63432   0.75958   0.00000  Uiso   1.00
C1086  C     0.00667   0.71678   0.45870   0.00000  Uiso   1.00
C1087  C     0.48997   0.78219   0.54083   0.00000  Uiso   1.00
C1088  C     0.27395   0.97627   0.45978   0.00000  Uiso   1.00
H1089  H     0.05425   0.80417   0.38391   0.00000  Uiso   1.00
H1090  H     0.09193   0.65132   0.58861   0.00000  Uiso   1.00
H1091  H     0.01618   0.67242   0.90412   0.00000  Uiso   1.00
H1092  H     0.09968   0.65898   0.91048   0.00000  Uiso   1.00
H1093  H     0.06754   0.65964   0.95034   0.00000  Uiso   1.00
H1094  H     0.06685   0.60584   0.88109   0.00000  Uiso   1.00
H1095  H     0.03413   0.60659   0.92071   0.00000  Uiso   1.00
H1096  H     0.08161   0.59604   0.93003   0.00000  Uiso   1.00
H1097  H     0.44555   0.69620   0.11684   0.00000  Uiso   1.00
H1098  H     0.41458   0.70439   0.07654   0.00000  Uiso   1.00
H1099  H     0.39888   0.72270   0.16246   0.00000  Uiso   1.00
H1100  H     0.36773   0.72843   0.12225   0.00000  Uiso   1.00
H1101  H     0.09061   0.68403   0.54930   0.00000  Uiso   1.00
H1102  H     0.40007   0.65540   0.15211   0.00000  Uiso   1.00
H1103  H     0.37090   0.66011   0.10978   0.00000  Uiso   1.00
H1104  H     0.35354   0.67128   0.15737   0.00000  Uiso   1.00
H1105  H     0.14476   0.68443   0.61821   0.00000  Uiso   1.00
H1106  H     0.14331   0.71779   0.57923   0.00000  Uiso   1.00
H1107  H     0.15451   0.67064   0.56892   0.00000  Uiso   1.00
H1108  H     0.24550   0.60001   0.36851   0.00000  Uiso   1.00
H1109  H     0.27700   0.57275   0.39559   0.00000  Uiso   1.00
H1110  H     0.21995   0.62690   0.42979   0.00000  Uiso   1.00
H1111  H     0.25216   0.60019   0.45780   0.00000  Uiso   1.00
H1112  H     0.27202   0.65810   0.39609   0.00000  Uiso   1.00
H1113  H     0.04565   0.83588   0.42347   0.00000  Uiso   1.00
H1114  H     0.30424   0.63109   0.42410   0.00000  Uiso   1.00
H1115  H     0.27453   0.66350   0.44815   0.00000  Uiso   1.00
H1116  H     0.33760   0.50339   0.64346   0.00000  Uiso   1.00
H1117  H     0.31835   0.53080   0.60574   0.00000  Uiso   1.00
H1118  H     0.38181   0.97547   0.59566   0.00000  Uiso   1.00
H1119  H     0.36223   0.50338   0.55773   0.00000  Uiso   1.00
H1120  H     0.40004   0.53187   0.63211   0.00000  Uiso   1.00
H1121  H     0.38022   0.56005   0.59421   0.00000  Uiso   1.00
H1122  H     0.41916   0.53119   0.58378   0.00000  Uiso   1.00
H1123  H     0.44574   0.69590   0.38412   0.00000  Uiso   1.00
H1124  H     0.02857   0.84982   0.33694   0.00000  Uiso   1.00
H1125  H     0.45444   0.66415   0.42360   0.00000  Uiso   1.00
H1126  H     0.47135   0.65030   0.33700   0.00000  Uiso   1.00
H1127  H     0.47812   0.61832   0.37629   0.00000  Uiso   1.00
H1128  H     0.40423   0.65086   0.34914   0.00000  Uiso   1.00
H1129  H     0.41014   0.62057   0.39041   0.00000  Uiso   1.00
H1130  H     0.42031   0.60462   0.34203   0.00000  Uiso   1.00
H1131  H     0.41996   0.79738   0.63581   0.00000  Uiso   1.00
H1132  H     0.42246   0.76624   0.59588   0.00000  Uiso   1.00
H1133  H     0.40908   0.84974   0.58946   0.00000  Uiso   1.00
H1134  H     0.40974   0.81758   0.54962   0.00000  Uiso   1.00
H1135  H     0.02183   0.88175   0.37630   0.00000  Uiso   1.00
H1136  H     0.35590   0.81697   0.61883   0.00000  Uiso   1.00
H1137  H     0.35666   0.78421   0.57925   0.00000  Uiso   1.00
H1138  H     0.34613   0.83169   0.56987   0.00000  Uiso   1.00
H1139  H     0.25619   0.90004   0.36980   0.00000  Uiso   1.00
H1140  H     0.22452   0.92740   0.39654   0.00000  Uiso   1.00
H1141  H     0.28242   0.87460   0.43145   0.00000  Uiso   1.00
H1142  H     0.25001   0.90141   0.45913   0.00000  Uiso   1.00
H1143  H     0.23061   0.84209   0.39876   0.00000  Uiso   1.00
H1144  H     0.19817   0.86922   0.42638   0.00000  Uiso   1.00
H1145  H     0.22840   0.83766   0.45093   0.00000  Uiso   1.00
H1146  H     0.09571   0.84929   0.34894   0.00000  Uiso   1.00
H1147  H     0.15984   0.99779   0.63871   0.00000  Uiso   1.00
H1148  H     0.17955   0.97165   0.60022   0.00000  Uiso   1.00
H1149  H     0.11997   0.53130   0.59058   0.00000  Uiso   1.00
H1150  H     0.13959   0.50417   0.55199   0.00000  Uiso   1.00
H1151  H     0.09621   0.97454   0.62226   0.00000  Uiso   1.00
H1152  H     0.11617   0.94708   0.58374   0.00000  Uiso   1.00
H1153  H     0.07981   0.97902   0.57305   0.00000  Uiso   1.00
H1154  H     0.25344   0.58761   0.85648   0.00000  Uiso   1.00
H1155  H     0.28089   0.56829   0.89414   0.00000  Uiso   1.00
H1156  H     0.22568   0.63184   0.90436   0.00000  Uiso   1.00
H1157  H     0.08983   0.87955   0.39026   0.00000  Uiso   1.00
H1158  H     0.25361   0.61218   0.94223   0.00000  Uiso   1.00
H1159  H     0.28205   0.65000   0.86783   0.00000  Uiso   1.00
H1160  H     0.31027   0.63008   0.90565   0.00000  Uiso   1.00
H1161  H     0.28150   0.66907   0.91618   0.00000  Uiso   1.00
H1162  H     0.34992   0.99526   0.13155   0.00000  Uiso   1.00
H1163  H     0.32288   0.52678   0.10428   0.00000  Uiso   1.00
H1164  H     0.37691   0.96943   0.07048   0.00000  Uiso   1.00
H1165  H     0.35040   0.50162   0.04225   0.00000  Uiso   1.00
H1166  H     0.40818   0.52152   0.10409   0.00000  Uiso   1.00
H1167  H     0.38138   0.55372   0.07582   0.00000  Uiso   1.00
H1168  H     0.07957   0.89553   0.34194   0.00000  Uiso   1.00
H1169  H     0.41376   0.52380   0.05204   0.00000  Uiso   1.00
H1170  H     0.45281   0.83042   0.86412   0.00000  Uiso   1.00
H1171  H     0.48459   0.82756   0.90341   0.00000  Uiso   1.00
H1172  H     0.40135   0.84200   0.91129   0.00000  Uiso   1.00
H1173  H     0.43398   0.84067   0.95067   0.00000  Uiso   1.00
H1174  H     0.46782   0.89336   0.92085   0.00000  Uiso   1.00
H1175  H     0.42064   0.90457   0.93101   0.00000  Uiso   1.00
H1176  H     0.43457   0.89482   0.88177   0.00000  Uiso   1.00
H1177  H     0.05425   0.80413   0.11605   0.00000  Uiso   1.00
H1178  H     0.08597   0.79543   0.07651   0.00000  Uiso   1.00
H1179  H     0.08036   0.70267   0.63590   0.00000  Uiso   1.00
H1180  H     0.09981   0.77839   0.16307   0.00000  Uiso   1.00
H1181  H     0.13175   0.77154   0.12374   0.00000  Uiso   1.00
H1182  H     0.09943   0.84552   0.15097   0.00000  Uiso   1.00
H1183  H     0.12973   0.83952   0.10969   0.00000  Uiso   1.00
H1184  H     0.14563   0.82929   0.15805   0.00000  Uiso   1.00
H1185  H     0.24774   0.90981   0.86129   0.00000  Uiso   1.00
H1186  H     0.22158   0.92958   0.89973   0.00000  Uiso   1.00
H1187  H     0.28116   0.86994   0.90949   0.00000  Uiso   1.00
H1188  H     0.25403   0.88963   0.94804   0.00000  Uiso   1.00
H1189  H     0.22440   0.84622   0.87780   0.00000  Uiso   1.00
H1190  H     0.07752   0.73454   0.59669   0.00000  Uiso   1.00
H1191  H     0.19693   0.86625   0.91627   0.00000  Uiso   1.00
H1192  H     0.22882   0.82986   0.92703   0.00000  Uiso   1.00
H1193  H     0.15025   0.50640   0.13036   0.00000  Uiso   1.00
H1194  H     0.17725   0.97478   0.10313   0.00000  Uiso   1.00
H1195  H     0.12448   0.53321   0.06919   0.00000  Uiso   1.00
H1196  H     0.15097   0.50095   0.04098   0.00000  Uiso   1.00
H1197  H     0.09204   0.98120   0.10167   0.00000  Uiso   1.00
H1198  H     0.11879   0.94894   0.07338   0.00000  Uiso   1.00
H1199  H     0.08715   0.97957   0.04952   0.00000  Uiso   1.00
H1200  H     0.04729   0.66992   0.86417   0.00000  Uiso   1.00
O1201  O     0.25000   0.50000   0.25000   0.00000  Uiso   1.00
O1202  O     0.25000   0.96963   0.66245   0.00000  Uiso   1.00
O1203  O     0.46963   0.75000   0.33755   0.00000  Uiso   1.00
O1204  O     0.03036   0.75000   0.66245   0.00000  Uiso   1.00
O1205  O     0.00000   0.71963   0.83755   0.00000  Uiso   1.00
O1206  O    -0.00000   0.78036   0.16245   0.00000  Uiso   1.00
O1207  O     0.28036   0.50000   0.83755   0.00000  Uiso   1.00
O1208  O     0.21963   0.50000   0.16245   0.00000  Uiso   1.00
O1209  O    -0.00000   0.78036   0.83755   0.00000  Uiso   1.00
O1210  O     0.00000   0.71963   0.16245   0.00000  Uiso   1.00
O1211  O     0.21963   0.50000   0.83755   0.00000  Uiso   1.00
O1212  O     0.25000   0.50000   0.75000   0.00000  Uiso   1.00
O1213  O     0.28036   0.50000   0.16245   0.00000  Uiso   1.00
O1214  O     0.20724   0.57307   0.27302   0.00000  Uiso   1.00
O1215  O     0.29275   0.92692   0.72698   0.00000  Uiso   1.00
O1216  O     0.42692   0.70724   0.27302   0.00000  Uiso   1.00
O1217  O     0.07307   0.79275   0.72698   0.00000  Uiso   1.00
O1218  O     0.29275   0.92692   0.27302   0.00000  Uiso   1.00
O1219  O     0.20724   0.57307   0.72698   0.00000  Uiso   1.00
O1220  O     0.07307   0.79275   0.27302   0.00000  Uiso   1.00
O1221  O     0.42692   0.70724   0.72698   0.00000  Uiso   1.00
O1222  O     0.20724   0.92692   0.72698   0.00000  Uiso   1.00
O1223  O     0.00000   0.75000   0.25000   0.00000  Uiso   1.00
O1224  O     0.29275   0.57307   0.27302   0.00000  Uiso   1.00
O1225  O     0.42692   0.79275   0.72698   0.00000  Uiso   1.00
O1226  O     0.07307   0.70724   0.27302   0.00000  Uiso   1.00
O1227  O     0.29275   0.57307   0.72698   0.00000  Uiso   1.00
O1228  O     0.20724   0.92692   0.27302   0.00000  Uiso   1.00
O1229  O     0.07307   0.70724   0.72698   0.00000  Uiso   1.00
O1230  O     0.42692   0.79275   0.27302   0.00000  Uiso   1.00
O1231  O     0.45724   0.82307   0.77302   0.00000  Uiso   1.00
O1232  O     0.04275   0.67692   0.22698   0.00000  Uiso   1.00
O1233  O     0.17692   0.95724   0.77302   0.00000  Uiso   1.00
O1234  O    -0.00000   0.75000   0.75000   0.00000  Uiso   1.00
O1235  O     0.32307   0.54275   0.22698   0.00000  Uiso   1.00
O1236  O     0.04275   0.67692   0.77302   0.00000  Uiso   1.00
O1237  O     0.45724   0.82307   0.22698   0.00000  Uiso   1.00
O1238  O     0.32307   0.54275   0.77302   0.00000  Uiso   1.00
O1239  O     0.17692   0.95724   0.22698   0.00000  Uiso   1.00
O1240  O     0.45724   0.67692   0.22698   0.00000  Uiso   1.00
O1241  O     0.04275   0.82307   0.77302   0.00000  Uiso   1.00
O1242  O     0.17692   0.54275   0.22698   0.00000  Uiso   1.00
O1243  O     0.32307   0.95724   0.77302   0.00000  Uiso   1.00
O1244  O     0.04275   0.82307   0.22698   0.00000  Uiso   1.00
O1245  O     0.25000   0.96963   0.33755   0.00000  Uiso   1.00
O1246  O     0.45724   0.67692   0.77302   0.00000  Uiso   1.00
O1247  O     0.32307   0.95724   0.22698   0.00000  Uiso   1.00
O1248  O     0.17692   0.54275   0.77302   0.00000  Uiso   1.00
O1249  O     0.49911   0.81528   0.39646   0.00000  Uiso   1.00
O1250  O     0.03521   0.69425   0.60156   0.00000  Uiso   1.00
O1251  O     0.22035   0.55954   0.39987   0.00000  Uiso   1.00
O1252  O     0.30998   0.97276   0.60285   0.00000  Uiso   1.00
O1253  O     0.00091   0.68478   0.39648   0.00000  Uiso   1.00
O1254  O     0.46518   0.80600   0.60160   0.00000  Uiso   1.00
O1255  O     0.28100   0.94135   0.40018   0.00000  Uiso   1.00
O1256  O     0.25000   0.53036   0.66245   0.00000  Uiso   1.00
O1257  O     0.19118   0.52913   0.60211   0.00000  Uiso   1.00
O1258  O     0.22283   0.56002   0.89713   0.00000  Uiso   1.00
O1259  O     0.30945   0.97017   0.10014   0.00000  Uiso   1.00
O1260  O     0.44429   0.78527   0.89843   0.00000  Uiso   1.00
O1261  O     0.06525   0.74895   0.10354   0.00000  Uiso   1.00
O1262  O     0.27907   0.94115   0.89789   0.00000  Uiso   1.00
O1263  O     0.19147   0.53122   0.09984   0.00000  Uiso   1.00
O1264  O     0.05597   0.71512   0.89840   0.00000  Uiso   1.00
O1265  O     0.43474   0.75119   0.10352   0.00000  Uiso   1.00
O1266  O     0.03036   0.75000   0.33755   0.00000  Uiso   1.00
O1267  O     0.46963   0.75000   0.66245   0.00000  Uiso   1.00
O1268  O     0.25000   0.53036   0.33755   0.00000  Uiso   1.00
Zn1269 Zn    0.20659   0.50000   0.21735   0.00000  Uiso   1.00
Zn1270 Zn    0.04340   0.75000   0.28265   0.00000  Uiso   1.00
Zn1271 Zn    0.25000   0.95659   0.71735   0.00000  Uiso   1.00
Zn1272 Zn    0.25000   0.54340   0.28265   0.00000  Uiso   1.00
Zn1273 Zn    0.04340   0.75000   0.71735   0.00000  Uiso   1.00
Zn1274 Zn    0.45659   0.75000   0.28265   0.00000  Uiso   1.00
Zn1275 Zn    0.25000   0.54340   0.71735   0.00000  Uiso   1.00
Zn1276 Zn    0.25000   0.95659   0.28265   0.00000  Uiso   1.00
Zn1277 Zn    0.29340   0.50000   0.78265   0.00000  Uiso   1.00
Zn1278 Zn    0.00000   0.70659   0.21735   0.00000  Uiso   1.00
Zn1279 Zn    0.00000   0.79340   0.78265   0.00000  Uiso   1.00
Zn1280 Zn    0.29340   0.50000   0.21735   0.00000  Uiso   1.00
Zn1281 Zn    0.20659   0.50000   0.78265   0.00000  Uiso   1.00
Zn1282 Zn    0.00000   0.79340   0.21735   0.00000  Uiso   1.00
Zn1283 Zn    0.00000   0.70659   0.78265   0.00000  Uiso   1.00
Zn1284 Zn    0.45659   0.75000   0.71735   0.00000  Uiso   1.00
Br1285 Br    0.53349   0.64047   0.45417   0.00000  Uiso   1.00
Br1286 Br    0.68133   0.59053   0.04682   0.00000  Uiso   1.00
Br1287 Br    0.61209   0.73330   0.95288   0.00000  Uiso   1.00
Br1288 Br    0.89049   0.78368   0.04577   0.00000  Uiso   1.00
Br1289 Br    0.67032   0.58205   0.95324   0.00000  Uiso   1.00
Br1290 Br    0.82133   0.91186   0.04633   0.00000  Uiso   1.00
Br1291 Br    0.88807   0.76747   0.95289   0.00000  Uiso   1.00
Br1292 Br    0.60961   0.71659   0.04569   0.00000  Uiso   1.00
Br1293 Br    0.60153   0.96252   0.26426   0.00000  Uiso   1.00
Br1294 Br    0.89654   0.53901   0.72558   0.00000  Uiso   1.00
Br1295 Br    0.57660   0.64120   0.33076   0.00000  Uiso   1.00
Br1296 Br    0.98346   0.86211   0.54715   0.00000  Uiso   1.00
Br1297 Br    0.93572   0.87080   0.67750   0.00000  Uiso   1.00
Br1298 Br    0.89846   0.53748   0.26427   0.00000  Uiso   1.00
Br1299 Br    0.66611   0.89765   0.83325   0.00000  Uiso   1.00
Br1300 Br    0.92334   0.85883   0.33076   0.00000  Uiso   1.00
Br1301 Br    0.56444   0.62923   0.67736   0.00000  Uiso   1.00
Br1302 Br    0.63049   0.56612   0.67618   0.00000  Uiso   1.00
Br1303 Br    0.85827   0.92273   0.33103   0.00000  Uiso   1.00
Br1304 Br    0.60370   0.83207   0.83286   0.00000  Uiso   1.00
Br1305 Br    0.96280   0.60112   0.26170   0.00000  Uiso   1.00
Br1306 Br    0.86958   0.93380   0.67616   0.00000  Uiso   1.00
Br1307 Br    0.84030   0.93103   0.45317   0.00000  Uiso   1.00
Br1308 Br    0.64172   0.57735   0.33105   0.00000  Uiso   1.00
Br1309 Br    0.96095   0.60338   0.72562   0.00000  Uiso   1.00
Br1310 Br    0.53719   0.89890   0.26164   0.00000  Uiso   1.00
Br1311 Br    0.85338   0.71095   0.77439   0.00000  Uiso   1.00
Br1312 Br    0.64890   0.78719   0.23839   0.00000  Uiso   1.00
Br1313 Br    0.81614   0.88051   0.82385   0.00000  Uiso   1.00
Br1314 Br    0.67273   0.60827   0.16897   0.00000  Uiso   1.00
Br1315 Br    0.58208   0.85371   0.66714   0.00000  Uiso   1.00
Br1316 Br    0.85110   0.71280   0.23836   0.00000  Uiso   1.00
Br1317 Br    0.68381   0.61959   0.82384   0.00000  Uiso   1.00
Br1318 Br    0.67327   0.58439   0.54686   0.00000  Uiso   1.00
Br1319 Br    0.82735   0.89172   0.16894   0.00000  Uiso   1.00
Br1320 Br    0.89120   0.82661   0.16924   0.00000  Uiso   1.00
Br1321 Br    0.62080   0.68573   0.82250   0.00000  Uiso   1.00
Br1322 Br    0.78748   0.64846   0.23572   0.00000  Uiso   1.00
Br1323 Br    0.64764   0.91613   0.66675   0.00000  Uiso   1.00
Br1324 Br    0.60884   0.67334   0.16924   0.00000  Uiso   1.00
Br1325 Br    0.87926   0.81447   0.82267   0.00000  Uiso   1.00
Br1326 Br    0.71253   0.85153   0.23574   0.00000  Uiso   1.00
Br1327 Br    0.78900   0.64654   0.77441   0.00000  Uiso   1.00
Br1328 Br    0.96686   0.85971   0.45432   0.00000  Uiso   1.00
Br1329 Br    0.51739   0.63806   0.54708   0.00000  Uiso   1.00
Br1330 Br    0.66205   0.57157   0.45366   0.00000  Uiso   1.00
Br1331 Br    0.83189   0.92017   0.54677   0.00000  Uiso   1.00
Br1332 Br    0.83429   0.92317   0.95316   0.00000  Uiso   1.00
C1333  C     0.99751   0.78327   0.41785   0.00000  Uiso   1.00
C1334  C     0.77868   0.98272   0.08065   0.00000  Uiso   1.00
C1335  C     0.72488   0.52250   0.54152   0.00000  Uiso   1.00
C1336  C     0.99352   0.78333   0.45872   0.00000  Uiso   1.00
C1337  C     0.51036   0.71796   0.54080   0.00000  Uiso   1.00
C1338  C     0.72782   0.52531   0.45976   0.00000  Uiso   1.00
C1339  C     0.77725   0.97955   0.54161   0.00000  Uiso   1.00
C1340  C     0.77246   0.97485   0.95848   0.00000  Uiso   1.00
C1341  C     0.72634   0.52403   0.04023   0.00000  Uiso   1.00
C1342  C     0.53216   0.73990   0.95918   0.00000  Uiso   1.00
C1343  C     0.96677   0.75673   0.04130   0.00000  Uiso   1.00
C1344  C     0.72961   0.52730   0.95838   0.00000  Uiso   1.00
C1345  C     0.97050   0.76547   0.91862   0.00000  Uiso   1.00
C1346  C     0.77526   0.97777   0.04025   0.00000  Uiso   1.00
C1347  C     0.96796   0.76039   0.95919   0.00000  Uiso   1.00
C1348  C     0.53329   0.74342   0.04129   0.00000  Uiso   1.00
C1349  C     0.59808   0.84808   0.25000   0.00000  Uiso   1.00
C1350  C     0.90191   0.65191   0.75000   0.00000  Uiso   1.00
C1351  C     0.65193   0.59809   0.25001   0.00000  Uiso   1.00
C1352  C     0.84812   0.90188   0.75000   0.00000  Uiso   1.00
C1353  C     0.90191   0.65192   0.25000   0.00000  Uiso   1.00
C1354  C     0.59804   0.84804   0.75000   0.00000  Uiso   1.00
C1355  C     0.84809   0.90193   0.24999   0.00000  Uiso   1.00
C1356  C     0.53323   0.74741   0.08215   0.00000  Uiso   1.00
C1357  C     0.65188   0.59812   0.75001   0.00000  Uiso   1.00
C1358  C     0.59801   0.65199   0.74998   0.00000  Uiso   1.00
C1359  C     0.90193   0.84805   0.25000   0.00000  Uiso   1.00
C1360  C     0.65187   0.90188   0.75000   0.00000  Uiso   1.00
C1361  C     0.84809   0.59809   0.25000   0.00000  Uiso   1.00
C1362  C     0.90199   0.84801   0.75003   0.00000  Uiso   1.00
C1363  C     0.59805   0.65194   0.25000   0.00000  Uiso   1.00
C1364  C     0.84807   0.59807   0.75000   0.00000  Uiso   1.00
C1365  C     0.65191   0.90191   0.25000   0.00000  Uiso   1.00
C1366  C     0.50011   0.75006   0.47922   0.00000  Uiso   1.00
C1367  C     0.76793   0.97206   0.91801   0.00000  Uiso   1.00
C1368  C     0.50014   0.75007   0.52021   0.00000  Uiso   1.00
C1369  C     0.75095   0.50086   0.48027   0.00000  Uiso   1.00
C1370  C     0.75102   0.50095   0.52111   0.00000  Uiso   1.00
C1371  C     0.75095   0.50104   0.97889   0.00000  Uiso   1.00
C1372  C     0.75087   0.50097   0.01973   0.00000  Uiso   1.00
C1373  C     0.50005   0.75012   0.97979   0.00000  Uiso   1.00
C1374  C     0.50004   0.75009   0.02078   0.00000  Uiso   1.00
C1375  C     0.53605   0.82667   0.39434   0.00000  Uiso   1.00
C1376  C     0.53898   0.85858   0.36583   0.00000  Uiso   1.00
C1377  C     0.57853   0.87144   0.36156   0.00000  Uiso   1.00
C1378  C     0.72227   0.51849   0.08052   0.00000  Uiso   1.00
C1379  C     0.57233   0.70537   0.60490   0.00000  Uiso   1.00
C1380  C     0.59701   0.68035   0.58062   0.00000  Uiso   1.00
C1381  C     0.63740   0.68894   0.58725   0.00000  Uiso   1.00
C1382  C     0.74915   0.58547   0.39662   0.00000  Uiso   1.00
C1383  C     0.74744   0.61381   0.42940   0.00000  Uiso   1.00
C1384  C     0.77641   0.64342   0.42398   0.00000  Uiso   1.00
C1385  C     0.83176   0.50384   0.61179   0.00000  Uiso   1.00
C1386  C     0.86790   0.50191   0.58942   0.00000  Uiso   1.00
C1387  C     0.89333   0.53327   0.60067   0.00000  Uiso   1.00
C1388  C     0.96397   0.67339   0.39446   0.00000  Uiso   1.00
C1389  C     0.52966   0.73478   0.91860   0.00000  Uiso   1.00
C1390  C     0.96097   0.64151   0.36590   0.00000  Uiso   1.00
C1391  C     0.92141   0.62869   0.36170   0.00000  Uiso   1.00
C1392  C     0.92796   0.79518   0.60474   0.00000  Uiso   1.00
C1393  C     0.90353   0.82091   0.58103   0.00000  Uiso   1.00
C1394  C     0.86305   0.81284   0.58775   0.00000  Uiso   1.00
C1395  C     0.75252   0.91503   0.39764   0.00000  Uiso   1.00
C1396  C     0.75477   0.88732   0.43098   0.00000  Uiso   1.00
C1397  C     0.72616   0.85724   0.42636   0.00000  Uiso   1.00
C1398  C     0.66729   0.99891   0.60746   0.00000  Uiso   1.00
C1399  C     0.63248   0.50438   0.58339   0.00000  Uiso   1.00
C1400  C     0.96679   0.75264   0.08215   0.00000  Uiso   1.00
C1401  C     0.60451   0.97430   0.59120   0.00000  Uiso   1.00
C1402  C     0.75393   0.58174   0.88814   0.00000  Uiso   1.00
C1403  C     0.75210   0.61788   0.91054   0.00000  Uiso   1.00
C1404  C     0.78350   0.64326   0.89926   0.00000  Uiso   1.00
C1405  C     0.83548   0.99888   0.10339   0.00000  Uiso   1.00
C1406  C     0.86392   0.99695   0.07071   0.00000  Uiso   1.00
C1407  C     0.89361   0.52584   0.07612   0.00000  Uiso   1.00
C1408  C     0.95544   0.82238   0.89512   0.00000  Uiso   1.00
C1409  C     0.93037   0.84707   0.91935   0.00000  Uiso   1.00
C1410  C     0.93899   0.88746   0.91275   0.00000  Uiso   1.00
C1411  C     0.50000   0.75003   0.39802   0.00000  Uiso   1.00
C1412  C     0.57672   0.78587   0.10564   0.00000  Uiso   1.00
C1413  C     0.60862   0.78875   0.13417   0.00000  Uiso   1.00
C1414  C     0.62156   0.82828   0.13840   0.00000  Uiso   1.00
C1415  C     0.74884   0.91729   0.89254   0.00000  Uiso   1.00
C1416  C     0.75425   0.88249   0.91665   0.00000  Uiso   1.00
C1417  C     0.72415   0.85455   0.90885   0.00000  Uiso   1.00
C1418  C     0.66503   0.50285   0.10237   0.00000  Uiso   1.00
C1419  C     0.63709   0.50551   0.06928   0.00000  Uiso   1.00
C1420  C     0.60693   0.97698   0.07387   0.00000  Uiso   1.00
C1421  C     0.54512   0.67790   0.89524   0.00000  Uiso   1.00
C1422  C     0.50006   0.75004   0.60162   0.00000  Uiso   1.00
C1423  C     0.57084   0.65344   0.91892   0.00000  Uiso   1.00
C1424  C     0.56275   0.61297   0.91218   0.00000  Uiso   1.00
C1425  C     0.92325   0.71429   0.10575   0.00000  Uiso   1.00
C1426  C     0.89079   0.71166   0.13360   0.00000  Uiso   1.00
C1427  C     0.87812   0.67211   0.13843   0.00000  Uiso   1.00
C1428  C     0.75031   0.50023   0.39885   0.00000  Uiso   1.00
C1429  C     0.51544   0.72048   0.58138   0.00000  Uiso   1.00
C1430  C     0.75022   0.50022   0.60209   0.00000  Uiso   1.00
C1431  C     0.75022   0.50022   0.89791   0.00000  Uiso   1.00
C1432  C     0.75024   0.50032   0.10116   0.00000  Uiso   1.00
C1433  C     0.50005   0.75005   0.89838   0.00000  Uiso   1.00
C1434  C     0.50000   0.74999   0.10198   0.00000  Uiso   1.00
C1435  C     0.51593   0.68456   0.47960   0.00000  Uiso   1.00
C1436  C     0.98445   0.81534   0.52043   0.00000  Uiso   1.00
C1437  C     0.80063   0.95568   0.48011   0.00000  Uiso   1.00
C1438  C     0.70155   0.54662   0.52088   0.00000  Uiso   1.00
C1439  C     0.98440   0.81558   0.47966   0.00000  Uiso   1.00
C1440  C     0.73279   0.52872   0.41935   0.00000  Uiso   1.00
C1441  C     0.51599   0.68483   0.52038   0.00000  Uiso   1.00
C1442  C     0.70175   0.54662   0.48017   0.00000  Uiso   1.00
C1443  C     0.80134   0.95616   0.52087   0.00000  Uiso   1.00
C1444  C     0.79653   0.95148   0.97913   0.00000  Uiso   1.00
C1445  C     0.70582   0.55076   0.01989   0.00000  Uiso   1.00
C1446  C     0.56530   0.73432   0.97958   0.00000  Uiso   1.00
C1447  C     0.93456   0.76603   0.02038   0.00000  Uiso   1.00
C1448  C     0.70628   0.55145   0.97913   0.00000  Uiso   1.00
C1449  C     0.79651   0.95165   0.01983   0.00000  Uiso   1.00
C1450  C     0.93484   0.76606   0.97960   0.00000  Uiso   1.00
C1451  C     0.77920   0.98349   0.58228   0.00000  Uiso   1.00
C1452  C     0.56553   0.73424   0.02035   0.00000  Uiso   1.00
C1453  C     0.75005   0.50003   0.35611   0.00000  Uiso   1.00
C1454  C     0.74986   0.50002   0.64425   0.00000  Uiso   1.00
C1455  C     0.50000   0.75001   0.35578   0.00000  Uiso   1.00
C1456  C     0.50001   0.75002   0.64407   0.00000  Uiso   1.00
C1457  C     0.50002   0.75001   0.85593   0.00000  Uiso   1.00
C1458  C     0.99999   0.75000   0.14422   0.00000  Uiso   1.00
C1459  C     0.75002   0.99986   0.85575   0.00000  Uiso   1.00
C1460  C     0.75003   0.50006   0.14389   0.00000  Uiso   1.00
C1461  C     0.67999   0.57002   0.25000   0.00000  Uiso   1.00
C1462  C     0.50255   0.71681   0.41785   0.00000  Uiso   1.00
C1463  C     0.82003   0.92998   0.74999   0.00000  Uiso   1.00
C1464  C     0.92997   0.67997   0.25000   0.00000  Uiso   1.00
C1465  C     0.57001   0.82001   0.75000   0.00000  Uiso   1.00
C1466  C     0.82002   0.92999   0.25000   0.00000  Uiso   1.00
C1467  C     0.67998   0.57003   0.75001   0.00000  Uiso   1.00
C1468  C     0.57003   0.82003   0.25000   0.00000  Uiso   1.00
C1469  C     0.92998   0.67998   0.75000   0.00000  Uiso   1.00
C1470  C     0.67996   0.92996   0.75000   0.00000  Uiso   1.00
C1471  C     0.82003   0.57003   0.25000   0.00000  Uiso   1.00
C1472  C     0.93001   0.81998   0.75002   0.00000  Uiso   1.00
C1473  C     0.98482   0.77968   0.58140   0.00000  Uiso   1.00
C1474  C     0.57000   0.67999   0.25000   0.00000  Uiso   1.00
C1475  C     0.82002   0.57002   0.75000   0.00000  Uiso   1.00
C1476  C     0.67998   0.92997   0.25000   0.00000  Uiso   1.00
C1477  C     0.56998   0.68001   0.74998   0.00000  Uiso   1.00
C1478  C     0.92999   0.82000   0.25000   0.00000  Uiso   1.00
C1479  C     0.61499   0.91204   0.25481   0.00000  Uiso   1.00
C1480  C     0.88432   0.58860   0.74042   0.00000  Uiso   1.00
C1481  C     0.60521   0.63235   0.28437   0.00000  Uiso   1.00
C1482  C     0.90006   0.87279   0.71888   0.00000  Uiso   1.00
C1483  C     0.88501   0.58796   0.25482   0.00000  Uiso   1.00
C1484  C     0.76839   0.97221   0.41948   0.00000  Uiso   1.00
C1485  C     0.64198   0.88490   0.78519   0.00000  Uiso   1.00
C1486  C     0.89477   0.86767   0.28437   0.00000  Uiso   1.00
C1487  C     0.59998   0.62720   0.71884   0.00000  Uiso   1.00
C1488  C     0.62732   0.60036   0.71866   0.00000  Uiso   1.00
C1489  C     0.86759   0.89465   0.28441   0.00000  Uiso   1.00
C1490  C     0.61523   0.85762   0.78514   0.00000  Uiso   1.00
C1491  C     0.91208   0.61493   0.25436   0.00000  Uiso   1.00
C1492  C     0.87271   0.89962   0.71867   0.00000  Uiso   1.00
C1493  C     0.63240   0.60538   0.28442   0.00000  Uiso   1.00
C1494  C     0.91137   0.61565   0.74043   0.00000  Uiso   1.00
C1495  C     0.72208   0.51796   0.58200   0.00000  Uiso   1.00
C1496  C     0.58791   0.88507   0.25434   0.00000  Uiso   1.00
C1497  C     0.86565   0.66137   0.75957   0.00000  Uiso   1.00
C1498  C     0.63508   0.83791   0.24566   0.00000  Uiso   1.00
C1499  C     0.85037   0.87733   0.78135   0.00000  Uiso   1.00
C1500  C     0.64465   0.61759   0.21559   0.00000  Uiso   1.00
C1501  C     0.60762   0.86524   0.71486   0.00000  Uiso   1.00
C1502  C     0.86493   0.66208   0.24564   0.00000  Uiso   1.00
C1503  C     0.64962   0.62272   0.78133   0.00000  Uiso   1.00
C1504  C     0.85538   0.88241   0.21558   0.00000  Uiso   1.00
C1505  C     0.88235   0.85521   0.21563   0.00000  Uiso   1.00
C1506  C     0.73354   0.52923   0.91772   0.00000  Uiso   1.00
C1507  C     0.62279   0.65006   0.78112   0.00000  Uiso   1.00
C1508  C     0.83796   0.63501   0.24517   0.00000  Uiso   1.00
C1509  C     0.63490   0.89199   0.71480   0.00000  Uiso   1.00
C1510  C     0.61767   0.64477   0.21563   0.00000  Uiso   1.00
C1511  C     0.87721   0.84999   0.78118   0.00000  Uiso   1.00
C1512  C     0.66204   0.86499   0.24519   0.00000  Uiso   1.00
C1513  C     0.83860   0.63432   0.75958   0.00000  Uiso   1.00
C1514  C     0.50667   0.71678   0.45870   0.00000  Uiso   1.00
C1515  C     0.98997   0.78219   0.54083   0.00000  Uiso   1.00
C1516  C     0.77395   0.97627   0.45978   0.00000  Uiso   1.00
H1517  H     0.55425   0.80417   0.38391   0.00000  Uiso   1.00
H1518  H     0.59193   0.65132   0.58861   0.00000  Uiso   1.00
H1519  H     0.51618   0.67242   0.90412   0.00000  Uiso   1.00
H1520  H     0.59968   0.65898   0.91048   0.00000  Uiso   1.00
H1521  H     0.56754   0.65964   0.95034   0.00000  Uiso   1.00
H1522  H     0.56685   0.60584   0.88109   0.00000  Uiso   1.00
H1523  H     0.53413   0.60659   0.92071   0.00000  Uiso   1.00
H1524  H     0.58161   0.59604   0.93003   0.00000  Uiso   1.00
H1525  H     0.94555   0.69620   0.11684   0.00000  Uiso   1.00
H1526  H     0.91458   0.70439   0.07654   0.00000  Uiso   1.00
H1527  H     0.89888   0.72270   0.16246   0.00000  Uiso   1.00
H1528  H     0.86773   0.72843   0.12225   0.00000  Uiso   1.00
H1529  H     0.59061   0.68403   0.54930   0.00000  Uiso   1.00
H1530  H     0.90007   0.65540   0.15211   0.00000  Uiso   1.00
H1531  H     0.87090   0.66011   0.10978   0.00000  Uiso   1.00
H1532  H     0.85354   0.67128   0.15737   0.00000  Uiso   1.00
H1533  H     0.64476   0.68443   0.61821   0.00000  Uiso   1.00
H1534  H     0.64331   0.71779   0.57923   0.00000  Uiso   1.00
H1535  H     0.65451   0.67064   0.56892   0.00000  Uiso   1.00
H1536  H     0.74550   0.60001   0.36851   0.00000  Uiso   1.00
H1537  H     0.77700   0.57275   0.39559   0.00000  Uiso   1.00
H1538  H     0.71995   0.62690   0.42979   0.00000  Uiso   1.00
H1539  H     0.75216   0.60019   0.45780   0.00000  Uiso   1.00
H1540  H     0.77202   0.65810   0.39609   0.00000  Uiso   1.00
H1541  H     0.54565   0.83588   0.42347   0.00000  Uiso   1.00
H1542  H     0.80424   0.63109   0.42410   0.00000  Uiso   1.00
H1543  H     0.77453   0.66350   0.44815   0.00000  Uiso   1.00
H1544  H     0.83760   0.50339   0.64346   0.00000  Uiso   1.00
H1545  H     0.81835   0.53080   0.60574   0.00000  Uiso   1.00
H1546  H     0.88181   0.97547   0.59566   0.00000  Uiso   1.00
H1547  H     0.86223   0.50338   0.55773   0.00000  Uiso   1.00
H1548  H     0.90004   0.53187   0.63211   0.00000  Uiso   1.00
H1549  H     0.88022   0.56005   0.59421   0.00000  Uiso   1.00
H1550  H     0.91916   0.53119   0.58378   0.00000  Uiso   1.00
H1551  H     0.94574   0.69590   0.38412   0.00000  Uiso   1.00
H1552  H     0.52857   0.84982   0.33694   0.00000  Uiso   1.00
H1553  H     0.95444   0.66415   0.42360   0.00000  Uiso   1.00
H1554  H     0.97135   0.65030   0.33700   0.00000  Uiso   1.00
H1555  H     0.97812   0.61832   0.37629   0.00000  Uiso   1.00
H1556  H     0.90423   0.65086   0.34914   0.00000  Uiso   1.00
H1557  H     0.91014   0.62057   0.39041   0.00000  Uiso   1.00
H1558  H     0.92031   0.60462   0.34203   0.00000  Uiso   1.00
H1559  H     0.91996   0.79738   0.63581   0.00000  Uiso   1.00
H1560  H     0.92246   0.76624   0.59588   0.00000  Uiso   1.00
H1561  H     0.90908   0.84974   0.58946   0.00000  Uiso   1.00
H1562  H     0.90974   0.81758   0.54962   0.00000  Uiso   1.00
H1563  H     0.52183   0.88175   0.37630   0.00000  Uiso   1.00
H1564  H     0.85590   0.81697   0.61883   0.00000  Uiso   1.00
H1565  H     0.85666   0.78421   0.57925   0.00000  Uiso   1.00
H1566  H     0.84613   0.83169   0.56987   0.00000  Uiso   1.00
H1567  H     0.75619   0.90004   0.36980   0.00000  Uiso   1.00
H1568  H     0.72452   0.92740   0.39654   0.00000  Uiso   1.00
H1569  H     0.78242   0.87460   0.43145   0.00000  Uiso   1.00
H1570  H     0.75001   0.90141   0.45913   0.00000  Uiso   1.00
H1571  H     0.73061   0.84209   0.39876   0.00000  Uiso   1.00
H1572  H     0.69817   0.86922   0.42638   0.00000  Uiso   1.00
H1573  H     0.72840   0.83766   0.45093   0.00000  Uiso   1.00
H1574  H     0.59571   0.84929   0.34894   0.00000  Uiso   1.00
H1575  H     0.65984   0.99779   0.63871   0.00000  Uiso   1.00
H1576  H     0.67955   0.97165   0.60022   0.00000  Uiso   1.00
H1577  H     0.61997   0.53130   0.59058   0.00000  Uiso   1.00
H1578  H     0.63959   0.50417   0.55199   0.00000  Uiso   1.00
H1579  H     0.59621   0.97454   0.62226   0.00000  Uiso   1.00
H1580  H     0.61617   0.94708   0.58374   0.00000  Uiso   1.00
H1581  H     0.57981   0.97902   0.57305   0.00000  Uiso   1.00
H1582  H     0.75344   0.58761   0.85648   0.00000  Uiso   1.00
H1583  H     0.78089   0.56829   0.89414   0.00000  Uiso   1.00
H1584  H     0.72568   0.63184   0.90436   0.00000  Uiso   1.00
H1585  H     0.58983   0.87955   0.39026   0.00000  Uiso   1.00
H1586  H     0.75361   0.61218   0.94223   0.00000  Uiso   1.00
H1587  H     0.78205   0.65000   0.86783   0.00000  Uiso   1.00
H1588  H     0.81027   0.63008   0.90565   0.00000  Uiso   1.00
H1589  H     0.78150   0.66907   0.91618   0.00000  Uiso   1.00
H1590  H     0.84992   0.99526   0.13155   0.00000  Uiso   1.00
H1591  H     0.82288   0.52678   0.10428   0.00000  Uiso   1.00
H1592  H     0.87691   0.96943   0.07048   0.00000  Uiso   1.00
H1593  H     0.85040   0.50162   0.04225   0.00000  Uiso   1.00
H1594  H     0.90818   0.52152   0.10409   0.00000  Uiso   1.00
H1595  H     0.88138   0.55372   0.07582   0.00000  Uiso   1.00
H1596  H     0.57957   0.89553   0.34194   0.00000  Uiso   1.00
H1597  H     0.91376   0.52380   0.05204   0.00000  Uiso   1.00
H1598  H     0.95281   0.83042   0.86412   0.00000  Uiso   1.00
H1599  H     0.98459   0.82756   0.90341   0.00000  Uiso   1.00
H1600  H     0.90135   0.84200   0.91129   0.00000  Uiso   1.00
H1601  H     0.93398   0.84067   0.95067   0.00000  Uiso   1.00
H1602  H     0.96782   0.89336   0.92085   0.00000  Uiso   1.00
H1603  H     0.92064   0.90457   0.93101   0.00000  Uiso   1.00
H1604  H     0.93457   0.89482   0.88177   0.00000  Uiso   1.00
H1605  H     0.55425   0.80413   0.11605   0.00000  Uiso   1.00
H1606  H     0.58597   0.79543   0.07651   0.00000  Uiso   1.00
H1607  H     0.58036   0.70267   0.63590   0.00000  Uiso   1.00
H1608  H     0.59981   0.77839   0.16307   0.00000  Uiso   1.00
H1609  H     0.63175   0.77154   0.12374   0.00000  Uiso   1.00
H1610  H     0.59943   0.84552   0.15097   0.00000  Uiso   1.00
H1611  H     0.62973   0.83952   0.10969   0.00000  Uiso   1.00
H1612  H     0.64563   0.82929   0.15805   0.00000  Uiso   1.00
H1613  H     0.74774   0.90981   0.86129   0.00000  Uiso   1.00
H1614  H     0.72158   0.92958   0.89973   0.00000  Uiso   1.00
H1615  H     0.78116   0.86994   0.90949   0.00000  Uiso   1.00
H1616  H     0.75403   0.88963   0.94804   0.00000  Uiso   1.00
H1617  H     0.72440   0.84622   0.87780   0.00000  Uiso   1.00
H1618  H     0.57752   0.73454   0.59669   0.00000  Uiso   1.00
H1619  H     0.69693   0.86625   0.91627   0.00000  Uiso   1.00
H1620  H     0.72882   0.82986   0.92703   0.00000  Uiso   1.00
H1621  H     0.65025   0.50640   0.13036   0.00000  Uiso   1.00
H1622  H     0.67725   0.97478   0.10313   0.00000  Uiso   1.00
H1623  H     0.62448   0.53321   0.06919   0.00000  Uiso   1.00
H1624  H     0.65097   0.50095   0.04098   0.00000  Uiso   1.00
H1625  H     0.59204   0.98120   0.10167   0.00000  Uiso   1.00
H1626  H     0.61879   0.94894   0.07338   0.00000  Uiso   1.00
H1627  H     0.58715   0.97957   0.04952   0.00000  Uiso   1.00
H1628  H     0.54729   0.66992   0.86417   0.00000  Uiso   1.00
O1629  O     0.75000   0.50000   0.25000   0.00000  Uiso   1.00
O1630  O     0.75000   0.96963   0.66245   0.00000  Uiso   1.00
O1631  O     0.96963   0.75000   0.33755   0.00000  Uiso   1.00
O1632  O     0.53036   0.75000   0.66245   0.00000  Uiso   1.00
O1633  O     0.50000   0.71963   0.83755   0.00000  Uiso   1.00
O1634  O     0.50000   0.78036   0.16245   0.00000  Uiso   1.00
O1635  O     0.78036   0.50000   0.83755   0.00000  Uiso   1.00
O1636  O     0.71963   0.50000   0.16245   0.00000  Uiso   1.00
O1637  O     0.50000   0.78036   0.83755   0.00000  Uiso   1.00
O1638  O     0.50000   0.71963   0.16245   0.00000  Uiso   1.00
O1639  O     0.71963   0.50000   0.83755   0.00000  Uiso   1.00
O1640  O     0.75000   0.50000   0.75000   0.00000  Uiso   1.00
O1641  O     0.78036   0.50000   0.16245   0.00000  Uiso   1.00
O1642  O     0.70724   0.57307   0.27302   0.00000  Uiso   1.00
O1643  O     0.79275   0.92692   0.72698   0.00000  Uiso   1.00
O1644  O     0.92692   0.70724   0.27302   0.00000  Uiso   1.00
O1645  O     0.57307   0.79275   0.72698   0.00000  Uiso   1.00
O1646  O     0.79275   0.92692   0.27302   0.00000  Uiso   1.00
O1647  O     0.70724   0.57307   0.72698   0.00000  Uiso   1.00
O1648  O     0.57307   0.79275   0.27302   0.00000  Uiso   1.00
O1649  O     0.92692   0.70724   0.72698   0.00000  Uiso   1.00
O1650  O     0.70724   0.92692   0.72698   0.00000  Uiso   1.00
O1651  O     0.50000   0.75000   0.25000   0.00000  Uiso   1.00
O1652  O     0.79275   0.57307   0.27302   0.00000  Uiso   1.00
O1653  O     0.92692   0.79275   0.72698   0.00000  Uiso   1.00
O1654  O     0.57307   0.70724   0.27302   0.00000  Uiso   1.00
O1655  O     0.79275   0.57307   0.72698   0.00000  Uiso   1.00
O1656  O     0.70724   0.92692   0.27302   0.00000  Uiso   1.00
O1657  O     0.57307   0.70724   0.72698   0.00000  Uiso   1.00
O1658  O     0.92692   0.79275   0.27302   0.00000  Uiso   1.00
O1659  O     0.95724   0.82307   0.77302   0.00000  Uiso   1.00
O1660  O     0.54275   0.67692   0.22698   0.00000  Uiso   1.00
O1661  O     0.67692   0.95724   0.77302   0.00000  Uiso   1.00
O1662  O     0.50000   0.75000   0.75000   0.00000  Uiso   1.00
O1663  O     0.82307   0.54275   0.22698   0.00000  Uiso   1.00
O1664  O     0.54275   0.67692   0.77302   0.00000  Uiso   1.00
O1665  O     0.95724   0.82307   0.22698   0.00000  Uiso   1.00
O1666  O     0.82307   0.54275   0.77302   0.00000  Uiso   1.00
O1667  O     0.67692   0.95724   0.22698   0.00000  Uiso   1.00
O1668  O     0.95724   0.67692   0.22698   0.00000  Uiso   1.00
O1669  O     0.54275   0.82307   0.77302   0.00000  Uiso   1.00
O1670  O     0.67692   0.54275   0.22698   0.00000  Uiso   1.00
O1671  O     0.82307   0.95724   0.77302   0.00000  Uiso   1.00
O1672  O     0.54275   0.82307   0.22698   0.00000  Uiso   1.00
O1673  O     0.75000   0.96963   0.33755   0.00000  Uiso   1.00
O1674  O     0.95724   0.67692   0.77302   0.00000  Uiso   1.00
O1675  O     0.82307   0.95724   0.22698   0.00000  Uiso   1.00
O1676  O     0.67692   0.54275   0.77302   0.00000  Uiso   1.00
O1677  O     0.99911   0.81528   0.39646   0.00000  Uiso   1.00
O1678  O     0.53521   0.69425   0.60156   0.00000  Uiso   1.00
O1679  O     0.72035   0.55954   0.39987   0.00000  Uiso   1.00
O1680  O     0.80998   0.97276   0.60285   0.00000  Uiso   1.00
O1681  O     0.50091   0.68478   0.39648   0.00000  Uiso   1.00
O1682  O     0.96518   0.80600   0.60160   0.00000  Uiso   1.00
O1683  O     0.78100   0.94135   0.40018   0.00000  Uiso   1.00
O1684  O     0.75000   0.53036   0.66245   0.00000  Uiso   1.00
O1685  O     0.69118   0.52913   0.60211   0.00000  Uiso   1.00
O1686  O     0.72283   0.56002   0.89713   0.00000  Uiso   1.00
O1687  O     0.80945   0.97017   0.10014   0.00000  Uiso   1.00
O1688  O     0.94429   0.78527   0.89843   0.00000  Uiso   1.00
O1689  O     0.56525   0.74895   0.10354   0.00000  Uiso   1.00
O1690  O     0.77907   0.94115   0.89789   0.00000  Uiso   1.00
O1691  O     0.69147   0.53122   0.09984   0.00000  Uiso   1.00
O1692  O     0.55597   0.71512   0.89840   0.00000  Uiso   1.00
O1693  O     0.93474   0.75119   0.10352   0.00000  Uiso   1.00
O1694  O     0.53036   0.75000   0.33755   0.00000  Uiso   1.00
O1695  O     0.96963   0.75000   0.66245   0.00000  Uiso   1.00
O1696  O     0.75000   0.53036   0.33755   0.00000  Uiso   1.00
Zn1697 Zn    0.70659   0.50000   0.21735   0.00000  Uiso   1.00
Zn1698 Zn    0.54340   0.75000   0.28265   0.00000  Uiso   1.00
Zn1699 Zn    0.75000   0.95659   0.71735   0.00000  Uiso   1.00
Zn1700 Zn    0.75000   0.54340   0.28265   0.00000  Uiso   1.00
Zn1701 Zn    0.54340   0.75000   0.71735   0.00000  Uiso   1.00
Zn1702 Zn    0.95659   0.75000   0.28265   0.00000  Uiso   1.00
Zn1703 Zn    0.75000   0.54340   0.71735   0.00000  Uiso   1.00
Zn1704 Zn    0.75000   0.95659   0.28265   0.00000  Uiso   1.00
Zn1705 Zn    0.79340   0.50000   0.78265   0.00000  Uiso   1.00
Zn1706 Zn    0.50000   0.70659   0.21735   0.00000  Uiso   1.00
Zn1707 Zn    0.50000   0.79340   0.78265   0.00000  Uiso   1.00
Zn1708 Zn    0.79340   0.50000   0.21735   0.00000  Uiso   1.00
Zn1709 Zn    0.70659   0.50000   0.78265   0.00000  Uiso   1.00
Zn1710 Zn    0.50000   0.79340   0.21735   0.00000  Uiso   1.00
Zn1711 Zn    0.50000   0.70659   0.78265   0.00000  Uiso   1.00
Zn1712 Zn    0.95659   0.75000   0.71735   0.00000  Uiso   1.00
loop_
_geom_bond_atom_site_label_1
_geom_bond_atom_site_label_2
_geom_bond_distance
_geom_bond_site_symmetry_2
_ccdc_geom_bond_type
Br1    C151    1.940   .     S
Br2    C161    1.940   .     S
Br3    C162    1.940   .     S
Br4    C163    1.940   .     S
Br5    C164    1.940   .     S
Br6    C165    1.939   .     S
Br7    C166    1.940   .     S
Br8    C168    1.940   .     S
Br9    C195    1.935   .     S
Br10   C196    1.933   .     S
Br11   C197    1.934   .     S
Br12   C152    1.940   .     S
Br13   C198    1.931   .     S
Br14   C199    1.935   .     S
Br15   C201    1.931   .     S
Br16   C202    1.934   .     S
Br17   C203    1.931   .     S
Br18   C204    1.927   .     S
Br19   C205    1.933   .     S
Br20   C206    1.935   .     S
Br21   C207    1.935   .     S
Br22   C208    1.927   .     S
Br23   C153    1.940   .     S
Br24   C209    1.934   .     S
Br25   C210    1.933   .     S
Br26   C212    1.935   .     S
Br27   C213    1.933   .     S
Br28   C214    1.935   .     S
Br29   C215    1.927   .     S
Br30   C216    1.933   .     S
Br31   C217    1.935   .     S
Br32   C218    1.935   .     S
Br33   C219    1.927   .     S
Br34   C154    1.940   .     S
Br35   C220    1.933   .     S
Br36   C221    1.934   .     S
Br37   C223    1.931   .     S
Br38   C224    1.935   .     S
Br39   C225    1.931   .     S
Br40   C226    1.934   .     S
Br41   C227    1.931   .     S
Br42   C228    1.935   .     S
Br43   C229    1.933   .     S
Br44   C155    1.940   .     S
Br45   C157    1.940   .     S
Br46   C158    1.939   .     S
Br47   C159    1.940   .     S
Br48   C160    1.940   .     S
C49    C52     1.414   .     A
C49    C555    1.395   .     A
C49    O393    1.383   .     S
C50    O403    1.386   .     S
C50    C62     1.408   .     A
C50    C1004   1.409   .     S
C51    C154    1.416   .     A
C51    C86     1.421   .     A
C51    C211    1.406   .     A
C52    C155    1.420   .     A
C52    C510    1.425   .     S
C53    C84     1.420   .     A
C53    C145    1.412   .     A
C53    C157    1.414   .     A
C54    C156    1.408   .     A
C54    C158    1.415   .     A
C54    C85     1.417   .     A
C55    C167    1.408   .     A
C55    C159    1.417   .     A
C55    C942    1.422   .     S
C56    C83     1.406   .     A
C56    C160    1.416   .     A
C56    C943    1.421   .     S
C57    C161    1.415   .     A
C57    C94     1.409   .     A
C57    C88     1.416   .     A
C58    C162    1.413   .     A
C58    C89     1.420   .     A
C58    C105    1.412   .     A
C59    C163    1.420   .     A
C59    C116    1.414   .     A
C59    C518    1.425   .     S
C60    C164    1.417   .     A
C60    C222    1.408   .     A
C60    C87     1.422   .     A
C61    C63     1.412   .     A
C61    O404    1.385   .     S
C61    C577    1.401   .     S
C62    C165    1.415   .     A
C62    C944    1.417   .     S
C63    C166    1.414   .     A
C63    C517    1.420   .     S
C64    C90     1.425   .     A
C64    C168    1.420   .     A
C64    C72     1.414   .     A
C65    C184    1.451   .     S
C65    C212    1.408   .     A
C65    C214    1.408   .     A
C66    C213    1.407   .     A
C66    C210    1.407   .     A
C66    C185    1.451   .     S
C67    C209    1.407   .     A
C67    C216    1.407   .     A
C67    C177    1.448   .     S
C68    C215    1.405   .     A
C68    C179    1.450   .     S
C68    C208    1.405   .     A
C69    C218    1.408   .     A
C69    C180    1.451   .     S
C69    C207    1.408   .     A
C70    C181    1.449   .     S
C70    C217    1.407   .     A
C70    C206    1.407   .     A
C71    C220    1.407   .     A
C71    C205    1.407   .     A
C71    C182    1.448   .     S
C72    O405    1.383   .     S
C72    C150    1.395   .     S
C73    C219    1.405   .     A
C73    C183    1.450   .     S
C73    C204    1.405   .     A
C74    C203    1.404   .     A
C74    C223    1.404   .     A
C74    C193    1.446   .     S
C75    C202    1.407   .     A
C75    C194    1.447   .     S
C75    C221    1.407   .     A
C76    C201    1.408   .     A
C76    C225    1.408   .     A
C76    C186    1.452   .     S
C77    C224    1.407   .     A
C77    C199    1.407   .     A
C77    C187    1.451   .     S
C78    C198    1.404   .     A
C78    C227    1.404   .     A
C78    C188    1.446   .     S
C79    C226    1.407   .     A
C79    C197    1.407   .     A
C79    C190    1.447   .     S
C80    C196    1.407   .     A
C80    C191    1.450   .     S
C80    C229    1.407   .     A
C81    C195    1.407   .     A
C81    C228    1.408   .     A
C81    C192    1.451   .     S
C82    C230    1.425   .     A
C82    C84     1.410   .     A
C82    C480    1.425   1_455 S
C83    O406    1.384   .     S
C83    C1003   1.397   .     S
C84    C659    1.420   1_455 S
C85    C86     1.405   .     A
C85    C1088   1.416   1_545 S
C86    C911    1.422   1_545 S
C87    C912    1.421   1_545 S
C87    C88     1.405   1_556 S
C88    C918    1.417   1_545 S
C88    C87     1.405   1_554 S
C89    C491    1.420   1_455 S
C89    C90     1.411   1_556 S
C90    C487    1.425   1_455 S
C90    C89     1.411   1_554 S
C91    C92     1.527   .     S
C91    H233    1.115   .     S
C91    H257    1.114   .     S
C91    O821    1.414   1_455 S
C92    H268    1.112   .     S
C92    C93     1.527   .     S
C92    H279    1.112   .     S
C93    H290    1.111   .     S
C93    H312    1.110   .     S
C93    H301    1.111   .     S
C94    C148    1.409   .     A
C94    O407    1.386   .     S
C95    O394    1.421   .     S
C95    H334    1.119   .     S
C95    C96     1.530   .     S
C95    H323    1.111   .     S
C96    H245    1.111   .     S
C96    H234    1.111   .     S
C96    C97     1.526   .     S
C97    H249    1.111   .     S
C97    H251    1.110   .     S
C97    H250    1.111   .     S
C98    O395    1.421   .     S
C98    C99     1.532   .     S
C98    H252    1.111   .     S
C98    H253    1.118   .     S
C99    H254    1.111   .     S
C99    H255    1.110   .     S
C99    C100    1.526   .     S
C100   H259    1.110   .     S
C100   H256    1.111   .     S
C100   H258    1.111   .     S
C101   C102    1.529   .     S
C101   H261    1.119   .     S
C101   H260    1.111   .     S
C101   O1252   1.421   1_545 S
C102   H263    1.111   .     S
C102   C103    1.526   .     S
C102   H1118   1.111   1_545 S
C103   H265    1.111   .     S
C103   H264    1.111   .     S
C103   H266    1.110   .     S
C104   H269    1.114   .     S
C104   C106    1.527   .     S
C104   H267    1.115   .     S
C104   O825    1.414   .     S
C105   O408    1.385   .     S
C105   C149    1.401   .     A
C106   C107    1.527   .     S
C106   H271    1.112   .     S
C106   H270    1.112   .     S
C107   H272    1.111   .     S
C107   H273    1.111   .     S
C107   H274    1.110   .     S
C108   C109    1.530   .     S
C108   H275    1.111   .     S
C108   H276    1.119   .     S
C108   O398    1.421   .     S
C109   H278    1.111   .     S
C109   H277    1.111   .     S
C109   C110    1.526   .     S
C110   H281    1.111   .     S
C110   H282    1.110   .     S
C110   H280    1.111   .     S
C111   H284    1.118   .     S
C111   C112    1.532   .     S
C111   H283    1.111   .     S
C111   O399    1.421   .     S
C112   H285    1.111   .     S
C112   H286    1.110   .     S
C112   C113    1.526   .     S
C113   H289    1.110   .     S
C113   H287    1.111   .     S
C113   H288    1.111   .     S
C114   H292    1.119   .     S
C114   H291    1.110   .     S
C114   C971    1.530   .     S
C114   O1257   1.420   .     S
C115   H294    1.111   .     S
C115   H293    1.111   .     S
C115   C970    1.530   1_545 S
C115   C973    1.525   1_545 S
C116   O409    1.383   .     S
C116   C578    1.395   .     A
C117   H297    1.110   .     S
C117   H295    1.111   .     S
C117   H296    1.111   .     S
C117   C971    1.525   .     S
C118   H298    1.111   .     S
C118   O402    1.421   .     S
C118   H299    1.119   .     S
C118   C119    1.529   .     S
C119   H300    1.111   .     S
C119   H302    1.111   .     S
C119   C120    1.526   .     S
C120   H305    1.110   .     S
C120   H303    1.111   .     S
C120   H304    1.111   .     S
C121   C122    1.532   .     S
C121   O403    1.421   .     S
C121   H306    1.111   .     S
C121   H1163   1.118   .     S
C122   H308    1.111   .     S
C122   C979    1.526   .     S
C122   H1165   1.110   .     S
C123   H310    1.111   .     S
C123   H313    1.110   .     S
C123   H311    1.111   .     S
C123   C978    1.526   1_545 S
C124   O404    1.421   .     S
C124   H315    1.119   .     S
C124   H314    1.111   .     S
C124   C125    1.530   .     S
C125   H317    1.111   .     S
C125   H316    1.111   .     S
C125   C126    1.526   .     S
C126   H319    1.110   .     S
C126   H320    1.111   .     S
C126   H318    1.111   .     S
C127   C171    1.453   .     S
C127   C477    1.395   1_455 A
C127   C178    1.395   .     S
C128   O405    1.414   .     S
C128   C129    1.527   .     S
C128   H321    1.115   .     S
C128   H322    1.114   .     S
C129   H324    1.112   .     S
C129   C130    1.527   .     S
C129   H325    1.112   .     S
C130   H328    1.110   .     S
C130   H326    1.111   .     S
C130   H327    1.111   .     S
C131   O406    1.420   .     S
C131   C132    1.530   .     S
C131   H329    1.110   .     S
C131   H330    1.119   .     S
C132   H331    1.111   .     S
C132   H332    1.111   .     S
C132   C133    1.525   .     S
C133   H335    1.111   .     S
C133   H336    1.110   .     S
C133   H333    1.111   .     S
C134   H337    1.111   .     S
C134   C135    1.532   .     S
C134   O407    1.421   .     S
C134   H1194   1.118   1_545 S
C135   H339    1.111   .     S
C135   H340    1.110   .     S
C135   C992    1.526   1_545 S
C136   H343    1.110   .     S
C136   H342    1.111   .     S
C136   H341    1.111   .     S
C136   C991    1.526   .     S
C137   H235    1.119   .     S
C137   H344    1.111   .     S
C137   O408    1.421   .     S
C137   C139    1.530   .     S
C138   C145    1.401   .     A
C138   C172    1.460   .     S
C138   C617    1.401   1_455 S
C139   H237    1.111   .     S
C139   C140    1.526   .     S
C139   H236    1.111   .     S
C140   H240    1.110   .     S
C140   H238    1.111   .     S
C140   H239    1.111   .     S
C141   H242    1.114   .     S
C141   H241    1.115   .     S
C141   O409    1.414   .     S
C141   C142    1.527   .     S
C142   H244    1.112   .     S
C142   C143    1.527   .     S
C142   H243    1.112   .     S
C143   H248    1.110   .     S
C143   H246    1.111   .     S
C143   H247    1.111   .     S
C144   C156    1.409   .     A
C144   C169    1.471   .     S
C144   C1056   1.409   1_545 S
C145   O394    1.385   .     S
C146   C211    1.397   .     A
C146   C170    1.451   .     S
C146   C1023   1.398   1_545 S
C147   C222    1.398   .     A
C147   C939    1.397   1_545 S
C147   C1031   1.451   1_545 S
C148   C176    1.471   .     S
C148   C906    1.409   1_545 S
C149   C173    1.460   .     S
C149   C489    1.401   1_455 S
C150   C544    1.395   1_455 A
C150   C602    1.453   1_455 S
C151   C230    1.420   .     A
C151   C157    1.403   .     A
C152   C231    1.414   .     A
C152   C155    1.403   .     A
C153   C232    1.415   .     A
C153   C159    1.403   .     A
C154   C158    1.401   .     A
C156   O395    1.386   .     S
C160   C165    1.401   1_556 S
C161   C164    1.403   1_554 S
C162   C168    1.403   1_556 S
C163   C166    1.403   1_554 S
C164   C161    1.403   1_556 S
C165   C160    1.401   1_554 S
C166   C163    1.403   1_556 S
C167   O396    1.385   .     S
C167   C1002   1.398   .     S
C168   C162    1.403   1_554 S
C169   O412    1.279   .     A
C169   O1245   1.281   1_545 S
C170   O400    1.273   .     A
C170   O1202   1.275   1_545 S
C171   O775    1.274   1_455 A
C171   O410    1.274   .     S
C172   O348    1.276   .     A
C172   O839    1.277   1_455 S
C173   O349    1.277   .     A
C173   O353    1.276   .     S
C174   O778    1.274   .     A
C174   C578    1.453   .     S
C174   O782    1.274   .     S
C175   C1003   1.451   .     S
C175   O1207   1.273   .     S
C175   O1211   1.275   .     S
C176   O357    1.279   .     A
C176   O352    1.280   .     A
C177   O386    1.277   .     A
C177   O358    1.277   .     A
C178   C230    1.414   .     A
C178   O397    1.383   .     S
C179   O387    1.277   .     A
C179   O359    1.278   .     A
C180   O384    1.277   .     A
C180   O360    1.277   .     A
C181   O361    1.277   .     A
C181   O385    1.277   .     A
C182   O362    1.277   .     A
C182   O391    1.277   .     A
C183   O363    1.277   .     A
C183   O392    1.278   .     A
C184   O388    1.277   .     A
C184   O364    1.277   .     A
C185   O390    1.277   .     A
C185   O365    1.277   .     A
C186   O366    1.277   .     A
C186   O377    1.277   .     A
C187   O379    1.277   .     A
C187   O368    1.277   .     A
C188   O375    1.277   .     A
C188   O369    1.277   .     A
C189   O398    1.385   .     S
C189   C231    1.412   .     A
C189   C566    1.401   .     S
C190   O376    1.277   .     A
C190   O370    1.277   .     A
C191   O382    1.277   .     A
C191   O371    1.277   .     A
C192   O372    1.277   .     A
C192   O383    1.277   .     A
C193   O373    1.277   .     A
C193   O380    1.277   .     A
C194   O381    1.277   .     A
C194   O374    1.277   .     A
C195   C212    1.397   .     A
C196   C210    1.399   .     A
C197   C209    1.397   .     A
C198   C208    1.398   .     A
C199   C207    1.397   .     A
C200   C232    1.409   .     A
C200   O399    1.386   .     S
C200   C1000   1.409   .     S
C201   C206    1.397   .     A
C202   C205    1.397   .     A
C203   C204    1.398   .     A
C211   O401    1.384   .     S
C213   C229    1.399   .     A
C214   C228    1.397   .     A
C215   C227    1.398   .     A
C216   C226    1.397   .     A
C217   C225    1.397   .     A
C218   C224    1.397   .     A
C219   C223    1.398   .     A
C220   C221    1.397   .     A
C222   O402    1.385   .     S
C231   C512    1.420   .     S
C232   C941    1.416   .     S
H262   C958    1.111   .     S
H307   C977    1.118   1_545 S
H309   C978    1.110   1_545 S
H338   C990    1.118   .     S
O345   Zn416   1.943   .     S
O345   Zn413   1.943   .     S
O345   Zn424   1.943   .     S
O345   Zn1276  1.943   1_545 S
O346   Zn415   1.948   .     S
O346   C1026   1.275   .     S
O347   Zn418   1.948   .     S
O347   C599    1.274   .     A
O348   Zn417   1.948   .     S
O349   Zn427   1.948   .     S
O350   C602    1.274   1_455 A
O350   Zn426   1.948   .     S
O351   Zn421   1.948   .     S
O351   C1031   1.273   1_545 S
O352   Zn413   1.948   .     S
O353   Zn423   1.948   .     S
O354   Zn422   1.948   .     S
O354   C602    1.274   1_455 S
O355   Zn425   1.948   .     S
O355   C1031   1.275   1_545 S
O356   Zn425   1.943   .     S
O356   Zn419   1.943   .     S
O356   Zn421   1.943   .     S
O356   Zn1271  1.943   1_545 S
O357   Zn424   1.948   .     S
O358   Zn416   1.928   .     S
O359   Zn415   1.928   .     S
O360   Zn418   1.931   .     S
O361   Zn417   1.931   .     S
O362   Zn420   1.927   .     S
O363   Zn419   1.927   .     S
O364   Zn414   1.931   .     S
O365   Zn428   1.931   .     S
O366   Zn415   1.931   .     S
O367   Zn422   1.943   .     S
O367   Zn426   1.943   .     S
O367   Zn414   1.943   .     S
O367   Zn846   1.943   1_455 S
O368   Zn416   1.931   .     S
O369   Zn428   1.927   .     S
O370   Zn414   1.927   .     S
O371   Zn419   1.931   .     S
O372   Zn420   1.931   .     S
O373   Zn417   1.928   .     S
O374   Zn418   1.928   .     S
O375   Zn851   1.928   .     S
O376   Zn422   1.928   .     S
O377   Zn1281  1.931   .     S
O378   Zn856   1.943   1_455 S
O378   Zn417   1.943   .     S
O378   Zn423   1.943   .     S
O378   Zn427   1.943   .     S
O379   Zn424   1.931   .     S
O380   Zn427   1.927   .     S
O381   Zn854   1.927   .     S
O382   Zn421   1.931   .     S
O383   Zn1269  1.931   .     S
O384   Zn850   1.931   .     S
O385   Zn423   1.931   .     S
O386   Zn413   1.927   .     S
O387   Zn1277  1.927   .     S
O388   Zn426   1.931   .     S
O389   Zn420   1.948   .     S
O389   C1025   1.281   .     S
O390   Zn855   1.931   .     S
O391   Zn1280  1.928   .     S
O392   Zn425   1.928   .     S
O393   C519    1.414   .     S
O396   C957    1.421   .     S
O397   C532    1.414   1_455 S
O400   Zn419   1.948   .     S
O401   C970    1.420   1_545 S
O410   Zn414   1.948   .     S
O411   Zn428   1.948   .     S
O411   C600    1.277   .     S
O412   Zn416   1.948   .     S
Zn413  O1239   1.931   1_545 S
Zn415  O1212   1.943   .     S
Zn418  O795    1.943   .     S
Zn420  O1201   1.943   .     S
Zn421  O1243   1.927   1_545 S
Zn422  O812    1.931   1_455 S
Zn423  O803    1.928   1_455 S
Zn424  O1247   1.928   1_545 S
Zn425  O1233   1.931   1_545 S
Zn426  O809    1.927   1_455 S
Zn427  O818    1.931   1_455 S
Zn428  O806    1.943   .     S
Br429  C579    1.940   .     S
Br430  C589    1.940   .     S
Br431  C590    1.940   .     S
Br432  C591    1.940   .     S
Br433  C592    1.940   .     S
Br434  C593    1.939   .     S
Br435  C594    1.940   .     S
Br436  C596    1.940   .     S
Br437  C623    1.935   .     S
Br438  C624    1.933   .     S
Br439  C625    1.934   .     S
Br440  C580    1.940   .     S
Br441  C626    1.931   .     S
Br442  C627    1.935   .     S
Br443  C629    1.931   .     S
Br444  C630    1.934   .     S
Br445  C631    1.931   .     S
Br446  C632    1.927   .     S
Br447  C633    1.933   .     S
Br448  C634    1.935   .     S
Br449  C635    1.935   .     S
Br450  C636    1.927   .     S
Br451  C581    1.940   .     S
Br452  C637    1.934   .     S
Br453  C638    1.933   .     S
Br454  C640    1.935   .     S
Br455  C641    1.933   .     S
Br456  C642    1.935   .     S
Br457  C643    1.927   .     S
Br458  C644    1.933   .     S
Br459  C645    1.935   .     S
Br460  C646    1.935   .     S
Br461  C647    1.927   .     S
Br462  C582    1.940   .     S
Br463  C648    1.933   .     S
Br464  C649    1.934   .     S
Br465  C651    1.931   .     S
Br466  C652    1.935   .     S
Br467  C653    1.931   .     S
Br468  C654    1.934   .     S
Br469  C655    1.931   .     S
Br470  C656    1.935   .     S
Br471  C657    1.933   .     S
Br472  C583    1.940   .     S
Br473  C585    1.940   .     S
Br474  C586    1.939   .     S
Br475  C587    1.940   .     S
Br476  C588    1.940   .     S
C477   C480    1.414   .     A
C477   C127    1.395   1_655 A
C477   O821    1.383   .     S
C478   O831    1.386   .     S
C478   C490    1.408   .     A
C478   C1432   1.409   .     S
C479   C582    1.416   .     A
C479   C514    1.421   .     A
C479   C639    1.406   .     A
C480   C583    1.420   .     A
C480   C82     1.425   1_655 S
C481   C512    1.420   .     A
C481   C573    1.412   .     A
C481   C585    1.414   .     A
C482   C584    1.408   .     A
C482   C586    1.415   .     A
C482   C513    1.417   .     A
C483   C595    1.408   .     A
C483   C587    1.417   .     A
C483   C1370   1.422   .     S
C484   C511    1.406   .     A
C484   C588    1.416   .     A
C484   C1371   1.421   .     S
C485   C589    1.415   .     A
C485   C522    1.409   .     A
C485   C516    1.416   .     A
C486   C590    1.413   .     A
C486   C517    1.420   .     A
C486   C533    1.412   .     A
C487   C591    1.420   .     A
C487   C544    1.414   .     A
C487   C90     1.425   1_655 S
C488   C592    1.417   .     A
C488   C650    1.408   .     A
C488   C515    1.422   .     A
C489   C491    1.412   .     A
C489   O832    1.385   .     S
C489   C149    1.401   1_655 S
C490   C593    1.415   .     A
C490   C1372   1.417   .     S
C491   C594    1.414   .     A
C491   C89     1.420   1_655 S
C492   C518    1.425   .     A
C492   C596    1.420   .     A
C492   C500    1.414   .     A
C493   C612    1.451   .     S
C493   C640    1.408   .     A
C493   C642    1.408   .     A
C494   C641    1.407   .     A
C494   C638    1.407   .     A
C494   C613    1.451   .     S
C495   C637    1.407   .     A
C495   C644    1.407   .     A
C495   C605    1.448   .     S
C496   C643    1.405   .     A
C496   C607    1.450   .     S
C496   C636    1.405   .     A
C497   C646    1.408   .     A
C497   C608    1.451   .     S
C497   C635    1.408   .     A
C498   C609    1.449   .     S
C498   C645    1.407   .     A
C498   C634    1.407   .     A
C499   C648    1.407   .     A
C499   C633    1.407   .     A
C499   C610    1.448   .     S
C500   O833    1.383   .     S
C500   C578    1.395   .     S
C501   C647    1.405   .     A
C501   C611    1.450   .     S
C501   C632    1.405   .     A
C502   C631    1.404   .     A
C502   C651    1.404   .     A
C502   C621    1.446   .     S
C503   C630    1.407   .     A
C503   C622    1.447   .     S
C503   C649    1.407   .     A
C504   C629    1.408   .     A
C504   C653    1.408   .     A
C504   C614    1.452   .     S
C505   C652    1.407   .     A
C505   C627    1.407   .     A
C505   C615    1.451   .     S
C506   C626    1.404   .     A
C506   C655    1.404   .     A
C506   C616    1.446   .     S
C507   C654    1.407   .     A
C507   C625    1.407   .     A
C507   C618    1.447   .     S
C508   C624    1.407   .     A
C508   C619    1.450   .     S
C508   C657    1.407   .     A
C509   C623    1.407   .     A
C509   C656    1.408   .     A
C509   C620    1.451   .     S
C510   C658    1.425   .     A
C510   C512    1.410   .     A
C511   O834    1.384   .     S
C511   C1431   1.397   .     S
C513   C514    1.405   .     A
C513   C1516   1.416   1_545 S
C514   C1339   1.422   1_545 S
C515   C1340   1.421   1_545 S
C515   C516    1.405   1_556 S
C516   C1346   1.417   1_545 S
C516   C515    1.405   1_554 S
C517   C518    1.411   1_556 S
C518   C517    1.411   1_554 S
C519   C520    1.527   .     S
C519   H661    1.115   .     S
C519   H685    1.114   .     S
C520   H696    1.112   .     S
C520   C521    1.527   .     S
C520   H707    1.112   .     S
C521   H718    1.111   .     S
C521   H740    1.110   .     S
C521   H729    1.111   .     S
C522   C576    1.409   .     A
C522   O835    1.386   .     S
C523   O822    1.421   .     S
C523   H762    1.119   .     S
C523   C524    1.530   .     S
C523   H751    1.111   .     S
C524   H673    1.111   .     S
C524   H662    1.111   .     S
C524   C525    1.526   .     S
C525   H677    1.111   .     S
C525   H679    1.110   .     S
C525   H678    1.111   .     S
C526   O823    1.421   .     S
C526   C527    1.532   .     S
C526   H680    1.111   .     S
C526   H681    1.118   .     S
C527   H682    1.111   .     S
C527   H683    1.110   .     S
C527   C528    1.526   .     S
C528   H687    1.110   .     S
C528   H684    1.111   .     S
C528   H686    1.111   .     S
C529   C530    1.529   .     S
C529   H689    1.119   .     S
C529   H688    1.111   .     S
C529   O1680   1.421   1_545 S
C530   H691    1.111   .     S
C530   C531    1.526   .     S
C530   H1546   1.111   1_545 S
C531   H693    1.111   .     S
C531   H692    1.111   .     S
C531   H694    1.110   .     S
C532   H697    1.114   .     S
C532   C534    1.527   .     S
C532   H695    1.115   .     S
C532   O397    1.414   1_655 S
C533   O836    1.385   .     S
C533   C577    1.401   .     A
C534   C535    1.527   .     S
C534   H699    1.112   .     S
C534   H698    1.112   .     S
C535   H700    1.111   .     S
C535   H701    1.111   .     S
C535   H702    1.110   .     S
C536   C537    1.530   .     S
C536   H703    1.111   .     S
C536   H704    1.119   .     S
C536   O826    1.421   .     S
C537   H706    1.111   .     S
C537   H705    1.111   .     S
C537   C538    1.526   .     S
C538   H709    1.111   .     S
C538   H710    1.110   .     S
C538   H708    1.111   .     S
C539   H712    1.118   .     S
C539   C540    1.532   .     S
C539   H711    1.111   .     S
C539   O827    1.421   .     S
C540   H713    1.111   .     S
C540   H714    1.110   .     S
C540   C541    1.526   .     S
C541   H717    1.110   .     S
C541   H715    1.111   .     S
C541   H716    1.111   .     S
C542   H720    1.119   .     S
C542   H719    1.110   .     S
C542   C1399   1.530   .     S
C542   O1685   1.420   .     S
C543   H722    1.111   .     S
C543   H721    1.111   .     S
C543   C1398   1.530   1_545 S
C543   C1401   1.525   1_545 S
C544   O837    1.383   .     S
C544   C150    1.395   1_655 A
C545   H725    1.110   .     S
C545   H723    1.111   .     S
C545   H724    1.111   .     S
C545   C1399   1.525   .     S
C546   H726    1.111   .     S
C546   O830    1.421   .     S
C546   H727    1.119   .     S
C546   C547    1.529   .     S
C547   H728    1.111   .     S
C547   H730    1.111   .     S
C547   C548    1.526   .     S
C548   H733    1.110   .     S
C548   H731    1.111   .     S
C548   H732    1.111   .     S
C549   C550    1.532   .     S
C549   O831    1.421   .     S
C549   H734    1.111   .     S
C549   H1591   1.118   .     S
C550   H736    1.111   .     S
C550   C1407   1.526   .     S
C550   H1593   1.110   .     S
C551   H738    1.111   .     S
C551   H741    1.110   .     S
C551   H739    1.111   .     S
C551   C1406   1.526   1_545 S
C552   O832    1.421   .     S
C552   H743    1.119   .     S
C552   H742    1.111   .     S
C552   C553    1.530   .     S
C553   H745    1.111   .     S
C553   H744    1.111   .     S
C553   C554    1.526   .     S
C554   H747    1.110   .     S
C554   H748    1.111   .     S
C554   H746    1.111   .     S
C555   C599    1.453   .     S
C555   C606    1.395   .     S
C556   O833    1.414   .     S
C556   C557    1.527   .     S
C556   H749    1.115   .     S
C556   H750    1.114   .     S
C557   H752    1.112   .     S
C557   C558    1.527   .     S
C557   H753    1.112   .     S
C558   H756    1.110   .     S
C558   H754    1.111   .     S
C558   H755    1.111   .     S
C559   O834    1.420   .     S
C559   C560    1.530   .     S
C559   H757    1.110   .     S
C559   H758    1.119   .     S
C560   H759    1.111   .     S
C560   H760    1.111   .     S
C560   C561    1.525   .     S
C561   H763    1.111   .     S
C561   H764    1.110   .     S
C561   H761    1.111   .     S
C562   H765    1.111   .     S
C562   C563    1.532   .     S
C562   O835    1.421   .     S
C562   H1622   1.118   1_545 S
C563   H767    1.111   .     S
C563   H768    1.110   .     S
C563   C1420   1.526   1_545 S
C564   H771    1.110   .     S
C564   H770    1.111   .     S
C564   H769    1.111   .     S
C564   C1419   1.526   .     S
C565   H663    1.119   .     S
C565   H772    1.111   .     S
C565   O836    1.421   .     S
C565   C567    1.530   .     S
C566   C573    1.401   .     A
C566   C600    1.460   .     S
C567   H665    1.111   .     S
C567   C568    1.526   .     S
C567   H664    1.111   .     S
C568   H668    1.110   .     S
C568   H666    1.111   .     S
C568   H667    1.111   .     S
C569   H670    1.114   .     S
C569   H669    1.115   .     S
C569   O837    1.414   .     S
C569   C570    1.527   .     S
C570   H672    1.112   .     S
C570   C571    1.527   .     S
C570   H671    1.112   .     S
C571   H676    1.110   .     S
C571   H674    1.111   .     S
C571   H675    1.111   .     S
C572   C584    1.409   .     A
C572   C597    1.471   .     S
C572   C1484   1.409   1_545 S
C573   O822    1.385   .     S
C574   C639    1.397   .     A
C574   C598    1.451   .     S
C574   C1451   1.398   1_545 S
C575   C650    1.398   .     A
C575   C1367   1.397   1_545 S
C575   C1459   1.451   1_545 S
C576   C604    1.471   .     S
C576   C1334   1.409   1_545 S
C577   C601    1.460   .     S
C579   C658    1.420   .     A
C579   C585    1.403   .     A
C580   C659    1.414   .     A
C580   C583    1.403   .     A
C581   C660    1.415   .     A
C581   C587    1.403   .     A
C582   C586    1.401   .     A
C584   O823    1.386   .     S
C588   C593    1.401   1_556 S
C589   C592    1.403   1_554 S
C590   C596    1.403   1_556 S
C591   C594    1.403   1_554 S
C592   C589    1.403   1_556 S
C593   C588    1.401   1_554 S
C594   C591    1.403   1_556 S
C595   O824    1.385   .     S
C595   C1430   1.398   .     S
C596   C590    1.403   1_554 S
C597   O840    1.279   .     A
C597   O1673   1.281   1_545 S
C598   O828    1.273   .     A
C598   O1630   1.275   1_545 S
C599   O838    1.274   .     S
C600   O776    1.276   .     A
C601   O777    1.277   .     A
C601   O781    1.276   .     S
C602   O350    1.274   1_655 A
C602   C150    1.453   1_655 S
C602   O354    1.274   1_655 S
C603   C1431   1.451   .     S
C603   O1635   1.273   .     S
C603   O1639   1.275   .     S
C604   O785    1.279   .     A
C604   O780    1.280   .     A
C605   O814    1.277   .     A
C605   O786    1.277   .     A
C606   C658    1.414   .     A
C606   O825    1.383   .     S
C607   O815    1.277   .     A
C607   O787    1.278   .     A
C608   O812    1.277   .     A
C608   O788    1.277   .     A
C609   O789    1.277   .     A
C609   O813    1.277   .     A
C610   O790    1.277   .     A
C610   O819    1.277   .     A
C611   O791    1.277   .     A
C611   O820    1.278   .     A
C612   O816    1.277   .     A
C612   O792    1.277   .     A
C613   O818    1.277   .     A
C613   O793    1.277   .     A
C614   O794    1.277   .     A
C614   O805    1.277   .     A
C615   O807    1.277   .     A
C615   O796    1.277   .     A
C616   O803    1.277   .     A
C616   O797    1.277   .     A
C617   O826    1.385   .     S
C617   C659    1.412   .     A
C617   C138    1.401   1_655 S
C618   O804    1.277   .     A
C618   O798    1.277   .     A
C619   O810    1.277   .     A
C619   O799    1.277   .     A
C620   O800    1.277   .     A
C620   O811    1.277   .     A
C621   O801    1.277   .     A
C621   O808    1.277   .     A
C622   O809    1.277   .     A
C622   O802    1.277   .     A
C623   C640    1.397   .     A
C624   C638    1.399   .     A
C625   C637    1.397   .     A
C626   C636    1.398   .     A
C627   C635    1.397   .     A
C628   C660    1.409   .     A
C628   O827    1.386   .     S
C628   C1428   1.409   .     S
C629   C634    1.397   .     A
C630   C633    1.397   .     A
C631   C632    1.398   .     A
C639   O829    1.384   .     S
C641   C657    1.399   .     A
C642   C656    1.397   .     A
C643   C655    1.398   .     A
C644   C654    1.397   .     A
C645   C653    1.397   .     A
C646   C652    1.397   .     A
C647   C651    1.398   .     A
C648   C649    1.397   .     A
C650   O830    1.385   .     S
C659   C84     1.420   1_655 S
C660   C1369   1.416   .     S
H690   C1386   1.111   .     S
H735   C1405   1.118   1_545 S
H737   C1406   1.110   1_545 S
H766   C1418   1.118   .     S
O773   Zn844   1.943   .     S
O773   Zn841   1.943   .     S
O773   Zn852   1.943   .     S
O773   Zn1704  1.943   1_545 S
O774   Zn843   1.948   .     S
O774   C1454   1.275   .     S
O775   Zn846   1.948   .     S
O775   C171    1.274   1_655 A
O776   Zn845   1.948   .     S
O777   Zn855   1.948   .     S
O778   Zn854   1.948   .     S
O779   Zn849   1.948   .     S
O779   C1459   1.273   1_545 S
O780   Zn841   1.948   .     S
O781   Zn851   1.948   .     S
O782   Zn850   1.948   .     S
O783   Zn853   1.948   .     S
O783   C1459   1.275   1_545 S
O784   Zn853   1.943   .     S
O784   Zn847   1.943   .     S
O784   Zn849   1.943   .     S
O784   Zn1699  1.943   1_545 S
O785   Zn852   1.948   .     S
O786   Zn844   1.928   .     S
O787   Zn843   1.928   .     S
O788   Zn846   1.931   .     S
O789   Zn845   1.931   .     S
O790   Zn848   1.927   .     S
O791   Zn847   1.927   .     S
O792   Zn842   1.931   .     S
O793   Zn856   1.931   .     S
O794   Zn843   1.931   .     S
O795   Zn850   1.943   .     S
O795   Zn854   1.943   .     S
O795   Zn842   1.943   .     S
O796   Zn844   1.931   .     S
O797   Zn856   1.927   .     S
O798   Zn842   1.927   .     S
O799   Zn847   1.931   .     S
O800   Zn848   1.931   .     S
O801   Zn845   1.928   .     S
O802   Zn846   1.928   .     S
O803   Zn423   1.928   1_655 S
O804   Zn850   1.928   .     S
O805   Zn1709  1.931   .     S
O806   Zn845   1.943   .     S
O806   Zn851   1.943   .     S
O806   Zn855   1.943   .     S
O807   Zn852   1.931   .     S
O808   Zn855   1.927   .     S
O809   Zn426   1.927   1_655 S
O810   Zn849   1.931   .     S
O811   Zn1697  1.931   .     S
O812   Zn422   1.931   1_655 S
O813   Zn851   1.931   .     S
O814   Zn841   1.927   .     S
O815   Zn1705  1.927   .     S
O816   Zn854   1.931   .     S
O817   Zn848   1.948   .     S
O817   C1453   1.281   .     S
O818   Zn427   1.931   1_655 S
O819   Zn1708  1.928   .     S
O820   Zn853   1.928   .     S
O821   C91     1.414   1_655 S
O824   C1385   1.421   .     S
O828   Zn847   1.948   .     S
O829   C1398   1.420   1_545 S
O838   Zn842   1.948   .     S
O839   Zn856   1.948   .     S
O839   C172    1.277   1_655 S
O840   Zn844   1.948   .     S
Zn841  O1667   1.931   1_545 S
Zn843  O1640   1.943   .     S
Zn846  O367    1.943   1_655 S
Zn848  O1629   1.943   .     S
Zn849  O1671   1.927   1_545 S
Zn852  O1675   1.928   1_545 S
Zn853  O1661   1.931   1_545 S
Zn856  O378    1.943   1_655 S
Br857  C1007   1.940   .     S
Br858  C1017   1.940   .     S
Br859  C1018   1.940   .     S
Br860  C1019   1.940   .     S
Br861  C1020   1.940   .     S
Br862  C1021   1.939   .     S
Br863  C1022   1.940   .     S
Br864  C1024   1.940   .     S
Br865  C1051   1.935   .     S
Br866  C1052   1.933   .     S
Br867  C1053   1.934   .     S
Br868  C1008   1.940   .     S
Br869  C1054   1.931   .     S
Br870  C1055   1.935   .     S
Br871  C1057   1.931   .     S
Br872  C1058   1.934   .     S
Br873  C1059   1.931   .     S
Br874  C1060   1.927   .     S
Br875  C1061   1.933   .     S
Br876  C1062   1.935   .     S
Br877  C1063   1.935   .     S
Br878  C1064   1.927   .     S
Br879  C1009   1.940   .     S
Br880  C1065   1.934   .     S
Br881  C1066   1.933   .     S
Br882  C1068   1.935   .     S
Br883  C1069   1.933   .     S
Br884  C1070   1.935   .     S
Br885  C1071   1.927   .     S
Br886  C1072   1.933   .     S
Br887  C1073   1.935   .     S
Br888  C1074   1.935   .     S
Br889  C1075   1.927   .     S
Br890  C1010   1.940   .     S
Br891  C1076   1.933   .     S
Br892  C1077   1.934   .     S
Br893  C1079   1.931   .     S
Br894  C1080   1.935   .     S
Br895  C1081   1.931   .     S
Br896  C1082   1.934   .     S
Br897  C1083   1.931   .     S
Br898  C1084   1.935   .     S
Br899  C1085   1.933   .     S
Br900  C1011   1.940   .     S
Br901  C1013   1.940   .     S
Br902  C1014   1.939   .     S
Br903  C1015   1.940   .     S
Br904  C1016   1.940   .     S
C905   C908    1.414   .     A
C905   C1411   1.395   .     A
C905   O1249   1.383   .     S
C906   O1259   1.386   .     S
C906   C918    1.408   .     A
C906   C148    1.409   1_565 S
C907   C1010   1.416   .     A
C907   C942    1.421   .     A
C907   C1067   1.406   .     A
C908   C1011   1.420   .     A
C908   C1366   1.425   .     S
C909   C940    1.420   .     A
C909   C1001   1.412   .     A
C909   C1013   1.414   .     A
C910   C1012   1.408   .     A
C910   C1014   1.415   .     A
C910   C941    1.417   .     A
C911   C1023   1.408   .     A
C911   C1015   1.417   .     A
C911   C86     1.422   1_565 S
C912   C939    1.406   .     A
C912   C1016   1.416   .     A
C912   C87     1.421   1_565 S
C913   C1017   1.415   .     A
C913   C950    1.409   .     A
C913   C944    1.416   .     A
C914   C1018   1.413   .     A
C914   C945    1.420   .     A
C914   C961    1.412   .     A
C915   C1019   1.420   .     A
C915   C972    1.414   .     A
C915   C1374   1.425   .     S
C916   C1020   1.417   .     A
C916   C1078   1.408   .     A
C916   C943    1.422   .     A
C917   C919    1.412   .     A
C917   O1260   1.385   .     S
C917   C1433   1.401   .     S
C918   C1021   1.415   .     A
C918   C88     1.417   1_565 S
C919   C1022   1.414   .     A
C919   C1373   1.420   .     S
C920   C946    1.425   .     A
C920   C1024   1.420   .     A
C920   C928    1.414   .     A
C921   C1040   1.451   .     S
C921   C1068   1.408   .     A
C921   C1070   1.408   .     A
C922   C1069   1.407   .     A
C922   C1066   1.407   .     A
C922   C1041   1.451   .     S
C923   C1065   1.407   .     A
C923   C1072   1.407   .     A
C923   C1033   1.448   .     S
C924   C1071   1.405   .     A
C924   C1035   1.450   .     S
C924   C1064   1.405   .     A
C925   C1074   1.408   .     A
C925   C1036   1.451   .     S
C925   C1063   1.408   .     A
C926   C1037   1.449   .     S
C926   C1073   1.407   .     A
C926   C1062   1.407   .     A
C927   C1076   1.407   .     A
C927   C1061   1.407   .     A
C927   C1038   1.448   .     S
C928   O1261   1.383   .     S
C928   C1006   1.395   .     S
C929   C1075   1.405   .     A
C929   C1039   1.450   .     S
C929   C1060   1.405   .     A
C930   C1059   1.404   .     A
C930   C1079   1.404   .     A
C930   C1049   1.446   .     S
C931   C1058   1.407   .     A
C931   C1050   1.447   .     S
C931   C1077   1.407   .     A
C932   C1057   1.408   .     A
C932   C1081   1.408   .     A
C932   C1042   1.452   .     S
C933   C1080   1.407   .     A
C933   C1055   1.407   .     A
C933   C1043   1.451   .     S
C934   C1054   1.404   .     A
C934   C1083   1.404   .     A
C934   C1044   1.446   .     S
C935   C1082   1.407   .     A
C935   C1053   1.407   .     A
C935   C1046   1.447   .     S
C936   C1052   1.407   .     A
C936   C1047   1.450   .     S
C936   C1085   1.407   .     A
C937   C1051   1.407   .     A
C937   C1084   1.408   .     A
C937   C1048   1.451   .     S
C938   C1086   1.425   .     A
C938   C940    1.410   .     A
C938   C1336   1.425   1_455 S
C939   O1262   1.384   .     S
C939   C147    1.397   1_565 S
C940   C1515   1.420   1_455 S
C941   C942    1.405   .     A
C943   C944    1.405   1_556 S
C944   C943    1.405   1_554 S
C945   C1347   1.420   1_455 S
C945   C946    1.411   1_556 S
C946   C1343   1.425   1_455 S
C946   C945    1.411   1_554 S
C947   C948    1.527   .     S
C947   H1089   1.115   .     S
C947   H1113   1.114   .     S
C947   O1677   1.414   1_455 S
C948   H1124   1.112   .     S
C948   C949    1.527   .     S
C948   H1135   1.112   .     S
C949   H1146   1.111   .     S
C949   H1168   1.110   .     S
C949   H1157   1.111   .     S
C950   C1004   1.409   .     A
C950   O1263   1.386   .     S
C951   O1250   1.421   .     S
C951   H1190   1.119   .     S
C951   C952    1.530   .     S
C951   H1179   1.111   .     S
C952   H1101   1.111   .     S
C952   H1090   1.111   .     S
C952   C953    1.526   .     S
C953   H1105   1.111   .     S
C953   H1107   1.110   .     S
C953   H1106   1.111   .     S
C954   O1251   1.421   .     S
C954   C955    1.532   .     S
C954   H1108   1.111   .     S
C954   H1109   1.118   .     S
C955   H1110   1.111   .     S
C955   H1111   1.110   .     S
C955   C956    1.526   .     S
C956   H1115   1.110   .     S
C956   H1112   1.111   .     S
C956   H1114   1.111   .     S
C957   C958    1.529   .     S
C957   H1117   1.119   .     S
C957   H1116   1.111   .     S
C958   H1119   1.111   .     S
C958   C959    1.526   .     S
C959   H1121   1.111   .     S
C959   H1120   1.111   .     S
C959   H1122   1.110   .     S
C960   H1125   1.114   .     S
C960   C962    1.527   .     S
C960   H1123   1.115   .     S
C960   O1681   1.414   .     S
C961   O1264   1.385   .     S
C961   C1005   1.401   .     A
C962   C963    1.527   .     S
C962   H1127   1.112   .     S
C962   H1126   1.112   .     S
C963   H1128   1.111   .     S
C963   H1129   1.111   .     S
C963   H1130   1.110   .     S
C964   C965    1.530   .     S
C964   H1131   1.111   .     S
C964   H1132   1.119   .     S
C964   O1254   1.421   .     S
C965   H1134   1.111   .     S
C965   H1133   1.111   .     S
C965   C966    1.526   .     S
C966   H1137   1.111   .     S
C966   H1138   1.110   .     S
C966   H1136   1.111   .     S
C967   H1140   1.118   .     S
C967   C968    1.532   .     S
C967   H1139   1.111   .     S
C967   O1255   1.421   .     S
C968   H1141   1.111   .     S
C968   H1142   1.110   .     S
C968   C969    1.526   .     S
C969   H1145   1.110   .     S
C969   H1143   1.111   .     S
C969   H1144   1.111   .     S
C970   H1148   1.119   .     S
C970   H1147   1.110   .     S
C970   C115    1.530   1_565 S
C970   O401    1.420   1_565 S
C971   H1150   1.111   .     S
C971   H1149   1.111   .     S
C972   O1265   1.383   .     S
C972   C1434   1.395   .     A
C973   H1153   1.110   .     S
C973   H1151   1.111   .     S
C973   H1152   1.111   .     S
C973   C115    1.525   1_565 S
C974   H1154   1.111   .     S
C974   O1258   1.421   .     S
C974   H1155   1.119   .     S
C974   C975    1.529   .     S
C975   H1156   1.111   .     S
C975   H1158   1.111   .     S
C975   C976    1.526   .     S
C976   H1161   1.110   .     S
C976   H1159   1.111   .     S
C976   H1160   1.111   .     S
C977   C978    1.532   .     S
C977   O1259   1.421   .     S
C977   H1162   1.111   .     S
C977   H307    1.118   1_565 S
C978   H1164   1.111   .     S
C978   C123    1.526   1_565 S
C978   H309    1.110   1_565 S
C979   H1166   1.111   .     S
C979   H1169   1.110   .     S
C979   H1167   1.111   .     S
C980   O1260   1.421   .     S
C980   H1171   1.119   .     S
C980   H1170   1.111   .     S
C980   C981    1.530   .     S
C981   H1173   1.111   .     S
C981   H1172   1.111   .     S
C981   C982    1.526   .     S
C982   H1175   1.110   .     S
C982   H1176   1.111   .     S
C982   H1174   1.111   .     S
C983   C1027   1.453   .     S
C983   C1333   1.395   1_455 A
C983   C1034   1.395   .     S
C984   O1261   1.414   .     S
C984   C985    1.527   .     S
C984   H1177   1.115   .     S
C984   H1178   1.114   .     S
C985   H1180   1.112   .     S
C985   C986    1.527   .     S
C985   H1181   1.112   .     S
C986   H1184   1.110   .     S
C986   H1182   1.111   .     S
C986   H1183   1.111   .     S
C987   O1262   1.420   .     S
C987   C988    1.530   .     S
C987   H1185   1.110   .     S
C987   H1186   1.119   .     S
C988   H1187   1.111   .     S
C988   H1188   1.111   .     S
C988   C989    1.525   .     S
C989   H1191   1.111   .     S
C989   H1192   1.110   .     S
C989   H1189   1.111   .     S
C990   H1193   1.111   .     S
C990   C991    1.532   .     S
C990   O1263   1.421   .     S
C991   H1195   1.111   .     S
C991   H1196   1.110   .     S
C992   H1199   1.110   .     S
C992   H1198   1.111   .     S
C992   H1197   1.111   .     S
C992   C135    1.526   1_565 S
C993   H1091   1.119   .     S
C993   H1200   1.111   .     S
C993   O1264   1.421   .     S
C993   C995    1.530   .     S
C994   C1001   1.401   .     A
C994   C1028   1.460   .     S
C994   C1473   1.401   1_455 S
C995   H1093   1.111   .     S
C995   C996    1.526   .     S
C995   H1092   1.111   .     S
C996   H1096   1.110   .     S
C996   H1094   1.111   .     S
C996   H1095   1.111   .     S
C997   H1098   1.114   .     S
C997   H1097   1.115   .     S
C997   O1265   1.414   .     S
C997   C998    1.527   .     S
C998   H1100   1.112   .     S
C998   C999    1.527   .     S
C998   H1099   1.112   .     S
C999   H1104   1.110   .     S
C999   H1102   1.111   .     S
C999   H1103   1.111   .     S
C1000  C1012   1.409   .     A
C1000  C1025   1.471   .     S
C1001  O1250   1.385   .     S
C1002  C1067   1.397   .     A
C1002  C1026   1.451   .     S
C1003  C1078   1.398   .     A
C1004  C1032   1.471   .     S
C1005  C1029   1.460   .     S
C1005  C1345   1.401   1_455 S
C1006  C1400   1.395   1_455 A
C1006  C1458   1.453   1_455 S
C1007  C1086   1.420   .     A
C1007  C1013   1.403   .     A
C1008  C1087   1.414   .     A
C1008  C1011   1.403   .     A
C1009  C1088   1.415   .     A
C1009  C1015   1.403   .     A
C1010  C1014   1.401   .     A
C1012  O1251   1.386   .     S
C1016  C1021   1.401   1_556 S
C1017  C1020   1.403   1_554 S
C1018  C1024   1.403   1_556 S
C1019  C1022   1.403   1_554 S
C1020  C1017   1.403   1_556 S
C1021  C1016   1.401   1_554 S
C1022  C1019   1.403   1_556 S
C1023  O1252   1.385   .     S
C1023  C146    1.398   1_565 S
C1024  C1018   1.403   1_554 S
C1025  O1268   1.279   .     A
C1026  O1256   1.273   .     A
C1027  O1631   1.274   1_455 A
C1027  O1266   1.274   .     S
C1028  O1204   1.276   .     A
C1028  O1695   1.277   1_455 S
C1029  O1205   1.277   .     A
C1029  O1209   1.276   .     S
C1030  O1634   1.274   .     A
C1030  C1434   1.453   .     S
C1030  O1638   1.274   .     S
C1031  C147    1.451   1_565 S
C1031  O351    1.273   1_565 S
C1031  O355    1.275   1_565 S
C1032  O1213   1.279   .     A
C1032  O1208   1.280   .     A
C1033  O1242   1.277   .     A
C1033  O1214   1.277   .     A
C1034  C1086   1.414   .     A
C1034  O1253   1.383   .     S
C1035  O1243   1.277   .     A
C1035  O1215   1.278   .     A
C1036  O1240   1.277   .     A
C1036  O1216   1.277   .     A
C1037  O1217   1.277   .     A
C1037  O1241   1.277   .     A
C1038  O1218   1.277   .     A
C1038  O1247   1.277   .     A
C1039  O1219   1.277   .     A
C1039  O1248   1.278   .     A
C1040  O1244   1.277   .     A
C1040  O1220   1.277   .     A
C1041  O1246   1.277   .     A
C1041  O1221   1.277   .     A
C1042  O1222   1.277   .     A
C1042  O1233   1.277   .     A
C1043  O1235   1.277   .     A
C1043  O1224   1.277   .     A
C1044  O1231   1.277   .     A
C1044  O1225   1.277   .     A
C1045  O1254   1.385   .     S
C1045  C1087   1.412   .     A
C1045  C1422   1.401   .     S
C1046  O1232   1.277   .     A
C1046  O1226   1.277   .     A
C1047  O1238   1.277   .     A
C1047  O1227   1.277   .     A
C1048  O1228   1.277   .     A
C1048  O1239   1.277   .     A
C1049  O1229   1.277   .     A
C1049  O1236   1.277   .     A
C1050  O1237   1.277   .     A
C1050  O1230   1.277   .     A
C1051  C1068   1.397   .     A
C1052  C1066   1.399   .     A
C1053  C1065   1.397   .     A
C1054  C1064   1.398   .     A
C1055  C1063   1.397   .     A
C1056  C1088   1.409   .     A
C1056  O1255   1.386   .     S
C1056  C144    1.409   1_565 S
C1057  C1062   1.397   .     A
C1058  C1061   1.397   .     A
C1059  C1060   1.398   .     A
C1067  O1257   1.384   .     S
C1069  C1085   1.399   .     A
C1070  C1084   1.397   .     A
C1071  C1083   1.398   .     A
C1072  C1082   1.397   .     A
C1073  C1081   1.397   .     A
C1074  C1080   1.397   .     A
C1075  C1079   1.398   .     A
C1076  C1077   1.397   .     A
C1078  O1258   1.385   .     S
C1087  C1368   1.420   .     S
C1088  C85     1.416   1_565 S
H1118  C102    1.111   1_565 S
H1194  C134    1.118   1_565 S
O1201  Zn1272  1.943   .     S
O1201  Zn1269  1.943   .     S
O1201  Zn1280  1.943   .     S
O1202  Zn1271  1.948   .     S
O1202  C170    1.275   1_565 S
O1203  Zn1274  1.948   .     S
O1203  C1455   1.274   .     A
O1204  Zn1273  1.948   .     S
O1205  Zn1283  1.948   .     S
O1206  C1458   1.274   1_455 A
O1206  Zn1282  1.948   .     S
O1207  Zn1277  1.948   .     S
O1208  Zn1269  1.948   .     S
O1209  Zn1279  1.948   .     S
O1210  Zn1278  1.948   .     S
O1210  C1458   1.274   1_455 S
O1211  Zn1281  1.948   .     S
O1212  Zn1281  1.943   .     S
O1212  Zn1275  1.943   .     S
O1212  Zn1277  1.943   .     S
O1213  Zn1280  1.948   .     S
O1214  Zn1272  1.928   .     S
O1215  Zn1271  1.928   .     S
O1216  Zn1274  1.931   .     S
O1217  Zn1273  1.931   .     S
O1218  Zn1276  1.927   .     S
O1219  Zn1275  1.927   .     S
O1220  Zn1270  1.931   .     S
O1221  Zn1284  1.931   .     S
O1222  Zn1271  1.931   .     S
O1223  Zn1278  1.943   .     S
O1223  Zn1282  1.943   .     S
O1223  Zn1270  1.943   .     S
O1223  Zn1702  1.943   1_455 S
O1224  Zn1272  1.931   .     S
O1225  Zn1284  1.927   .     S
O1226  Zn1270  1.927   .     S
O1227  Zn1275  1.931   .     S
O1228  Zn1276  1.931   .     S
O1229  Zn1273  1.928   .     S
O1230  Zn1274  1.928   .     S
O1231  Zn1707  1.928   .     S
O1232  Zn1278  1.928   .     S
O1233  Zn425   1.931   1_565 S
O1234  Zn1712  1.943   1_455 S
O1234  Zn1273  1.943   .     S
O1234  Zn1279  1.943   .     S
O1234  Zn1283  1.943   .     S
O1235  Zn1280  1.931   .     S
O1236  Zn1283  1.927   .     S
O1237  Zn1710  1.927   .     S
O1238  Zn1277  1.931   .     S
O1239  Zn413   1.931   1_565 S
O1240  Zn1706  1.931   .     S
O1241  Zn1279  1.931   .     S
O1242  Zn1269  1.927   .     S
O1243  Zn421   1.927   1_565 S
O1244  Zn1282  1.931   .     S
O1245  Zn1276  1.948   .     S
O1245  C169    1.281   1_565 S
O1246  Zn1711  1.931   .     S
O1247  Zn424   1.928   1_565 S
O1248  Zn1281  1.928   .     S
O1249  C1375   1.414   .     S
O1252  C101    1.421   1_565 S
O1253  C1388   1.414   1_455 S
O1256  Zn1275  1.948   .     S
O1266  Zn1270  1.948   .     S
O1267  Zn1284  1.948   .     S
O1267  C1456   1.277   .     S
O1268  Zn1272  1.948   .     S
Zn1271 O356    1.943   1_565 S
Zn1274 O1651   1.943   .     S
Zn1276 O345    1.943   1_565 S
Zn1278 O1668   1.931   1_455 S
Zn1279 O1659   1.928   1_455 S
Zn1282 O1665   1.927   1_455 S
Zn1283 O1674   1.931   1_455 S
Zn1284 O1662   1.943   .     S
Br1285 C1435   1.940   .     S
Br1286 C1445   1.940   .     S
Br1287 C1446   1.940   .     S
Br1288 C1447   1.940   .     S
Br1289 C1448   1.940   .     S
Br1290 C1449   1.939   .     S
Br1291 C1450   1.940   .     S
Br1292 C1452   1.940   .     S
Br1293 C1479   1.935   .     S
Br1294 C1480   1.933   .     S
Br1295 C1481   1.934   .     S
Br1296 C1436   1.940   .     S
Br1297 C1482   1.931   .     S
Br1298 C1483   1.935   .     S
Br1299 C1485   1.931   .     S
Br1300 C1486   1.934   .     S
Br1301 C1487   1.931   .     S
Br1302 C1488   1.927   .     S
Br1303 C1489   1.933   .     S
Br1304 C1490   1.935   .     S
Br1305 C1491   1.935   .     S
Br1306 C1492   1.927   .     S
Br1307 C1437   1.940   .     S
Br1308 C1493   1.934   .     S
Br1309 C1494   1.933   .     S
Br1310 C1496   1.935   .     S
Br1311 C1497   1.933   .     S
Br1312 C1498   1.935   .     S
Br1313 C1499   1.927   .     S
Br1314 C1500   1.933   .     S
Br1315 C1501   1.935   .     S
Br1316 C1502   1.935   .     S
Br1317 C1503   1.927   .     S
Br1318 C1438   1.940   .     S
Br1319 C1504   1.933   .     S
Br1320 C1505   1.934   .     S
Br1321 C1507   1.931   .     S
Br1322 C1508   1.935   .     S
Br1323 C1509   1.931   .     S
Br1324 C1510   1.934   .     S
Br1325 C1511   1.931   .     S
Br1326 C1512   1.935   .     S
Br1327 C1513   1.933   .     S
Br1328 C1439   1.940   .     S
Br1329 C1441   1.940   .     S
Br1330 C1442   1.939   .     S
Br1331 C1443   1.940   .     S
Br1332 C1444   1.940   .     S
C1333  C1336   1.414   .     A
C1333  C983    1.395   1_655 A
C1333  O1677   1.383   .     S
C1334  O1687   1.386   .     S
C1334  C1346   1.408   .     A
C1334  C576    1.409   1_565 S
C1335  C1438   1.416   .     A
C1335  C1370   1.421   .     A
C1335  C1495   1.406   .     A
C1336  C1439   1.420   .     A
C1336  C938    1.425   1_655 S
C1337  C1368   1.420   .     A
C1337  C1429   1.412   .     A
C1337  C1441   1.414   .     A
C1338  C1440   1.408   .     A
C1338  C1442   1.415   .     A
C1338  C1369   1.417   .     A
C1339  C1451   1.408   .     A
C1339  C1443   1.417   .     A
C1339  C514    1.422   1_565 S
C1340  C1367   1.406   .     A
C1340  C1444   1.416   .     A
C1340  C515    1.421   1_565 S
C1341  C1445   1.415   .     A
C1341  C1378   1.409   .     A
C1341  C1372   1.416   .     A
C1342  C1446   1.413   .     A
C1342  C1373   1.420   .     A
C1342  C1389   1.412   .     A
C1343  C1447   1.420   .     A
C1343  C1400   1.414   .     A
C1343  C946    1.425   1_655 S
C1344  C1448   1.417   .     A
C1344  C1506   1.408   .     A
C1344  C1371   1.422   .     A
C1345  C1347   1.412   .     A
C1345  O1688   1.385   .     S
C1345  C1005   1.401   1_655 S
C1346  C1449   1.415   .     A
C1346  C516    1.417   1_565 S
C1347  C1450   1.414   .     A
C1347  C945    1.420   1_655 S
C1348  C1374   1.425   .     A
C1348  C1452   1.420   .     A
C1348  C1356   1.414   .     A
C1349  C1468   1.451   .     S
C1349  C1496   1.408   .     A
C1349  C1498   1.408   .     A
C1350  C1497   1.407   .     A
C1350  C1494   1.407   .     A
C1350  C1469   1.451   .     S
C1351  C1493   1.407   .     A
C1351  C1500   1.407   .     A
C1351  C1461   1.448   .     S
C1352  C1499   1.405   .     A
C1352  C1463   1.450   .     S
C1352  C1492   1.405   .     A
C1353  C1502   1.408   .     A
C1353  C1464   1.451   .     S
C1353  C1491   1.408   .     A
C1354  C1465   1.449   .     S
C1354  C1501   1.407   .     A
C1354  C1490   1.407   .     A
C1355  C1504   1.407   .     A
C1355  C1489   1.407   .     A
C1355  C1466   1.448   .     S
C1356  O1689   1.383   .     S
C1356  C1434   1.395   .     S
C1357  C1503   1.405   .     A
C1357  C1467   1.450   .     S
C1357  C1488   1.405   .     A
C1358  C1487   1.404   .     A
C1358  C1507   1.404   .     A
C1358  C1477   1.446   .     S
C1359  C1486   1.407   .     A
C1359  C1478   1.447   .     S
C1359  C1505   1.407   .     A
C1360  C1485   1.408   .     A
C1360  C1509   1.408   .     A
C1360  C1470   1.452   .     S
C1361  C1508   1.407   .     A
C1361  C1483   1.407   .     A
C1361  C1471   1.451   .     S
C1362  C1482   1.404   .     A
C1362  C1511   1.404   .     A
C1362  C1472   1.446   .     S
C1363  C1510   1.407   .     A
C1363  C1481   1.407   .     A
C1363  C1474   1.447   .     S
C1364  C1480   1.407   .     A
C1364  C1475   1.450   .     S
C1364  C1513   1.407   .     A
C1365  C1479   1.407   .     A
C1365  C1512   1.408   .     A
C1365  C1476   1.451   .     S
C1366  C1514   1.425   .     A
C1366  C1368   1.410   .     A
C1367  O1690   1.384   .     S
C1367  C575    1.397   1_565 S
C1369  C1370   1.405   .     A
C1371  C1372   1.405   1_556 S
C1372  C1371   1.405   1_554 S
C1373  C1374   1.411   1_556 S
C1374  C1373   1.411   1_554 S
C1375  C1376   1.527   .     S
C1375  H1517   1.115   .     S
C1375  H1541   1.114   .     S
C1376  H1552   1.112   .     S
C1376  C1377   1.527   .     S
C1376  H1563   1.112   .     S
C1377  H1574   1.111   .     S
C1377  H1596   1.110   .     S
C1377  H1585   1.111   .     S
C1378  C1432   1.409   .     A
C1378  O1691   1.386   .     S
C1379  O1678   1.421   .     S
C1379  H1618   1.119   .     S
C1379  C1380   1.530   .     S
C1379  H1607   1.111   .     S
C1380  H1529   1.111   .     S
C1380  H1518   1.111   .     S
C1380  C1381   1.526   .     S
C1381  H1533   1.111   .     S
C1381  H1535   1.110   .     S
C1381  H1534   1.111   .     S
C1382  O1679   1.421   .     S
C1382  C1383   1.532   .     S
C1382  H1536   1.111   .     S
C1382  H1537   1.118   .     S
C1383  H1538   1.111   .     S
C1383  H1539   1.110   .     S
C1383  C1384   1.526   .     S
C1384  H1543   1.110   .     S
C1384  H1540   1.111   .     S
C1384  H1542   1.111   .     S
C1385  C1386   1.529   .     S
C1385  H1545   1.119   .     S
C1385  H1544   1.111   .     S
C1386  H1547   1.111   .     S
C1386  C1387   1.526   .     S
C1387  H1549   1.111   .     S
C1387  H1548   1.111   .     S
C1387  H1550   1.110   .     S
C1388  H1553   1.114   .     S
C1388  C1390   1.527   .     S
C1388  H1551   1.115   .     S
C1388  O1253   1.414   1_655 S
C1389  O1692   1.385   .     S
C1389  C1433   1.401   .     A
C1390  C1391   1.527   .     S
C1390  H1555   1.112   .     S
C1390  H1554   1.112   .     S
C1391  H1556   1.111   .     S
C1391  H1557   1.111   .     S
C1391  H1558   1.110   .     S
C1392  C1393   1.530   .     S
C1392  H1559   1.111   .     S
C1392  H1560   1.119   .     S
C1392  O1682   1.421   .     S
C1393  H1562   1.111   .     S
C1393  H1561   1.111   .     S
C1393  C1394   1.526   .     S
C1394  H1565   1.111   .     S
C1394  H1566   1.110   .     S
C1394  H1564   1.111   .     S
C1395  H1568   1.118   .     S
C1395  C1396   1.532   .     S
C1395  H1567   1.111   .     S
C1395  O1683   1.421   .     S
C1396  H1569   1.111   .     S
C1396  H1570   1.110   .     S
C1396  C1397   1.526   .     S
C1397  H1573   1.110   .     S
C1397  H1571   1.111   .     S
C1397  H1572   1.111   .     S
C1398  H1576   1.119   .     S
C1398  H1575   1.110   .     S
C1398  C543    1.530   1_565 S
C1398  O829    1.420   1_565 S
C1399  H1578   1.111   .     S
C1399  H1577   1.111   .     S
C1400  O1693   1.383   .     S
C1400  C1006   1.395   1_655 A
C1401  H1581   1.110   .     S
C1401  H1579   1.111   .     S
C1401  H1580   1.111   .     S
C1401  C543    1.525   1_565 S
C1402  H1582   1.111   .     S
C1402  O1686   1.421   .     S
C1402  H1583   1.119   .     S
C1402  C1403   1.529   .     S
C1403  H1584   1.111   .     S
C1403  H1586   1.111   .     S
C1403  C1404   1.526   .     S
C1404  H1589   1.110   .     S
C1404  H1587   1.111   .     S
C1404  H1588   1.111   .     S
C1405  C1406   1.532   .     S
C1405  O1687   1.421   .     S
C1405  H1590   1.111   .     S
C1405  H735    1.118   1_565 S
C1406  H1592   1.111   .     S
C1406  C551    1.526   1_565 S
C1406  H737    1.110   1_565 S
C1407  H1594   1.111   .     S
C1407  H1597   1.110   .     S
C1407  H1595   1.111   .     S
C1408  O1688   1.421   .     S
C1408  H1599   1.119   .     S
C1408  H1598   1.111   .     S
C1408  C1409   1.530   .     S
C1409  H1601   1.111   .     S
C1409  H1600   1.111   .     S
C1409  C1410   1.526   .     S
C1410  H1603   1.110   .     S
C1410  H1604   1.111   .     S
C1410  H1602   1.111   .     S
C1411  C1455   1.453   .     S
C1411  C1462   1.395   .     S
C1412  O1689   1.414   .     S
C1412  C1413   1.527   .     S
C1412  H1605   1.115   .     S
C1412  H1606   1.114   .     S
C1413  H1608   1.112   .     S
C1413  C1414   1.527   .     S
C1413  H1609   1.112   .     S
C1414  H1612   1.110   .     S
C1414  H1610   1.111   .     S
C1414  H1611   1.111   .     S
C1415  O1690   1.420   .     S
C1415  C1416   1.530   .     S
C1415  H1613   1.110   .     S
C1415  H1614   1.119   .     S
C1416  H1615   1.111   .     S
C1416  H1616   1.111   .     S
C1416  C1417   1.525   .     S
C1417  H1619   1.111   .     S
C1417  H1620   1.110   .     S
C1417  H1617   1.111   .     S
C1418  H1621   1.111   .     S
C1418  C1419   1.532   .     S
C1418  O1691   1.421   .     S
C1419  H1623   1.111   .     S
C1419  H1624   1.110   .     S
C1420  H1627   1.110   .     S
C1420  H1626   1.111   .     S
C1420  H1625   1.111   .     S
C1420  C563    1.526   1_565 S
C1421  H1519   1.119   .     S
C1421  H1628   1.111   .     S
C1421  O1692   1.421   .     S
C1421  C1423   1.530   .     S
C1422  C1429   1.401   .     A
C1422  C1456   1.460   .     S
C1423  H1521   1.111   .     S
C1423  C1424   1.526   .     S
C1423  H1520   1.111   .     S
C1424  H1524   1.110   .     S
C1424  H1522   1.111   .     S
C1424  H1523   1.111   .     S
C1425  H1526   1.114   .     S
C1425  H1525   1.115   .     S
C1425  O1693   1.414   .     S
C1425  C1426   1.527   .     S
C1426  H1528   1.112   .     S
C1426  C1427   1.527   .     S
C1426  H1527   1.112   .     S
C1427  H1532   1.110   .     S
C1427  H1530   1.111   .     S
C1427  H1531   1.111   .     S
C1428  C1440   1.409   .     A
C1428  C1453   1.471   .     S
C1429  O1678   1.385   .     S
C1430  C1495   1.397   .     A
C1430  C1454   1.451   .     S
C1431  C1506   1.398   .     A
C1432  C1460   1.471   .     S
C1433  C1457   1.460   .     S
C1435  C1514   1.420   .     A
C1435  C1441   1.403   .     A
C1436  C1515   1.414   .     A
C1436  C1439   1.403   .     A
C1437  C1516   1.415   .     A
C1437  C1443   1.403   .     A
C1438  C1442   1.401   .     A
C1440  O1679   1.386   .     S
C1444  C1449   1.401   1_556 S
C1445  C1448   1.403   1_554 S
C1446  C1452   1.403   1_556 S
C1447  C1450   1.403   1_554 S
C1448  C1445   1.403   1_556 S
C1449  C1444   1.401   1_554 S
C1450  C1447   1.403   1_556 S
C1451  O1680   1.385   .     S
C1451  C574    1.398   1_565 S
C1452  C1446   1.403   1_554 S
C1453  O1696   1.279   .     A
C1454  O1684   1.273   .     A
C1455  O1694   1.274   .     S
C1456  O1632   1.276   .     A
C1457  O1633   1.277   .     A
C1457  O1637   1.276   .     S
C1458  O1206   1.274   1_655 A
C1458  C1006   1.453   1_655 S
C1458  O1210   1.274   1_655 S
C1459  C575    1.451   1_565 S
C1459  O779    1.273   1_565 S
C1459  O783    1.275   1_565 S
C1460  O1641   1.279   .     A
C1460  O1636   1.280   .     A
C1461  O1670   1.277   .     A
C1461  O1642   1.277   .     A
C1462  C1514   1.414   .     A
C1462  O1681   1.383   .     S
C1463  O1671   1.277   .     A
C1463  O1643   1.278   .     A
C1464  O1668   1.277   .     A
C1464  O1644   1.277   .     A
C1465  O1645   1.277   .     A
C1465  O1669   1.277   .     A
C1466  O1646   1.277   .     A
C1466  O1675   1.277   .     A
C1467  O1647   1.277   .     A
C1467  O1676   1.278   .     A
C1468  O1672   1.277   .     A
C1468  O1648   1.277   .     A
C1469  O1674   1.277   .     A
C1469  O1649   1.277   .     A
C1470  O1650   1.277   .     A
C1470  O1661   1.277   .     A
C1471  O1663   1.277   .     A
C1471  O1652   1.277   .     A
C1472  O1659   1.277   .     A
C1472  O1653   1.277   .     A
C1473  O1682   1.385   .     S
C1473  C1515   1.412   .     A
C1473  C994    1.401   1_655 S
C1474  O1660   1.277   .     A
C1474  O1654   1.277   .     A
C1475  O1666   1.277   .     A
C1475  O1655   1.277   .     A
C1476  O1656   1.277   .     A
C1476  O1667   1.277   .     A
C1477  O1657   1.277   .     A
C1477  O1664   1.277   .     A
C1478  O1665   1.277   .     A
C1478  O1658   1.277   .     A
C1479  C1496   1.397   .     A
C1480  C1494   1.399   .     A
C1481  C1493   1.397   .     A
C1482  C1492   1.398   .     A
C1483  C1491   1.397   .     A
C1484  C1516   1.409   .     A
C1484  O1683   1.386   .     S
C1484  C572    1.409   1_565 S
C1485  C1490   1.397   .     A
C1486  C1489   1.397   .     A
C1487  C1488   1.398   .     A
C1495  O1685   1.384   .     S
C1497  C1513   1.399   .     A
C1498  C1512   1.397   .     A
C1499  C1511   1.398   .     A
C1500  C1510   1.397   .     A
C1501  C1509   1.397   .     A
C1502  C1508   1.397   .     A
C1503  C1507   1.398   .     A
C1504  C1505   1.397   .     A
C1506  O1686   1.385   .     S
C1515  C940    1.420   1_655 S
C1516  C513    1.416   1_565 S
H1546  C530    1.111   1_565 S
H1622  C562    1.118   1_565 S
O1629  Zn1700  1.943   .     S
O1629  Zn1697  1.943   .     S
O1629  Zn1708  1.943   .     S
O1630  Zn1699  1.948   .     S
O1630  C598    1.275   1_565 S
O1631  Zn1702  1.948   .     S
O1631  C1027   1.274   1_655 A
O1632  Zn1701  1.948   .     S
O1633  Zn1711  1.948   .     S
O1634  Zn1710  1.948   .     S
O1635  Zn1705  1.948   .     S
O1636  Zn1697  1.948   .     S
O1637  Zn1707  1.948   .     S
O1638  Zn1706  1.948   .     S
O1639  Zn1709  1.948   .     S
O1640  Zn1709  1.943   .     S
O1640  Zn1703  1.943   .     S
O1640  Zn1705  1.943   .     S
O1641  Zn1708  1.948   .     S
O1642  Zn1700  1.928   .     S
O1643  Zn1699  1.928   .     S
O1644  Zn1702  1.931   .     S
O1645  Zn1701  1.931   .     S
O1646  Zn1704  1.927   .     S
O1647  Zn1703  1.927   .     S
O1648  Zn1698  1.931   .     S
O1649  Zn1712  1.931   .     S
O1650  Zn1699  1.931   .     S
O1651  Zn1706  1.943   .     S
O1651  Zn1710  1.943   .     S
O1651  Zn1698  1.943   .     S
O1652  Zn1700  1.931   .     S
O1653  Zn1712  1.927   .     S
O1654  Zn1698  1.927   .     S
O1655  Zn1703  1.931   .     S
O1656  Zn1704  1.931   .     S
O1657  Zn1701  1.928   .     S
O1658  Zn1702  1.928   .     S
O1659  Zn1279  1.928   1_655 S
O1660  Zn1706  1.928   .     S
O1661  Zn853   1.931   1_565 S
O1662  Zn1701  1.943   .     S
O1662  Zn1707  1.943   .     S
O1662  Zn1711  1.943   .     S
O1663  Zn1708  1.931   .     S
O1664  Zn1711  1.927   .     S
O1665  Zn1282  1.927   1_655 S
O1666  Zn1705  1.931   .     S
O1667  Zn841   1.931   1_565 S
O1668  Zn1278  1.931   1_655 S
O1669  Zn1707  1.931   .     S
O1670  Zn1697  1.927   .     S
O1671  Zn849   1.927   1_565 S
O1672  Zn1710  1.931   .     S
O1673  Zn1704  1.948   .     S
O1673  C597    1.281   1_565 S
O1674  Zn1283  1.931   1_655 S
O1675  Zn852   1.928   1_565 S
O1676  Zn1709  1.928   .     S
O1677  C947    1.414   1_655 S
O1680  C529    1.421   1_565 S
O1684  Zn1703  1.948   .     S
O1694  Zn1698  1.948   .     S
O1695  Zn1712  1.948   .     S
O1695  C1028   1.277   1_655 S
O1696  Zn1700  1.948   .     S
Zn1699 O784    1.943   1_565 S
Zn1702 O1223   1.943   1_655 S
Zn1704 O773    1.943   1_565 S
Zn1712 O1234   1.943   1_655 S
