data_str_m3_o2_o5_pcu_sym.82
_audit_creation_date              2020-01-03
_audit_creation_method            'Materials Studio'
_symmetry_space_group_name_H-M    'P1'
_symmetry_Int_Tables_number       1
_symmetry_cell_setting            triclinic
loop_
_symmetry_equiv_pos_as_xyz
  x,y,z
_cell_length_a                    29.8548
_cell_length_b                    28.6313
_cell_length_c                    26.7313
_cell_angle_alpha                 89.9959
_cell_angle_beta                  91.9605
_cell_angle_gamma                 89.9344
loop_
_atom_site_label
_atom_site_type_symbol
_atom_site_fract_x
_atom_site_fract_y
_atom_site_fract_z
_atom_site_U_iso_or_equiv
_atom_site_adp_type
_atom_site_occupancy
C1     C     0.16394   0.25000   0.16746   0.00000  Uiso   1.00
C2     C     0.21562   0.44778   0.14255   0.00000  Uiso   1.00
C3     C     0.24989   0.25000   0.07295   0.00000  Uiso   1.00
C4     C     0.25015   0.25000   0.26038   0.00000  Uiso   1.00
C5     C     0.25004   0.02656   0.16665   0.00000  Uiso   1.00
C6     C     0.25004   0.47352   0.16664   0.00000  Uiso   1.00
C7     C     0.25000   0.24999   0.02181   0.00000  Uiso   1.00
C8     C     0.25009   0.24999   0.31152   0.00000  Uiso   1.00
C9     C     0.04309   0.28193   0.15227   0.00000  Uiso   1.00
C10    C     0.45526   0.21988   0.14593   0.00000  Uiso   1.00
C11    C     0.45096   0.27024   0.22056   0.00000  Uiso   1.00
C12    C     0.33598   0.24993   0.16710   0.00000  Uiso   1.00
C13    C     0.05181   0.21963   0.21587   0.00000  Uiso   1.00
C14    C     0.08923   0.28079   0.14508   0.00000  Uiso   1.00
C15    C     0.40932   0.22350   0.13791   0.00000  Uiso   1.00
C16    C     0.40430   0.27171   0.21365   0.00000  Uiso   1.00
C17    C     0.09817   0.22021   0.20969   0.00000  Uiso   1.00
C18    C     0.11609   0.24996   0.17365   0.00000  Uiso   1.00
C19    C     0.38409   0.24944   0.17186   0.00000  Uiso   1.00
C20    C     0.02453   0.25009   0.18638   0.00000  Uiso   1.00
C21    C     0.47621   0.24488   0.18591   0.00000  Uiso   1.00
C22    C     0.22780   0.10154   0.12904   0.00000  Uiso   1.00
C23    C     0.28343   0.39850   0.19187   0.00000  Uiso   1.00
C24    C     0.27223   0.10149   0.20428   0.00000  Uiso   1.00
C25    C     0.21664   0.39861   0.14136   0.00000  Uiso   1.00
C26    C     0.22891   0.05237   0.12789   0.00000  Uiso   1.00
C27    C     0.28447   0.44768   0.19069   0.00000  Uiso   1.00
C28    C     0.27115   0.05232   0.20542   0.00000  Uiso   1.00
H29    H     0.21258   0.03475   0.09647   0.00000  Uiso   1.00
H30    H     0.00932   0.18710   0.12565   0.00000  Uiso   1.00
H31    H     0.00283   0.28780   0.26388   0.00000  Uiso   1.00
H32    H     0.00218   0.19360   0.25364   0.00000  Uiso   1.00
H33    H     0.08659   0.32827   0.09201   0.00000  Uiso   1.00
H34    H     0.36061   0.21472   0.08794   0.00000  Uiso   1.00
H35    H     0.39538   0.30645   0.27588   0.00000  Uiso   1.00
H36    H     0.11046   0.17467   0.26344   0.00000  Uiso   1.00
H37    H     0.31239   0.46528   0.20935   0.00000  Uiso   1.00
H38    H     0.28751   0.03465   0.23682   0.00000  Uiso   1.00
H39    H     0.18773   0.46546   0.12385   0.00000  Uiso   1.00
H40    H     0.19372   0.15375   0.10388   0.00000  Uiso   1.00
H41    H     0.30555   0.34630   0.22990   0.00000  Uiso   1.00
H42    H     0.30631   0.15364   0.22939   0.00000  Uiso   1.00
H43    H     0.19425   0.34621   0.10368   0.00000  Uiso   1.00
H44    H     0.48748   0.31707   0.13892   0.00000  Uiso   1.00
N45    N     0.25000   0.12623   0.16667   0.00000  Uiso   1.00
N46    N     0.25000   0.37376   0.16667   0.00000  Uiso   1.00
O47    O     0.18453   0.28974   0.16667   0.00000  Uiso   1.00
O48    O     0.31708   0.37669   0.21923   0.00000  Uiso   1.00
O49    O     0.29636   0.12332   0.24216   0.00000  Uiso   1.00
O50    O     0.18306   0.37694   0.11380   0.00000  Uiso   1.00
O51    O     0.01709   0.31296   0.12404   0.00000  Uiso   1.00
O52    O     0.47873   0.19365   0.11207   0.00000  Uiso   1.00
O53    O     0.47048   0.29484   0.26026   0.00000  Uiso   1.00
O54    O     0.03456   0.18826   0.24966   0.00000  Uiso   1.00
O55    O     0.10922   0.30846   0.10969   0.00000  Uiso   1.00
O56    O     0.39056   0.20141   0.09619   0.00000  Uiso   1.00
O57    O     0.37717   0.29383   0.24738   0.00000  Uiso   1.00
O58    O     0.31547   0.21026   0.16666   0.00000  Uiso   1.00
O59    O     0.12715   0.19253   0.23847   0.00000  Uiso   1.00
O60    O     0.31547   0.28974   0.16666   0.00000  Uiso   1.00
O61    O     0.18453   0.21026   0.16667   0.00000  Uiso   1.00
O62    O     0.25000   0.28973   0.09511   0.00000  Uiso   1.00
O63    O     0.25000   0.21027   0.23822   0.00000  Uiso   1.00
O64    O     0.25000   0.28973   0.23822   0.00000  Uiso   1.00
O65    O     0.25000   0.21027   0.09511   0.00000  Uiso   1.00
O66    O     0.20369   0.12341   0.09113   0.00000  Uiso   1.00
Zn67   Zn    0.25000   0.30307   0.16667   0.00000  Uiso   1.00
Zn68   Zn    0.25000   0.19693   0.16667   0.00000  Uiso   1.00
C69    C     0.66394   0.25000   0.16746   0.00000  Uiso   1.00
C70    C     0.71562   0.44778   0.14255   0.00000  Uiso   1.00
C71    C     0.74989   0.25000   0.07295   0.00000  Uiso   1.00
C72    C     0.75015   0.25000   0.26038   0.00000  Uiso   1.00
C73    C     0.75004   0.02656   0.16665   0.00000  Uiso   1.00
C74    C     0.75004   0.47352   0.16664   0.00000  Uiso   1.00
C75    C     0.75000   0.24999   0.02181   0.00000  Uiso   1.00
C76    C     0.75009   0.24999   0.31152   0.00000  Uiso   1.00
C77    C     0.54309   0.28193   0.15227   0.00000  Uiso   1.00
C78    C     0.95526   0.21988   0.14593   0.00000  Uiso   1.00
C79    C     0.95096   0.27024   0.22056   0.00000  Uiso   1.00
C80    C     0.83598   0.24993   0.16710   0.00000  Uiso   1.00
C81    C     0.55181   0.21963   0.21587   0.00000  Uiso   1.00
C82    C     0.58923   0.28079   0.14508   0.00000  Uiso   1.00
C83    C     0.90932   0.22350   0.13791   0.00000  Uiso   1.00
C84    C     0.90430   0.27171   0.21365   0.00000  Uiso   1.00
C85    C     0.59817   0.22021   0.20969   0.00000  Uiso   1.00
C86    C     0.61609   0.24996   0.17365   0.00000  Uiso   1.00
C87    C     0.88409   0.24944   0.17186   0.00000  Uiso   1.00
C88    C     0.52453   0.25009   0.18638   0.00000  Uiso   1.00
C89    C     0.97621   0.24488   0.18591   0.00000  Uiso   1.00
C90    C     0.72780   0.10154   0.12904   0.00000  Uiso   1.00
C91    C     0.78343   0.39850   0.19187   0.00000  Uiso   1.00
C92    C     0.77223   0.10149   0.20428   0.00000  Uiso   1.00
C93    C     0.71664   0.39861   0.14136   0.00000  Uiso   1.00
C94    C     0.72891   0.05237   0.12789   0.00000  Uiso   1.00
C95    C     0.78447   0.44768   0.19069   0.00000  Uiso   1.00
C96    C     0.77115   0.05232   0.20542   0.00000  Uiso   1.00
H97    H     0.71258   0.03475   0.09647   0.00000  Uiso   1.00
H98    H     0.50932   0.18710   0.12565   0.00000  Uiso   1.00
H99    H     0.50283   0.28780   0.26388   0.00000  Uiso   1.00
H100   H     0.50218   0.19360   0.25364   0.00000  Uiso   1.00
H101   H     0.58659   0.32827   0.09201   0.00000  Uiso   1.00
H102   H     0.86061   0.21472   0.08794   0.00000  Uiso   1.00
H103   H     0.89538   0.30645   0.27588   0.00000  Uiso   1.00
H104   H     0.61046   0.17467   0.26344   0.00000  Uiso   1.00
H105   H     0.81239   0.46528   0.20935   0.00000  Uiso   1.00
H106   H     0.78751   0.03465   0.23682   0.00000  Uiso   1.00
H107   H     0.68773   0.46546   0.12385   0.00000  Uiso   1.00
H108   H     0.69372   0.15375   0.10388   0.00000  Uiso   1.00
H109   H     0.80555   0.34630   0.22990   0.00000  Uiso   1.00
H110   H     0.80631   0.15364   0.22939   0.00000  Uiso   1.00
H111   H     0.69425   0.34621   0.10368   0.00000  Uiso   1.00
H112   H     0.98748   0.31707   0.13892   0.00000  Uiso   1.00
N113   N     0.75000   0.12623   0.16667   0.00000  Uiso   1.00
N114   N     0.75000   0.37376   0.16667   0.00000  Uiso   1.00
O115   O     0.68453   0.28974   0.16667   0.00000  Uiso   1.00
O116   O     0.81708   0.37669   0.21923   0.00000  Uiso   1.00
O117   O     0.79636   0.12332   0.24216   0.00000  Uiso   1.00
O118   O     0.68306   0.37694   0.11380   0.00000  Uiso   1.00
O119   O     0.51709   0.31296   0.12404   0.00000  Uiso   1.00
O120   O     0.97873   0.19365   0.11207   0.00000  Uiso   1.00
O121   O     0.97048   0.29484   0.26026   0.00000  Uiso   1.00
O122   O     0.53456   0.18826   0.24966   0.00000  Uiso   1.00
O123   O     0.60922   0.30846   0.10969   0.00000  Uiso   1.00
O124   O     0.89056   0.20141   0.09619   0.00000  Uiso   1.00
O125   O     0.87717   0.29383   0.24738   0.00000  Uiso   1.00
O126   O     0.81547   0.21026   0.16666   0.00000  Uiso   1.00
O127   O     0.62715   0.19253   0.23847   0.00000  Uiso   1.00
O128   O     0.81547   0.28974   0.16666   0.00000  Uiso   1.00
O129   O     0.68453   0.21026   0.16667   0.00000  Uiso   1.00
O130   O     0.75000   0.28973   0.09511   0.00000  Uiso   1.00
O131   O     0.75000   0.21027   0.23822   0.00000  Uiso   1.00
O132   O     0.75000   0.28973   0.23822   0.00000  Uiso   1.00
O133   O     0.75000   0.21027   0.09511   0.00000  Uiso   1.00
O134   O     0.70369   0.12341   0.09113   0.00000  Uiso   1.00
Zn135  Zn    0.75000   0.30307   0.16667   0.00000  Uiso   1.00
Zn136  Zn    0.75000   0.19693   0.16667   0.00000  Uiso   1.00
C137   C     0.16394   0.75000   0.16746   0.00000  Uiso   1.00
C138   C     0.21562   0.94778   0.14255   0.00000  Uiso   1.00
C139   C     0.24989   0.75000   0.07295   0.00000  Uiso   1.00
C140   C     0.25015   0.75000   0.26038   0.00000  Uiso   1.00
C141   C     0.25004   0.52656   0.16665   0.00000  Uiso   1.00
C142   C     0.25004   0.97352   0.16664   0.00000  Uiso   1.00
C143   C     0.25000   0.74999   0.02181   0.00000  Uiso   1.00
C144   C     0.25009   0.74999   0.31152   0.00000  Uiso   1.00
C145   C     0.04309   0.78193   0.15227   0.00000  Uiso   1.00
C146   C     0.45526   0.71988   0.14593   0.00000  Uiso   1.00
C147   C     0.45096   0.77024   0.22056   0.00000  Uiso   1.00
C148   C     0.33598   0.74993   0.16710   0.00000  Uiso   1.00
C149   C     0.05181   0.71963   0.21587   0.00000  Uiso   1.00
C150   C     0.08923   0.78079   0.14508   0.00000  Uiso   1.00
C151   C     0.40932   0.72350   0.13791   0.00000  Uiso   1.00
C152   C     0.40430   0.77171   0.21365   0.00000  Uiso   1.00
C153   C     0.09817   0.72021   0.20969   0.00000  Uiso   1.00
C154   C     0.11609   0.74996   0.17365   0.00000  Uiso   1.00
C155   C     0.38409   0.74944   0.17186   0.00000  Uiso   1.00
C156   C     0.02453   0.75009   0.18638   0.00000  Uiso   1.00
C157   C     0.47621   0.74488   0.18591   0.00000  Uiso   1.00
C158   C     0.22780   0.60154   0.12904   0.00000  Uiso   1.00
C159   C     0.28343   0.89850   0.19187   0.00000  Uiso   1.00
C160   C     0.27223   0.60149   0.20428   0.00000  Uiso   1.00
C161   C     0.21664   0.89861   0.14136   0.00000  Uiso   1.00
C162   C     0.22891   0.55237   0.12789   0.00000  Uiso   1.00
C163   C     0.28447   0.94768   0.19069   0.00000  Uiso   1.00
C164   C     0.27115   0.55232   0.20542   0.00000  Uiso   1.00
H165   H     0.21258   0.53475   0.09647   0.00000  Uiso   1.00
H166   H     0.00932   0.68710   0.12565   0.00000  Uiso   1.00
H167   H     0.00283   0.78780   0.26388   0.00000  Uiso   1.00
H168   H     0.00218   0.69360   0.25364   0.00000  Uiso   1.00
H169   H     0.08659   0.82827   0.09201   0.00000  Uiso   1.00
H170   H     0.36061   0.71472   0.08794   0.00000  Uiso   1.00
H171   H     0.39538   0.80645   0.27588   0.00000  Uiso   1.00
H172   H     0.11046   0.67467   0.26344   0.00000  Uiso   1.00
H173   H     0.31239   0.96528   0.20935   0.00000  Uiso   1.00
H174   H     0.28751   0.53465   0.23682   0.00000  Uiso   1.00
H175   H     0.18773   0.96546   0.12385   0.00000  Uiso   1.00
H176   H     0.19372   0.65375   0.10388   0.00000  Uiso   1.00
H177   H     0.30555   0.84630   0.22990   0.00000  Uiso   1.00
H178   H     0.30631   0.65364   0.22939   0.00000  Uiso   1.00
H179   H     0.19425   0.84621   0.10368   0.00000  Uiso   1.00
H180   H     0.48748   0.81707   0.13892   0.00000  Uiso   1.00
N181   N     0.25000   0.62623   0.16667   0.00000  Uiso   1.00
N182   N     0.25000   0.87376   0.16667   0.00000  Uiso   1.00
O183   O     0.18453   0.78974   0.16667   0.00000  Uiso   1.00
O184   O     0.31708   0.87669   0.21923   0.00000  Uiso   1.00
O185   O     0.29636   0.62332   0.24216   0.00000  Uiso   1.00
O186   O     0.18306   0.87694   0.11380   0.00000  Uiso   1.00
O187   O     0.01709   0.81296   0.12404   0.00000  Uiso   1.00
O188   O     0.47873   0.69365   0.11207   0.00000  Uiso   1.00
O189   O     0.47048   0.79484   0.26026   0.00000  Uiso   1.00
O190   O     0.03456   0.68826   0.24966   0.00000  Uiso   1.00
O191   O     0.10922   0.80846   0.10969   0.00000  Uiso   1.00
O192   O     0.39056   0.70141   0.09619   0.00000  Uiso   1.00
O193   O     0.37717   0.79383   0.24738   0.00000  Uiso   1.00
O194   O     0.31547   0.71026   0.16666   0.00000  Uiso   1.00
O195   O     0.12715   0.69253   0.23847   0.00000  Uiso   1.00
O196   O     0.31547   0.78974   0.16666   0.00000  Uiso   1.00
O197   O     0.18453   0.71026   0.16667   0.00000  Uiso   1.00
O198   O     0.25000   0.78973   0.09511   0.00000  Uiso   1.00
O199   O     0.25000   0.71027   0.23822   0.00000  Uiso   1.00
O200   O     0.25000   0.78973   0.23822   0.00000  Uiso   1.00
O201   O     0.25000   0.71027   0.09511   0.00000  Uiso   1.00
O202   O     0.20369   0.62341   0.09113   0.00000  Uiso   1.00
Zn203  Zn    0.25000   0.80307   0.16667   0.00000  Uiso   1.00
Zn204  Zn    0.25000   0.69693   0.16667   0.00000  Uiso   1.00
C205   C     0.66394   0.75000   0.16746   0.00000  Uiso   1.00
C206   C     0.71562   0.94778   0.14255   0.00000  Uiso   1.00
C207   C     0.74989   0.75000   0.07295   0.00000  Uiso   1.00
C208   C     0.75015   0.75000   0.26038   0.00000  Uiso   1.00
C209   C     0.75004   0.52656   0.16665   0.00000  Uiso   1.00
C210   C     0.75004   0.97352   0.16664   0.00000  Uiso   1.00
C211   C     0.75000   0.74999   0.02181   0.00000  Uiso   1.00
C212   C     0.75009   0.74999   0.31152   0.00000  Uiso   1.00
C213   C     0.54309   0.78193   0.15227   0.00000  Uiso   1.00
C214   C     0.95526   0.71988   0.14593   0.00000  Uiso   1.00
C215   C     0.95096   0.77024   0.22056   0.00000  Uiso   1.00
C216   C     0.83598   0.74993   0.16710   0.00000  Uiso   1.00
C217   C     0.55181   0.71963   0.21587   0.00000  Uiso   1.00
C218   C     0.58923   0.78079   0.14508   0.00000  Uiso   1.00
C219   C     0.90932   0.72350   0.13791   0.00000  Uiso   1.00
C220   C     0.90430   0.77171   0.21365   0.00000  Uiso   1.00
C221   C     0.59817   0.72021   0.20969   0.00000  Uiso   1.00
C222   C     0.61609   0.74996   0.17365   0.00000  Uiso   1.00
C223   C     0.88409   0.74944   0.17186   0.00000  Uiso   1.00
C224   C     0.52453   0.75009   0.18638   0.00000  Uiso   1.00
C225   C     0.97621   0.74488   0.18591   0.00000  Uiso   1.00
C226   C     0.72780   0.60154   0.12904   0.00000  Uiso   1.00
C227   C     0.78343   0.89850   0.19187   0.00000  Uiso   1.00
C228   C     0.77223   0.60149   0.20428   0.00000  Uiso   1.00
C229   C     0.71664   0.89861   0.14136   0.00000  Uiso   1.00
C230   C     0.72891   0.55237   0.12789   0.00000  Uiso   1.00
C231   C     0.78447   0.94768   0.19069   0.00000  Uiso   1.00
C232   C     0.77115   0.55232   0.20542   0.00000  Uiso   1.00
H233   H     0.71258   0.53475   0.09647   0.00000  Uiso   1.00
H234   H     0.50932   0.68710   0.12565   0.00000  Uiso   1.00
H235   H     0.50283   0.78780   0.26388   0.00000  Uiso   1.00
H236   H     0.50218   0.69360   0.25364   0.00000  Uiso   1.00
H237   H     0.58659   0.82827   0.09201   0.00000  Uiso   1.00
H238   H     0.86061   0.71472   0.08794   0.00000  Uiso   1.00
H239   H     0.89538   0.80645   0.27588   0.00000  Uiso   1.00
H240   H     0.61046   0.67467   0.26344   0.00000  Uiso   1.00
H241   H     0.81239   0.96528   0.20935   0.00000  Uiso   1.00
H242   H     0.78751   0.53465   0.23682   0.00000  Uiso   1.00
H243   H     0.68773   0.96546   0.12385   0.00000  Uiso   1.00
H244   H     0.69372   0.65375   0.10388   0.00000  Uiso   1.00
H245   H     0.80555   0.84630   0.22990   0.00000  Uiso   1.00
H246   H     0.80631   0.65364   0.22939   0.00000  Uiso   1.00
H247   H     0.69425   0.84621   0.10368   0.00000  Uiso   1.00
H248   H     0.98748   0.81707   0.13892   0.00000  Uiso   1.00
N249   N     0.75000   0.62623   0.16667   0.00000  Uiso   1.00
N250   N     0.75000   0.87376   0.16667   0.00000  Uiso   1.00
O251   O     0.68453   0.78974   0.16667   0.00000  Uiso   1.00
O252   O     0.81708   0.87669   0.21923   0.00000  Uiso   1.00
O253   O     0.79636   0.62332   0.24216   0.00000  Uiso   1.00
O254   O     0.68306   0.87694   0.11380   0.00000  Uiso   1.00
O255   O     0.51709   0.81296   0.12404   0.00000  Uiso   1.00
O256   O     0.97873   0.69365   0.11207   0.00000  Uiso   1.00
O257   O     0.97048   0.79484   0.26026   0.00000  Uiso   1.00
O258   O     0.53456   0.68826   0.24966   0.00000  Uiso   1.00
O259   O     0.60922   0.80846   0.10969   0.00000  Uiso   1.00
O260   O     0.89056   0.70141   0.09619   0.00000  Uiso   1.00
O261   O     0.87717   0.79383   0.24738   0.00000  Uiso   1.00
O262   O     0.81547   0.71026   0.16666   0.00000  Uiso   1.00
O263   O     0.62715   0.69253   0.23847   0.00000  Uiso   1.00
O264   O     0.81547   0.78974   0.16666   0.00000  Uiso   1.00
O265   O     0.68453   0.71026   0.16667   0.00000  Uiso   1.00
O266   O     0.75000   0.78973   0.09511   0.00000  Uiso   1.00
O267   O     0.75000   0.71027   0.23822   0.00000  Uiso   1.00
O268   O     0.75000   0.78973   0.23822   0.00000  Uiso   1.00
O269   O     0.75000   0.71027   0.09511   0.00000  Uiso   1.00
O270   O     0.70369   0.62341   0.09113   0.00000  Uiso   1.00
Zn271  Zn    0.75000   0.80307   0.16667   0.00000  Uiso   1.00
Zn272  Zn    0.75000   0.69693   0.16667   0.00000  Uiso   1.00
C273   C     0.16394   0.25000   0.50079   0.00000  Uiso   1.00
C274   C     0.21562   0.44778   0.47588   0.00000  Uiso   1.00
C275   C     0.24989   0.25000   0.40629   0.00000  Uiso   1.00
C276   C     0.25015   0.25000   0.59371   0.00000  Uiso   1.00
C277   C     0.25004   0.02656   0.49998   0.00000  Uiso   1.00
C278   C     0.25004   0.47352   0.49997   0.00000  Uiso   1.00
C279   C     0.25000   0.24999   0.35514   0.00000  Uiso   1.00
C280   C     0.25009   0.24999   0.64486   0.00000  Uiso   1.00
C281   C     0.04309   0.28193   0.48561   0.00000  Uiso   1.00
C282   C     0.45526   0.21988   0.47927   0.00000  Uiso   1.00
C283   C     0.45096   0.27024   0.55389   0.00000  Uiso   1.00
C284   C     0.33598   0.24993   0.50043   0.00000  Uiso   1.00
C285   C     0.05181   0.21963   0.54920   0.00000  Uiso   1.00
C286   C     0.08923   0.28079   0.47841   0.00000  Uiso   1.00
C287   C     0.40932   0.22350   0.47124   0.00000  Uiso   1.00
C288   C     0.40430   0.27171   0.54698   0.00000  Uiso   1.00
C289   C     0.09817   0.22021   0.54302   0.00000  Uiso   1.00
C290   C     0.11609   0.24996   0.50699   0.00000  Uiso   1.00
C291   C     0.38409   0.24944   0.50519   0.00000  Uiso   1.00
C292   C     0.02453   0.25009   0.51971   0.00000  Uiso   1.00
C293   C     0.47621   0.24488   0.51924   0.00000  Uiso   1.00
C294   C     0.22780   0.10154   0.46237   0.00000  Uiso   1.00
C295   C     0.28343   0.39850   0.52520   0.00000  Uiso   1.00
C296   C     0.27223   0.10149   0.53761   0.00000  Uiso   1.00
C297   C     0.21664   0.39861   0.47469   0.00000  Uiso   1.00
C298   C     0.22891   0.05237   0.46122   0.00000  Uiso   1.00
C299   C     0.28447   0.44768   0.52403   0.00000  Uiso   1.00
C300   C     0.27115   0.05232   0.53875   0.00000  Uiso   1.00
H301   H     0.21258   0.03475   0.42980   0.00000  Uiso   1.00
H302   H     0.00932   0.18710   0.45898   0.00000  Uiso   1.00
H303   H     0.00283   0.28780   0.59721   0.00000  Uiso   1.00
H304   H     0.00218   0.19360   0.58697   0.00000  Uiso   1.00
H305   H     0.08659   0.32827   0.42534   0.00000  Uiso   1.00
H306   H     0.36061   0.21472   0.42127   0.00000  Uiso   1.00
H307   H     0.39538   0.30645   0.60921   0.00000  Uiso   1.00
H308   H     0.11046   0.17467   0.59678   0.00000  Uiso   1.00
H309   H     0.31239   0.46528   0.54268   0.00000  Uiso   1.00
H310   H     0.28751   0.03465   0.57015   0.00000  Uiso   1.00
H311   H     0.18773   0.46546   0.45719   0.00000  Uiso   1.00
H312   H     0.19372   0.15375   0.43722   0.00000  Uiso   1.00
H313   H     0.30555   0.34630   0.56323   0.00000  Uiso   1.00
H314   H     0.30631   0.15364   0.56273   0.00000  Uiso   1.00
H315   H     0.19425   0.34621   0.43701   0.00000  Uiso   1.00
H316   H     0.48748   0.31707   0.47225   0.00000  Uiso   1.00
N317   N     0.25000   0.12623   0.50000   0.00000  Uiso   1.00
N318   N     0.25000   0.37376   0.50000   0.00000  Uiso   1.00
O319   O     0.18453   0.28974   0.50000   0.00000  Uiso   1.00
O320   O     0.31708   0.37669   0.55256   0.00000  Uiso   1.00
O321   O     0.29636   0.12332   0.57549   0.00000  Uiso   1.00
O322   O     0.18306   0.37694   0.44713   0.00000  Uiso   1.00
O323   O     0.01709   0.31296   0.45737   0.00000  Uiso   1.00
O324   O     0.47873   0.19365   0.44541   0.00000  Uiso   1.00
O325   O     0.47048   0.29484   0.59360   0.00000  Uiso   1.00
O326   O     0.03456   0.18826   0.58299   0.00000  Uiso   1.00
O327   O     0.10922   0.30846   0.44302   0.00000  Uiso   1.00
O328   O     0.39056   0.20141   0.42952   0.00000  Uiso   1.00
O329   O     0.37717   0.29383   0.58071   0.00000  Uiso   1.00
O330   O     0.31547   0.21026   0.50000   0.00000  Uiso   1.00
O331   O     0.12715   0.19253   0.57181   0.00000  Uiso   1.00
O332   O     0.31547   0.28974   0.50000   0.00000  Uiso   1.00
O333   O     0.18453   0.21026   0.50000   0.00000  Uiso   1.00
O334   O     0.25000   0.28973   0.42845   0.00000  Uiso   1.00
O335   O     0.25000   0.21027   0.57155   0.00000  Uiso   1.00
O336   O     0.25000   0.28973   0.57155   0.00000  Uiso   1.00
O337   O     0.25000   0.21027   0.42845   0.00000  Uiso   1.00
O338   O     0.20369   0.12341   0.42447   0.00000  Uiso   1.00
Zn339  Zn    0.25000   0.30307   0.50000   0.00000  Uiso   1.00
Zn340  Zn    0.25000   0.19693   0.50000   0.00000  Uiso   1.00
C341   C     0.66394   0.25000   0.50079   0.00000  Uiso   1.00
C342   C     0.71562   0.44778   0.47588   0.00000  Uiso   1.00
C343   C     0.74989   0.25000   0.40629   0.00000  Uiso   1.00
C344   C     0.75015   0.25000   0.59371   0.00000  Uiso   1.00
C345   C     0.75004   0.02656   0.49998   0.00000  Uiso   1.00
C346   C     0.75004   0.47352   0.49997   0.00000  Uiso   1.00
C347   C     0.75000   0.24999   0.35514   0.00000  Uiso   1.00
C348   C     0.75009   0.24999   0.64486   0.00000  Uiso   1.00
C349   C     0.54309   0.28193   0.48561   0.00000  Uiso   1.00
C350   C     0.95526   0.21988   0.47927   0.00000  Uiso   1.00
C351   C     0.95096   0.27024   0.55389   0.00000  Uiso   1.00
C352   C     0.83598   0.24993   0.50043   0.00000  Uiso   1.00
C353   C     0.55181   0.21963   0.54920   0.00000  Uiso   1.00
C354   C     0.58923   0.28079   0.47841   0.00000  Uiso   1.00
C355   C     0.90932   0.22350   0.47124   0.00000  Uiso   1.00
C356   C     0.90430   0.27171   0.54698   0.00000  Uiso   1.00
C357   C     0.59817   0.22021   0.54302   0.00000  Uiso   1.00
C358   C     0.61609   0.24996   0.50699   0.00000  Uiso   1.00
C359   C     0.88409   0.24944   0.50519   0.00000  Uiso   1.00
C360   C     0.52453   0.25009   0.51971   0.00000  Uiso   1.00
C361   C     0.97621   0.24488   0.51924   0.00000  Uiso   1.00
C362   C     0.72780   0.10154   0.46237   0.00000  Uiso   1.00
C363   C     0.78343   0.39850   0.52520   0.00000  Uiso   1.00
C364   C     0.77223   0.10149   0.53761   0.00000  Uiso   1.00
C365   C     0.71664   0.39861   0.47469   0.00000  Uiso   1.00
C366   C     0.72891   0.05237   0.46122   0.00000  Uiso   1.00
C367   C     0.78447   0.44768   0.52403   0.00000  Uiso   1.00
C368   C     0.77115   0.05232   0.53875   0.00000  Uiso   1.00
H369   H     0.71258   0.03475   0.42980   0.00000  Uiso   1.00
H370   H     0.50932   0.18710   0.45898   0.00000  Uiso   1.00
H371   H     0.50283   0.28780   0.59721   0.00000  Uiso   1.00
H372   H     0.50218   0.19360   0.58697   0.00000  Uiso   1.00
H373   H     0.58659   0.32827   0.42534   0.00000  Uiso   1.00
H374   H     0.86061   0.21472   0.42127   0.00000  Uiso   1.00
H375   H     0.89538   0.30645   0.60921   0.00000  Uiso   1.00
H376   H     0.61046   0.17467   0.59678   0.00000  Uiso   1.00
H377   H     0.81239   0.46528   0.54268   0.00000  Uiso   1.00
H378   H     0.78751   0.03465   0.57015   0.00000  Uiso   1.00
H379   H     0.68773   0.46546   0.45719   0.00000  Uiso   1.00
H380   H     0.69372   0.15375   0.43722   0.00000  Uiso   1.00
H381   H     0.80555   0.34630   0.56323   0.00000  Uiso   1.00
H382   H     0.80631   0.15364   0.56273   0.00000  Uiso   1.00
H383   H     0.69425   0.34621   0.43701   0.00000  Uiso   1.00
H384   H     0.98748   0.31707   0.47225   0.00000  Uiso   1.00
N385   N     0.75000   0.12623   0.50000   0.00000  Uiso   1.00
N386   N     0.75000   0.37376   0.50000   0.00000  Uiso   1.00
O387   O     0.68453   0.28974   0.50000   0.00000  Uiso   1.00
O388   O     0.81708   0.37669   0.55256   0.00000  Uiso   1.00
O389   O     0.79636   0.12332   0.57549   0.00000  Uiso   1.00
O390   O     0.68306   0.37694   0.44713   0.00000  Uiso   1.00
O391   O     0.51709   0.31296   0.45737   0.00000  Uiso   1.00
O392   O     0.97873   0.19365   0.44541   0.00000  Uiso   1.00
O393   O     0.97048   0.29484   0.59360   0.00000  Uiso   1.00
O394   O     0.53456   0.18826   0.58299   0.00000  Uiso   1.00
O395   O     0.60922   0.30846   0.44302   0.00000  Uiso   1.00
O396   O     0.89056   0.20141   0.42952   0.00000  Uiso   1.00
O397   O     0.87717   0.29383   0.58071   0.00000  Uiso   1.00
O398   O     0.81547   0.21026   0.50000   0.00000  Uiso   1.00
O399   O     0.62715   0.19253   0.57181   0.00000  Uiso   1.00
O400   O     0.81547   0.28974   0.50000   0.00000  Uiso   1.00
O401   O     0.68453   0.21026   0.50000   0.00000  Uiso   1.00
O402   O     0.75000   0.28973   0.42845   0.00000  Uiso   1.00
O403   O     0.75000   0.21027   0.57155   0.00000  Uiso   1.00
O404   O     0.75000   0.28973   0.57155   0.00000  Uiso   1.00
O405   O     0.75000   0.21027   0.42845   0.00000  Uiso   1.00
O406   O     0.70369   0.12341   0.42447   0.00000  Uiso   1.00
Zn407  Zn    0.75000   0.30307   0.50000   0.00000  Uiso   1.00
Zn408  Zn    0.75000   0.19693   0.50000   0.00000  Uiso   1.00
C409   C     0.16394   0.75000   0.50079   0.00000  Uiso   1.00
C410   C     0.21562   0.94778   0.47588   0.00000  Uiso   1.00
C411   C     0.24989   0.75000   0.40629   0.00000  Uiso   1.00
C412   C     0.25015   0.75000   0.59371   0.00000  Uiso   1.00
C413   C     0.25004   0.52656   0.49998   0.00000  Uiso   1.00
C414   C     0.25004   0.97352   0.49997   0.00000  Uiso   1.00
C415   C     0.25000   0.74999   0.35514   0.00000  Uiso   1.00
C416   C     0.25009   0.74999   0.64486   0.00000  Uiso   1.00
C417   C     0.04309   0.78193   0.48561   0.00000  Uiso   1.00
C418   C     0.45526   0.71988   0.47927   0.00000  Uiso   1.00
C419   C     0.45096   0.77024   0.55389   0.00000  Uiso   1.00
C420   C     0.33598   0.74993   0.50043   0.00000  Uiso   1.00
C421   C     0.05181   0.71963   0.54920   0.00000  Uiso   1.00
C422   C     0.08923   0.78079   0.47841   0.00000  Uiso   1.00
C423   C     0.40932   0.72350   0.47124   0.00000  Uiso   1.00
C424   C     0.40430   0.77171   0.54698   0.00000  Uiso   1.00
C425   C     0.09817   0.72021   0.54302   0.00000  Uiso   1.00
C426   C     0.11609   0.74996   0.50699   0.00000  Uiso   1.00
C427   C     0.38409   0.74944   0.50519   0.00000  Uiso   1.00
C428   C     0.02453   0.75009   0.51971   0.00000  Uiso   1.00
C429   C     0.47621   0.74488   0.51924   0.00000  Uiso   1.00
C430   C     0.22780   0.60154   0.46237   0.00000  Uiso   1.00
C431   C     0.28343   0.89850   0.52520   0.00000  Uiso   1.00
C432   C     0.27223   0.60149   0.53761   0.00000  Uiso   1.00
C433   C     0.21664   0.89861   0.47469   0.00000  Uiso   1.00
C434   C     0.22891   0.55237   0.46122   0.00000  Uiso   1.00
C435   C     0.28447   0.94768   0.52403   0.00000  Uiso   1.00
C436   C     0.27115   0.55232   0.53875   0.00000  Uiso   1.00
H437   H     0.21258   0.53475   0.42980   0.00000  Uiso   1.00
H438   H     0.00932   0.68710   0.45898   0.00000  Uiso   1.00
H439   H     0.00283   0.78780   0.59721   0.00000  Uiso   1.00
H440   H     0.00218   0.69360   0.58697   0.00000  Uiso   1.00
H441   H     0.08659   0.82827   0.42534   0.00000  Uiso   1.00
H442   H     0.36061   0.71472   0.42127   0.00000  Uiso   1.00
H443   H     0.39538   0.80645   0.60921   0.00000  Uiso   1.00
H444   H     0.11046   0.67467   0.59678   0.00000  Uiso   1.00
H445   H     0.31239   0.96528   0.54268   0.00000  Uiso   1.00
H446   H     0.28751   0.53465   0.57015   0.00000  Uiso   1.00
H447   H     0.18773   0.96546   0.45719   0.00000  Uiso   1.00
H448   H     0.19372   0.65375   0.43722   0.00000  Uiso   1.00
H449   H     0.30555   0.84630   0.56323   0.00000  Uiso   1.00
H450   H     0.30631   0.65364   0.56273   0.00000  Uiso   1.00
H451   H     0.19425   0.84621   0.43701   0.00000  Uiso   1.00
H452   H     0.48748   0.81707   0.47225   0.00000  Uiso   1.00
N453   N     0.25000   0.62623   0.50000   0.00000  Uiso   1.00
N454   N     0.25000   0.87376   0.50000   0.00000  Uiso   1.00
O455   O     0.18453   0.78974   0.50000   0.00000  Uiso   1.00
O456   O     0.31708   0.87669   0.55256   0.00000  Uiso   1.00
O457   O     0.29636   0.62332   0.57549   0.00000  Uiso   1.00
O458   O     0.18306   0.87694   0.44713   0.00000  Uiso   1.00
O459   O     0.01709   0.81296   0.45737   0.00000  Uiso   1.00
O460   O     0.47873   0.69365   0.44541   0.00000  Uiso   1.00
O461   O     0.47048   0.79484   0.59360   0.00000  Uiso   1.00
O462   O     0.03456   0.68826   0.58299   0.00000  Uiso   1.00
O463   O     0.10922   0.80846   0.44302   0.00000  Uiso   1.00
O464   O     0.39056   0.70141   0.42952   0.00000  Uiso   1.00
O465   O     0.37717   0.79383   0.58071   0.00000  Uiso   1.00
O466   O     0.31547   0.71026   0.50000   0.00000  Uiso   1.00
O467   O     0.12715   0.69253   0.57181   0.00000  Uiso   1.00
O468   O     0.31547   0.78974   0.50000   0.00000  Uiso   1.00
O469   O     0.18453   0.71026   0.50000   0.00000  Uiso   1.00
O470   O     0.25000   0.78973   0.42845   0.00000  Uiso   1.00
O471   O     0.25000   0.71027   0.57155   0.00000  Uiso   1.00
O472   O     0.25000   0.78973   0.57155   0.00000  Uiso   1.00
O473   O     0.25000   0.71027   0.42845   0.00000  Uiso   1.00
O474   O     0.20369   0.62341   0.42447   0.00000  Uiso   1.00
Zn475  Zn    0.25000   0.80307   0.50000   0.00000  Uiso   1.00
Zn476  Zn    0.25000   0.69693   0.50000   0.00000  Uiso   1.00
C477   C     0.66394   0.75000   0.50079   0.00000  Uiso   1.00
C478   C     0.71562   0.94778   0.47588   0.00000  Uiso   1.00
C479   C     0.74989   0.75000   0.40629   0.00000  Uiso   1.00
C480   C     0.75015   0.75000   0.59371   0.00000  Uiso   1.00
C481   C     0.75004   0.52656   0.49998   0.00000  Uiso   1.00
C482   C     0.75004   0.97352   0.49997   0.00000  Uiso   1.00
C483   C     0.75000   0.74999   0.35514   0.00000  Uiso   1.00
C484   C     0.75009   0.74999   0.64486   0.00000  Uiso   1.00
C485   C     0.54309   0.78193   0.48561   0.00000  Uiso   1.00
C486   C     0.95526   0.71988   0.47927   0.00000  Uiso   1.00
C487   C     0.95096   0.77024   0.55389   0.00000  Uiso   1.00
C488   C     0.83598   0.74993   0.50043   0.00000  Uiso   1.00
C489   C     0.55181   0.71963   0.54920   0.00000  Uiso   1.00
C490   C     0.58923   0.78079   0.47841   0.00000  Uiso   1.00
C491   C     0.90932   0.72350   0.47124   0.00000  Uiso   1.00
C492   C     0.90430   0.77171   0.54698   0.00000  Uiso   1.00
C493   C     0.59817   0.72021   0.54302   0.00000  Uiso   1.00
C494   C     0.61609   0.74996   0.50699   0.00000  Uiso   1.00
C495   C     0.88409   0.74944   0.50519   0.00000  Uiso   1.00
C496   C     0.52453   0.75009   0.51971   0.00000  Uiso   1.00
C497   C     0.97621   0.74488   0.51924   0.00000  Uiso   1.00
C498   C     0.72780   0.60154   0.46237   0.00000  Uiso   1.00
C499   C     0.78343   0.89850   0.52520   0.00000  Uiso   1.00
C500   C     0.77223   0.60149   0.53761   0.00000  Uiso   1.00
C501   C     0.71664   0.89861   0.47469   0.00000  Uiso   1.00
C502   C     0.72891   0.55237   0.46122   0.00000  Uiso   1.00
C503   C     0.78447   0.94768   0.52403   0.00000  Uiso   1.00
C504   C     0.77115   0.55232   0.53875   0.00000  Uiso   1.00
H505   H     0.71258   0.53475   0.42980   0.00000  Uiso   1.00
H506   H     0.50932   0.68710   0.45898   0.00000  Uiso   1.00
H507   H     0.50283   0.78780   0.59721   0.00000  Uiso   1.00
H508   H     0.50218   0.69360   0.58697   0.00000  Uiso   1.00
H509   H     0.58659   0.82827   0.42534   0.00000  Uiso   1.00
H510   H     0.86061   0.71472   0.42127   0.00000  Uiso   1.00
H511   H     0.89538   0.80645   0.60921   0.00000  Uiso   1.00
H512   H     0.61046   0.67467   0.59678   0.00000  Uiso   1.00
H513   H     0.81239   0.96528   0.54268   0.00000  Uiso   1.00
H514   H     0.78751   0.53465   0.57015   0.00000  Uiso   1.00
H515   H     0.68773   0.96546   0.45719   0.00000  Uiso   1.00
H516   H     0.69372   0.65375   0.43722   0.00000  Uiso   1.00
H517   H     0.80555   0.84630   0.56323   0.00000  Uiso   1.00
H518   H     0.80631   0.65364   0.56273   0.00000  Uiso   1.00
H519   H     0.69425   0.84621   0.43701   0.00000  Uiso   1.00
H520   H     0.98748   0.81707   0.47225   0.00000  Uiso   1.00
N521   N     0.75000   0.62623   0.50000   0.00000  Uiso   1.00
N522   N     0.75000   0.87376   0.50000   0.00000  Uiso   1.00
O523   O     0.68453   0.78974   0.50000   0.00000  Uiso   1.00
O524   O     0.81708   0.87669   0.55256   0.00000  Uiso   1.00
O525   O     0.79636   0.62332   0.57549   0.00000  Uiso   1.00
O526   O     0.68306   0.87694   0.44713   0.00000  Uiso   1.00
O527   O     0.51709   0.81296   0.45737   0.00000  Uiso   1.00
O528   O     0.97873   0.69365   0.44541   0.00000  Uiso   1.00
O529   O     0.97048   0.79484   0.59360   0.00000  Uiso   1.00
O530   O     0.53456   0.68826   0.58299   0.00000  Uiso   1.00
O531   O     0.60922   0.80846   0.44302   0.00000  Uiso   1.00
O532   O     0.89056   0.70141   0.42952   0.00000  Uiso   1.00
O533   O     0.87717   0.79383   0.58071   0.00000  Uiso   1.00
O534   O     0.81547   0.71026   0.50000   0.00000  Uiso   1.00
O535   O     0.62715   0.69253   0.57181   0.00000  Uiso   1.00
O536   O     0.81547   0.78974   0.50000   0.00000  Uiso   1.00
O537   O     0.68453   0.71026   0.50000   0.00000  Uiso   1.00
O538   O     0.75000   0.78973   0.42845   0.00000  Uiso   1.00
O539   O     0.75000   0.71027   0.57155   0.00000  Uiso   1.00
O540   O     0.75000   0.78973   0.57155   0.00000  Uiso   1.00
O541   O     0.75000   0.71027   0.42845   0.00000  Uiso   1.00
O542   O     0.70369   0.62341   0.42447   0.00000  Uiso   1.00
Zn543  Zn    0.75000   0.80307   0.50000   0.00000  Uiso   1.00
Zn544  Zn    0.75000   0.69693   0.50000   0.00000  Uiso   1.00
C545   C     0.16394   0.25000   0.83412   0.00000  Uiso   1.00
C546   C     0.21562   0.44778   0.80921   0.00000  Uiso   1.00
C547   C     0.24989   0.25000   0.73962   0.00000  Uiso   1.00
C548   C     0.25015   0.25000   0.92705   0.00000  Uiso   1.00
C549   C     0.25004   0.02656   0.83332   0.00000  Uiso   1.00
C550   C     0.25004   0.47352   0.83331   0.00000  Uiso   1.00
C551   C     0.25000   0.24999   0.68848   0.00000  Uiso   1.00
C552   C     0.25009   0.24999   0.97819   0.00000  Uiso   1.00
C553   C     0.04309   0.28193   0.81894   0.00000  Uiso   1.00
C554   C     0.45526   0.21988   0.81260   0.00000  Uiso   1.00
C555   C     0.45096   0.27024   0.88723   0.00000  Uiso   1.00
C556   C     0.33598   0.24993   0.83376   0.00000  Uiso   1.00
C557   C     0.05181   0.21963   0.88253   0.00000  Uiso   1.00
C558   C     0.08923   0.28079   0.81174   0.00000  Uiso   1.00
C559   C     0.40932   0.22350   0.80458   0.00000  Uiso   1.00
C560   C     0.40430   0.27171   0.88031   0.00000  Uiso   1.00
C561   C     0.09817   0.22021   0.87636   0.00000  Uiso   1.00
C562   C     0.11609   0.24996   0.84032   0.00000  Uiso   1.00
C563   C     0.38409   0.24944   0.83852   0.00000  Uiso   1.00
C564   C     0.02453   0.25009   0.85304   0.00000  Uiso   1.00
C565   C     0.47621   0.24488   0.85258   0.00000  Uiso   1.00
C566   C     0.22780   0.10154   0.79571   0.00000  Uiso   1.00
C567   C     0.28343   0.39850   0.85854   0.00000  Uiso   1.00
C568   C     0.27223   0.10149   0.87094   0.00000  Uiso   1.00
C569   C     0.21664   0.39861   0.80803   0.00000  Uiso   1.00
C570   C     0.22891   0.05237   0.79455   0.00000  Uiso   1.00
C571   C     0.28447   0.44768   0.85736   0.00000  Uiso   1.00
C572   C     0.27115   0.05232   0.87209   0.00000  Uiso   1.00
H573   H     0.21258   0.03475   0.76314   0.00000  Uiso   1.00
H574   H     0.00932   0.18710   0.79232   0.00000  Uiso   1.00
H575   H     0.00283   0.28780   0.93055   0.00000  Uiso   1.00
H576   H     0.00218   0.19360   0.92031   0.00000  Uiso   1.00
H577   H     0.08659   0.32827   0.75867   0.00000  Uiso   1.00
H578   H     0.36061   0.21472   0.75460   0.00000  Uiso   1.00
H579   H     0.39538   0.30645   0.94255   0.00000  Uiso   1.00
H580   H     0.11046   0.17467   0.93011   0.00000  Uiso   1.00
H581   H     0.31239   0.46528   0.87602   0.00000  Uiso   1.00
H582   H     0.28751   0.03465   0.90348   0.00000  Uiso   1.00
H583   H     0.18773   0.46546   0.79052   0.00000  Uiso   1.00
H584   H     0.19372   0.15375   0.77055   0.00000  Uiso   1.00
H585   H     0.30555   0.34630   0.89657   0.00000  Uiso   1.00
H586   H     0.30631   0.15364   0.89606   0.00000  Uiso   1.00
H587   H     0.19425   0.34621   0.77034   0.00000  Uiso   1.00
H588   H     0.48748   0.31707   0.80559   0.00000  Uiso   1.00
N589   N     0.25000   0.12623   0.83333   0.00000  Uiso   1.00
N590   N     0.25000   0.37376   0.83333   0.00000  Uiso   1.00
O591   O     0.18453   0.28974   0.83334   0.00000  Uiso   1.00
O592   O     0.31708   0.37669   0.88590   0.00000  Uiso   1.00
O593   O     0.29636   0.12332   0.90883   0.00000  Uiso   1.00
O594   O     0.18306   0.37694   0.78047   0.00000  Uiso   1.00
O595   O     0.01709   0.31296   0.79070   0.00000  Uiso   1.00
O596   O     0.47873   0.19365   0.77874   0.00000  Uiso   1.00
O597   O     0.47048   0.29484   0.92693   0.00000  Uiso   1.00
O598   O     0.03456   0.18826   0.91633   0.00000  Uiso   1.00
O599   O     0.10922   0.30846   0.77635   0.00000  Uiso   1.00
O600   O     0.39056   0.20141   0.76285   0.00000  Uiso   1.00
O601   O     0.37717   0.29383   0.91405   0.00000  Uiso   1.00
O602   O     0.31547   0.21026   0.83333   0.00000  Uiso   1.00
O603   O     0.12715   0.19253   0.90514   0.00000  Uiso   1.00
O604   O     0.31547   0.28974   0.83333   0.00000  Uiso   1.00
O605   O     0.18453   0.21026   0.83334   0.00000  Uiso   1.00
O606   O     0.25000   0.28973   0.76178   0.00000  Uiso   1.00
O607   O     0.25000   0.21027   0.90489   0.00000  Uiso   1.00
O608   O     0.25000   0.28973   0.90489   0.00000  Uiso   1.00
O609   O     0.25000   0.21027   0.76178   0.00000  Uiso   1.00
O610   O     0.20369   0.12341   0.75780   0.00000  Uiso   1.00
Zn611  Zn    0.25000   0.30307   0.83333   0.00000  Uiso   1.00
Zn612  Zn    0.25000   0.19693   0.83333   0.00000  Uiso   1.00
C613   C     0.66394   0.25000   0.83412   0.00000  Uiso   1.00
C614   C     0.71562   0.44778   0.80921   0.00000  Uiso   1.00
C615   C     0.74989   0.25000   0.73962   0.00000  Uiso   1.00
C616   C     0.75015   0.25000   0.92705   0.00000  Uiso   1.00
C617   C     0.75004   0.02656   0.83332   0.00000  Uiso   1.00
C618   C     0.75004   0.47352   0.83331   0.00000  Uiso   1.00
C619   C     0.75000   0.24999   0.68848   0.00000  Uiso   1.00
C620   C     0.75009   0.24999   0.97819   0.00000  Uiso   1.00
C621   C     0.54309   0.28193   0.81894   0.00000  Uiso   1.00
C622   C     0.95526   0.21988   0.81260   0.00000  Uiso   1.00
C623   C     0.95096   0.27024   0.88723   0.00000  Uiso   1.00
C624   C     0.83598   0.24993   0.83376   0.00000  Uiso   1.00
C625   C     0.55181   0.21963   0.88253   0.00000  Uiso   1.00
C626   C     0.58923   0.28079   0.81174   0.00000  Uiso   1.00
C627   C     0.90932   0.22350   0.80458   0.00000  Uiso   1.00
C628   C     0.90430   0.27171   0.88031   0.00000  Uiso   1.00
C629   C     0.59817   0.22021   0.87636   0.00000  Uiso   1.00
C630   C     0.61609   0.24996   0.84032   0.00000  Uiso   1.00
C631   C     0.88409   0.24944   0.83852   0.00000  Uiso   1.00
C632   C     0.52453   0.25009   0.85304   0.00000  Uiso   1.00
C633   C     0.97621   0.24488   0.85258   0.00000  Uiso   1.00
C634   C     0.72780   0.10154   0.79571   0.00000  Uiso   1.00
C635   C     0.78343   0.39850   0.85854   0.00000  Uiso   1.00
C636   C     0.77223   0.10149   0.87094   0.00000  Uiso   1.00
C637   C     0.71664   0.39861   0.80803   0.00000  Uiso   1.00
C638   C     0.72891   0.05237   0.79455   0.00000  Uiso   1.00
C639   C     0.78447   0.44768   0.85736   0.00000  Uiso   1.00
C640   C     0.77115   0.05232   0.87209   0.00000  Uiso   1.00
H641   H     0.71258   0.03475   0.76314   0.00000  Uiso   1.00
H642   H     0.50932   0.18710   0.79232   0.00000  Uiso   1.00
H643   H     0.50283   0.28780   0.93055   0.00000  Uiso   1.00
H644   H     0.50218   0.19360   0.92031   0.00000  Uiso   1.00
H645   H     0.58659   0.32827   0.75867   0.00000  Uiso   1.00
H646   H     0.86061   0.21472   0.75460   0.00000  Uiso   1.00
H647   H     0.89538   0.30645   0.94255   0.00000  Uiso   1.00
H648   H     0.61046   0.17467   0.93011   0.00000  Uiso   1.00
H649   H     0.81239   0.46528   0.87602   0.00000  Uiso   1.00
H650   H     0.78751   0.03465   0.90348   0.00000  Uiso   1.00
H651   H     0.68773   0.46546   0.79052   0.00000  Uiso   1.00
H652   H     0.69372   0.15375   0.77055   0.00000  Uiso   1.00
H653   H     0.80555   0.34630   0.89657   0.00000  Uiso   1.00
H654   H     0.80631   0.15364   0.89606   0.00000  Uiso   1.00
H655   H     0.69425   0.34621   0.77034   0.00000  Uiso   1.00
H656   H     0.98748   0.31707   0.80559   0.00000  Uiso   1.00
N657   N     0.75000   0.12623   0.83333   0.00000  Uiso   1.00
N658   N     0.75000   0.37376   0.83333   0.00000  Uiso   1.00
O659   O     0.68453   0.28974   0.83334   0.00000  Uiso   1.00
O660   O     0.81708   0.37669   0.88590   0.00000  Uiso   1.00
O661   O     0.79636   0.12332   0.90883   0.00000  Uiso   1.00
O662   O     0.68306   0.37694   0.78047   0.00000  Uiso   1.00
O663   O     0.51709   0.31296   0.79070   0.00000  Uiso   1.00
O664   O     0.97873   0.19365   0.77874   0.00000  Uiso   1.00
O665   O     0.97048   0.29484   0.92693   0.00000  Uiso   1.00
O666   O     0.53456   0.18826   0.91633   0.00000  Uiso   1.00
O667   O     0.60922   0.30846   0.77635   0.00000  Uiso   1.00
O668   O     0.89056   0.20141   0.76285   0.00000  Uiso   1.00
O669   O     0.87717   0.29383   0.91405   0.00000  Uiso   1.00
O670   O     0.81547   0.21026   0.83333   0.00000  Uiso   1.00
O671   O     0.62715   0.19253   0.90514   0.00000  Uiso   1.00
O672   O     0.81547   0.28974   0.83333   0.00000  Uiso   1.00
O673   O     0.68453   0.21026   0.83334   0.00000  Uiso   1.00
O674   O     0.75000   0.28973   0.76178   0.00000  Uiso   1.00
O675   O     0.75000   0.21027   0.90489   0.00000  Uiso   1.00
O676   O     0.75000   0.28973   0.90489   0.00000  Uiso   1.00
O677   O     0.75000   0.21027   0.76178   0.00000  Uiso   1.00
O678   O     0.70369   0.12341   0.75780   0.00000  Uiso   1.00
Zn679  Zn    0.75000   0.30307   0.83333   0.00000  Uiso   1.00
Zn680  Zn    0.75000   0.19693   0.83333   0.00000  Uiso   1.00
C681   C     0.16394   0.75000   0.83412   0.00000  Uiso   1.00
C682   C     0.21562   0.94778   0.80921   0.00000  Uiso   1.00
C683   C     0.24989   0.75000   0.73962   0.00000  Uiso   1.00
C684   C     0.25015   0.75000   0.92705   0.00000  Uiso   1.00
C685   C     0.25004   0.52656   0.83332   0.00000  Uiso   1.00
C686   C     0.25004   0.97352   0.83331   0.00000  Uiso   1.00
C687   C     0.25000   0.74999   0.68848   0.00000  Uiso   1.00
C688   C     0.25009   0.74999   0.97819   0.00000  Uiso   1.00
C689   C     0.04309   0.78193   0.81894   0.00000  Uiso   1.00
C690   C     0.45526   0.71988   0.81260   0.00000  Uiso   1.00
C691   C     0.45096   0.77024   0.88723   0.00000  Uiso   1.00
C692   C     0.33598   0.74993   0.83376   0.00000  Uiso   1.00
C693   C     0.05181   0.71963   0.88253   0.00000  Uiso   1.00
C694   C     0.08923   0.78079   0.81174   0.00000  Uiso   1.00
C695   C     0.40932   0.72350   0.80458   0.00000  Uiso   1.00
C696   C     0.40430   0.77171   0.88031   0.00000  Uiso   1.00
C697   C     0.09817   0.72021   0.87636   0.00000  Uiso   1.00
C698   C     0.11609   0.74996   0.84032   0.00000  Uiso   1.00
C699   C     0.38409   0.74944   0.83852   0.00000  Uiso   1.00
C700   C     0.02453   0.75009   0.85304   0.00000  Uiso   1.00
C701   C     0.47621   0.74488   0.85258   0.00000  Uiso   1.00
C702   C     0.22780   0.60154   0.79571   0.00000  Uiso   1.00
C703   C     0.28343   0.89850   0.85854   0.00000  Uiso   1.00
C704   C     0.27223   0.60149   0.87094   0.00000  Uiso   1.00
C705   C     0.21664   0.89861   0.80803   0.00000  Uiso   1.00
C706   C     0.22891   0.55237   0.79455   0.00000  Uiso   1.00
C707   C     0.28447   0.94768   0.85736   0.00000  Uiso   1.00
C708   C     0.27115   0.55232   0.87209   0.00000  Uiso   1.00
H709   H     0.21258   0.53475   0.76314   0.00000  Uiso   1.00
H710   H     0.00932   0.68710   0.79232   0.00000  Uiso   1.00
H711   H     0.00283   0.78780   0.93055   0.00000  Uiso   1.00
H712   H     0.00218   0.69360   0.92031   0.00000  Uiso   1.00
H713   H     0.08659   0.82827   0.75867   0.00000  Uiso   1.00
H714   H     0.36061   0.71472   0.75460   0.00000  Uiso   1.00
H715   H     0.39538   0.80645   0.94255   0.00000  Uiso   1.00
H716   H     0.11046   0.67467   0.93011   0.00000  Uiso   1.00
H717   H     0.31239   0.96528   0.87602   0.00000  Uiso   1.00
H718   H     0.28751   0.53465   0.90348   0.00000  Uiso   1.00
H719   H     0.18773   0.96546   0.79052   0.00000  Uiso   1.00
H720   H     0.19372   0.65375   0.77055   0.00000  Uiso   1.00
H721   H     0.30555   0.84630   0.89657   0.00000  Uiso   1.00
H722   H     0.30631   0.65364   0.89606   0.00000  Uiso   1.00
H723   H     0.19425   0.84621   0.77034   0.00000  Uiso   1.00
H724   H     0.48748   0.81707   0.80559   0.00000  Uiso   1.00
N725   N     0.25000   0.62623   0.83333   0.00000  Uiso   1.00
N726   N     0.25000   0.87376   0.83333   0.00000  Uiso   1.00
O727   O     0.18453   0.78974   0.83334   0.00000  Uiso   1.00
O728   O     0.31708   0.87669   0.88590   0.00000  Uiso   1.00
O729   O     0.29636   0.62332   0.90883   0.00000  Uiso   1.00
O730   O     0.18306   0.87694   0.78047   0.00000  Uiso   1.00
O731   O     0.01709   0.81296   0.79070   0.00000  Uiso   1.00
O732   O     0.47873   0.69365   0.77874   0.00000  Uiso   1.00
O733   O     0.47048   0.79484   0.92693   0.00000  Uiso   1.00
O734   O     0.03456   0.68826   0.91633   0.00000  Uiso   1.00
O735   O     0.10922   0.80846   0.77635   0.00000  Uiso   1.00
O736   O     0.39056   0.70141   0.76285   0.00000  Uiso   1.00
O737   O     0.37717   0.79383   0.91405   0.00000  Uiso   1.00
O738   O     0.31547   0.71026   0.83333   0.00000  Uiso   1.00
O739   O     0.12715   0.69253   0.90514   0.00000  Uiso   1.00
O740   O     0.31547   0.78974   0.83333   0.00000  Uiso   1.00
O741   O     0.18453   0.71026   0.83334   0.00000  Uiso   1.00
O742   O     0.25000   0.78973   0.76178   0.00000  Uiso   1.00
O743   O     0.25000   0.71027   0.90489   0.00000  Uiso   1.00
O744   O     0.25000   0.78973   0.90489   0.00000  Uiso   1.00
O745   O     0.25000   0.71027   0.76178   0.00000  Uiso   1.00
O746   O     0.20369   0.62341   0.75780   0.00000  Uiso   1.00
Zn747  Zn    0.25000   0.80307   0.83333   0.00000  Uiso   1.00
Zn748  Zn    0.25000   0.69693   0.83333   0.00000  Uiso   1.00
C749   C     0.66394   0.75000   0.83412   0.00000  Uiso   1.00
C750   C     0.71562   0.94778   0.80921   0.00000  Uiso   1.00
C751   C     0.74989   0.75000   0.73962   0.00000  Uiso   1.00
C752   C     0.75015   0.75000   0.92705   0.00000  Uiso   1.00
C753   C     0.75004   0.52656   0.83332   0.00000  Uiso   1.00
C754   C     0.75004   0.97352   0.83331   0.00000  Uiso   1.00
C755   C     0.75000   0.74999   0.68848   0.00000  Uiso   1.00
C756   C     0.75009   0.74999   0.97819   0.00000  Uiso   1.00
C757   C     0.54309   0.78193   0.81894   0.00000  Uiso   1.00
C758   C     0.95526   0.71988   0.81260   0.00000  Uiso   1.00
C759   C     0.95096   0.77024   0.88723   0.00000  Uiso   1.00
C760   C     0.83598   0.74993   0.83376   0.00000  Uiso   1.00
C761   C     0.55181   0.71963   0.88253   0.00000  Uiso   1.00
C762   C     0.58923   0.78079   0.81174   0.00000  Uiso   1.00
C763   C     0.90932   0.72350   0.80458   0.00000  Uiso   1.00
C764   C     0.90430   0.77171   0.88031   0.00000  Uiso   1.00
C765   C     0.59817   0.72021   0.87636   0.00000  Uiso   1.00
C766   C     0.61609   0.74996   0.84032   0.00000  Uiso   1.00
C767   C     0.88409   0.74944   0.83852   0.00000  Uiso   1.00
C768   C     0.52453   0.75009   0.85304   0.00000  Uiso   1.00
C769   C     0.97621   0.74488   0.85258   0.00000  Uiso   1.00
C770   C     0.72780   0.60154   0.79571   0.00000  Uiso   1.00
C771   C     0.78343   0.89850   0.85854   0.00000  Uiso   1.00
C772   C     0.77223   0.60149   0.87094   0.00000  Uiso   1.00
C773   C     0.71664   0.89861   0.80803   0.00000  Uiso   1.00
C774   C     0.72891   0.55237   0.79455   0.00000  Uiso   1.00
C775   C     0.78447   0.94768   0.85736   0.00000  Uiso   1.00
C776   C     0.77115   0.55232   0.87209   0.00000  Uiso   1.00
H777   H     0.71258   0.53475   0.76314   0.00000  Uiso   1.00
H778   H     0.50932   0.68710   0.79232   0.00000  Uiso   1.00
H779   H     0.50283   0.78780   0.93055   0.00000  Uiso   1.00
H780   H     0.50218   0.69360   0.92031   0.00000  Uiso   1.00
H781   H     0.58659   0.82827   0.75867   0.00000  Uiso   1.00
H782   H     0.86061   0.71472   0.75460   0.00000  Uiso   1.00
H783   H     0.89538   0.80645   0.94255   0.00000  Uiso   1.00
H784   H     0.61046   0.67467   0.93011   0.00000  Uiso   1.00
H785   H     0.81239   0.96528   0.87602   0.00000  Uiso   1.00
H786   H     0.78751   0.53465   0.90348   0.00000  Uiso   1.00
H787   H     0.68773   0.96546   0.79052   0.00000  Uiso   1.00
H788   H     0.69372   0.65375   0.77055   0.00000  Uiso   1.00
H789   H     0.80555   0.84630   0.89657   0.00000  Uiso   1.00
H790   H     0.80631   0.65364   0.89606   0.00000  Uiso   1.00
H791   H     0.69425   0.84621   0.77034   0.00000  Uiso   1.00
H792   H     0.98748   0.81707   0.80559   0.00000  Uiso   1.00
N793   N     0.75000   0.62623   0.83333   0.00000  Uiso   1.00
N794   N     0.75000   0.87376   0.83333   0.00000  Uiso   1.00
O795   O     0.68453   0.78974   0.83334   0.00000  Uiso   1.00
O796   O     0.81708   0.87669   0.88590   0.00000  Uiso   1.00
O797   O     0.79636   0.62332   0.90883   0.00000  Uiso   1.00
O798   O     0.68306   0.87694   0.78047   0.00000  Uiso   1.00
O799   O     0.51709   0.81296   0.79070   0.00000  Uiso   1.00
O800   O     0.97873   0.69365   0.77874   0.00000  Uiso   1.00
O801   O     0.97048   0.79484   0.92693   0.00000  Uiso   1.00
O802   O     0.53456   0.68826   0.91633   0.00000  Uiso   1.00
O803   O     0.60922   0.80846   0.77635   0.00000  Uiso   1.00
O804   O     0.89056   0.70141   0.76285   0.00000  Uiso   1.00
O805   O     0.87717   0.79383   0.91405   0.00000  Uiso   1.00
O806   O     0.81547   0.71026   0.83333   0.00000  Uiso   1.00
O807   O     0.62715   0.69253   0.90514   0.00000  Uiso   1.00
O808   O     0.81547   0.78974   0.83333   0.00000  Uiso   1.00
O809   O     0.68453   0.71026   0.83334   0.00000  Uiso   1.00
O810   O     0.75000   0.78973   0.76178   0.00000  Uiso   1.00
O811   O     0.75000   0.71027   0.90489   0.00000  Uiso   1.00
O812   O     0.75000   0.78973   0.90489   0.00000  Uiso   1.00
O813   O     0.75000   0.71027   0.76178   0.00000  Uiso   1.00
O814   O     0.70369   0.62341   0.75780   0.00000  Uiso   1.00
Zn815  Zn    0.75000   0.80307   0.83333   0.00000  Uiso   1.00
Zn816  Zn    0.75000   0.69693   0.83333   0.00000  Uiso   1.00
loop_
_geom_bond_atom_site_label_1
_geom_bond_atom_site_label_2
_geom_bond_distance
_geom_bond_site_symmetry_2
_ccdc_geom_bond_type
C1     C18     1.444   .     S
C1     O47     1.294   .     A
C1     O61     1.293   .     A
C2     C6      1.404   .     A
C2     C25     1.409   .     A
C2     H39     1.082   .     S
C3     O65     1.282   .     A
C3     C7      1.367   .     S
C3     O62     1.283   .     A
C4     O63     1.282   .     A
C4     C8      1.367   .     S
C4     O64     1.283   .     A
C5     C28     1.404   .     A
C5     C26     1.404   .     A
C5     C142    1.519   1_545 S
C6     C27     1.404   .     A
C6     C141    1.519   .     S
C7     C552    1.166   1_554 S
C8     C279    1.166   .     S
C9     C14     1.398   .     A
C9     C20     1.416   .     A
C9     O51     1.386   .     S
C10    O52     1.384   .     S
C10    C21     1.415   .     A
C10    C15     1.385   .     A
C11    C16     1.400   .     A
C11    O53     1.386   .     S
C11    C21     1.414   .     A
C12    O58     1.291   .     A
C12    C19     1.438   .     S
C12    O60     1.293   .     A
C13    C17     1.399   .     A
C13    O54     1.386   .     S
C13    C20     1.414   .     A
C14    C18     1.401   .     A
C14    O55     1.385   .     S
C15    O56     1.384   .     S
C15    C19     1.410   .     A
C16    O57     1.385   .     S
C16    C19     1.405   .     A
C17    C18     1.406   .     A
C17    O59     1.386   .     S
C20    C89     1.450   1_455 S
C21    C88     1.450   .     S
C22    N45     1.381   .     A
C22    C26     1.409   .     A
C22    O66     1.373   .     S
C23    C27     1.409   .     A
C23    N46     1.381   .     A
C23    O48     1.372   .     S
C24    N45     1.381   .     A
C24    O49     1.373   .     S
C24    C28     1.409   .     A
C25    N46     1.381   .     A
C25    O50     1.372   .     S
C26    H29     1.082   .     S
C27    H37     1.082   .     S
C28    H38     1.082   .     S
H30    O120    0.989   1_455 S
H31    O121    0.988   1_455 S
H32    O54     0.988   .     S
H33    O55     0.989   .     S
H34    O56     0.989   .     S
H35    O57     0.989   .     S
H36    O59     0.989   .     S
H40    O66     0.983   .     S
H41    O48     0.982   .     S
H42    O49     0.983   .     S
H43    O50     0.982   .     S
H44    O119    0.989   .     S
N45    Zn68    2.024   .     S
N46    Zn67    2.024   .     S
O47    Zn67    1.992   .     S
O51    H112    0.989   1_455 S
O52    H98     0.989   .     S
O53    H99     0.988   .     S
O58    Zn68    1.992   .     S
O60    Zn67    1.991   .     S
O61    Zn68    1.991   .     S
O62    Zn67    1.951   .     S
O63    Zn68    1.951   .     S
O64    Zn67    1.950   .     S
O65    Zn68    1.950   .     S
C69    C86     1.444   .     S
C69    O115    1.294   .     A
C69    O129    1.293   .     A
C70    C74     1.404   .     A
C70    C93     1.409   .     A
C70    H107    1.082   .     S
C71    O133    1.282   .     A
C71    C75     1.367   .     S
C71    O130    1.283   .     A
C72    O131    1.282   .     A
C72    C76     1.367   .     S
C72    O132    1.283   .     A
C73    C96     1.404   .     A
C73    C94     1.404   .     A
C73    C210    1.519   1_545 S
C74    C95     1.404   .     A
C74    C209    1.519   .     S
C75    C620    1.166   1_554 S
C76    C347    1.166   .     S
C77    C82     1.398   .     A
C77    C88     1.416   .     A
C77    O119    1.386   .     S
C78    O120    1.384   .     S
C78    C89     1.415   .     A
C78    C83     1.385   .     A
C79    C84     1.400   .     A
C79    O121    1.386   .     S
C79    C89     1.414   .     A
C80    O126    1.291   .     A
C80    C87     1.438   .     S
C80    O128    1.293   .     A
C81    C85     1.399   .     A
C81    O122    1.386   .     S
C81    C88     1.414   .     A
C82    C86     1.401   .     A
C82    O123    1.385   .     S
C83    O124    1.384   .     S
C83    C87     1.410   .     A
C84    O125    1.385   .     S
C84    C87     1.405   .     A
C85    C86     1.406   .     A
C85    O127    1.386   .     S
C89    C20     1.450   1_655 S
C90    N113    1.381   .     A
C90    C94     1.409   .     A
C90    O134    1.373   .     S
C91    C95     1.409   .     A
C91    N114    1.381   .     A
C91    O116    1.372   .     S
C92    N113    1.381   .     A
C92    O117    1.373   .     S
C92    C96     1.409   .     A
C93    N114    1.381   .     A
C93    O118    1.372   .     S
C94    H97     1.082   .     S
C95    H105    1.082   .     S
C96    H106    1.082   .     S
H100   O122    0.988   .     S
H101   O123    0.989   .     S
H102   O124    0.989   .     S
H103   O125    0.989   .     S
H104   O127    0.989   .     S
H108   O134    0.983   .     S
H109   O116    0.982   .     S
H110   O117    0.983   .     S
H111   O118    0.982   .     S
H112   O51     0.989   1_655 S
N113   Zn136   2.024   .     S
N114   Zn135   2.024   .     S
O115   Zn135   1.992   .     S
O120   H30     0.989   1_655 S
O121   H31     0.988   1_655 S
O126   Zn136   1.992   .     S
O128   Zn135   1.991   .     S
O129   Zn136   1.991   .     S
O130   Zn135   1.951   .     S
O131   Zn136   1.951   .     S
O132   Zn135   1.950   .     S
O133   Zn136   1.950   .     S
C137   C154    1.444   .     S
C137   O183    1.294   .     A
C137   O197    1.293   .     A
C138   C142    1.404   .     A
C138   C161    1.409   .     A
C138   H175    1.082   .     S
C139   O201    1.282   .     A
C139   C143    1.367   .     S
C139   O198    1.283   .     A
C140   O199    1.282   .     A
C140   C144    1.367   .     S
C140   O200    1.283   .     A
C141   C164    1.404   .     A
C141   C162    1.404   .     A
C142   C163    1.404   .     A
C142   C5      1.519   1_565 S
C143   C688    1.166   1_554 S
C144   C415    1.166   .     S
C145   C150    1.398   .     A
C145   C156    1.416   .     A
C145   O187    1.386   .     S
C146   O188    1.384   .     S
C146   C157    1.415   .     A
C146   C151    1.385   .     A
C147   C152    1.400   .     A
C147   O189    1.386   .     S
C147   C157    1.414   .     A
C148   O194    1.291   .     A
C148   C155    1.438   .     S
C148   O196    1.293   .     A
C149   C153    1.399   .     A
C149   O190    1.386   .     S
C149   C156    1.414   .     A
C150   C154    1.401   .     A
C150   O191    1.385   .     S
C151   O192    1.384   .     S
C151   C155    1.410   .     A
C152   O193    1.385   .     S
C152   C155    1.405   .     A
C153   C154    1.406   .     A
C153   O195    1.386   .     S
C156   C225    1.450   1_455 S
C157   C224    1.450   .     S
C158   N181    1.381   .     A
C158   C162    1.409   .     A
C158   O202    1.373   .     S
C159   C163    1.409   .     A
C159   N182    1.381   .     A
C159   O184    1.372   .     S
C160   N181    1.381   .     A
C160   O185    1.373   .     S
C160   C164    1.409   .     A
C161   N182    1.381   .     A
C161   O186    1.372   .     S
C162   H165    1.082   .     S
C163   H173    1.082   .     S
C164   H174    1.082   .     S
H166   O256    0.989   1_455 S
H167   O257    0.988   1_455 S
H168   O190    0.988   .     S
H169   O191    0.989   .     S
H170   O192    0.989   .     S
H171   O193    0.989   .     S
H172   O195    0.989   .     S
H176   O202    0.983   .     S
H177   O184    0.982   .     S
H178   O185    0.983   .     S
H179   O186    0.982   .     S
H180   O255    0.989   .     S
N181   Zn204   2.024   .     S
N182   Zn203   2.024   .     S
O183   Zn203   1.992   .     S
O187   H248    0.989   1_455 S
O188   H234    0.989   .     S
O189   H235    0.988   .     S
O194   Zn204   1.992   .     S
O196   Zn203   1.991   .     S
O197   Zn204   1.991   .     S
O198   Zn203   1.951   .     S
O199   Zn204   1.951   .     S
O200   Zn203   1.950   .     S
O201   Zn204   1.950   .     S
C205   C222    1.444   .     S
C205   O251    1.294   .     A
C205   O265    1.293   .     A
C206   C210    1.404   .     A
C206   C229    1.409   .     A
C206   H243    1.082   .     S
C207   O269    1.282   .     A
C207   C211    1.367   .     S
C207   O266    1.283   .     A
C208   O267    1.282   .     A
C208   C212    1.367   .     S
C208   O268    1.283   .     A
C209   C232    1.404   .     A
C209   C230    1.404   .     A
C210   C231    1.404   .     A
C210   C73     1.519   1_565 S
C211   C756    1.166   1_554 S
C212   C483    1.166   .     S
C213   C218    1.398   .     A
C213   C224    1.416   .     A
C213   O255    1.386   .     S
C214   O256    1.384   .     S
C214   C225    1.415   .     A
C214   C219    1.385   .     A
C215   C220    1.400   .     A
C215   O257    1.386   .     S
C215   C225    1.414   .     A
C216   O262    1.291   .     A
C216   C223    1.438   .     S
C216   O264    1.293   .     A
C217   C221    1.399   .     A
C217   O258    1.386   .     S
C217   C224    1.414   .     A
C218   C222    1.401   .     A
C218   O259    1.385   .     S
C219   O260    1.384   .     S
C219   C223    1.410   .     A
C220   O261    1.385   .     S
C220   C223    1.405   .     A
C221   C222    1.406   .     A
C221   O263    1.386   .     S
C225   C156    1.450   1_655 S
C226   N249    1.381   .     A
C226   C230    1.409   .     A
C226   O270    1.373   .     S
C227   C231    1.409   .     A
C227   N250    1.381   .     A
C227   O252    1.372   .     S
C228   N249    1.381   .     A
C228   O253    1.373   .     S
C228   C232    1.409   .     A
C229   N250    1.381   .     A
C229   O254    1.372   .     S
C230   H233    1.082   .     S
C231   H241    1.082   .     S
C232   H242    1.082   .     S
H236   O258    0.988   .     S
H237   O259    0.989   .     S
H238   O260    0.989   .     S
H239   O261    0.989   .     S
H240   O263    0.989   .     S
H244   O270    0.983   .     S
H245   O252    0.982   .     S
H246   O253    0.983   .     S
H247   O254    0.982   .     S
H248   O187    0.989   1_655 S
N249   Zn272   2.024   .     S
N250   Zn271   2.024   .     S
O251   Zn271   1.992   .     S
O256   H166    0.989   1_655 S
O257   H167    0.988   1_655 S
O262   Zn272   1.992   .     S
O264   Zn271   1.991   .     S
O265   Zn272   1.991   .     S
O266   Zn271   1.951   .     S
O267   Zn272   1.951   .     S
O268   Zn271   1.950   .     S
O269   Zn272   1.950   .     S
C273   C290    1.444   .     S
C273   O319    1.294   .     A
C273   O333    1.293   .     A
C274   C278    1.404   .     A
C274   C297    1.409   .     A
C274   H311    1.082   .     S
C275   O337    1.282   .     A
C275   C279    1.367   .     S
C275   O334    1.283   .     A
C276   O335    1.282   .     A
C276   C280    1.367   .     S
C276   O336    1.283   .     A
C277   C300    1.404   .     A
C277   C298    1.404   .     A
C277   C414    1.519   1_545 S
C278   C299    1.404   .     A
C278   C413    1.519   .     S
C280   C551    1.166   .     S
C281   C286    1.398   .     A
C281   C292    1.416   .     A
C281   O323    1.386   .     S
C282   O324    1.384   .     S
C282   C293    1.415   .     A
C282   C287    1.385   .     A
C283   C288    1.400   .     A
C283   O325    1.386   .     S
C283   C293    1.414   .     A
C284   O330    1.291   .     A
C284   C291    1.438   .     S
C284   O332    1.293   .     A
C285   C289    1.399   .     A
C285   O326    1.386   .     S
C285   C292    1.414   .     A
C286   C290    1.401   .     A
C286   O327    1.385   .     S
C287   O328    1.384   .     S
C287   C291    1.410   .     A
C288   O329    1.385   .     S
C288   C291    1.405   .     A
C289   C290    1.406   .     A
C289   O331    1.386   .     S
C292   C361    1.450   1_455 S
C293   C360    1.450   .     S
C294   N317    1.381   .     A
C294   C298    1.409   .     A
C294   O338    1.373   .     S
C295   C299    1.409   .     A
C295   N318    1.381   .     A
C295   O320    1.372   .     S
C296   N317    1.381   .     A
C296   O321    1.373   .     S
C296   C300    1.409   .     A
C297   N318    1.381   .     A
C297   O322    1.372   .     S
C298   H301    1.082   .     S
C299   H309    1.082   .     S
C300   H310    1.082   .     S
H302   O392    0.989   1_455 S
H303   O393    0.988   1_455 S
H304   O326    0.988   .     S
H305   O327    0.989   .     S
H306   O328    0.989   .     S
H307   O329    0.989   .     S
H308   O331    0.989   .     S
H312   O338    0.983   .     S
H313   O320    0.982   .     S
H314   O321    0.983   .     S
H315   O322    0.982   .     S
H316   O391    0.989   .     S
N317   Zn340   2.024   .     S
N318   Zn339   2.024   .     S
O319   Zn339   1.992   .     S
O323   H384    0.989   1_455 S
O324   H370    0.989   .     S
O325   H371    0.988   .     S
O330   Zn340   1.992   .     S
O332   Zn339   1.991   .     S
O333   Zn340   1.991   .     S
O334   Zn339   1.951   .     S
O335   Zn340   1.951   .     S
O336   Zn339   1.950   .     S
O337   Zn340   1.950   .     S
C341   C358    1.444   .     S
C341   O387    1.294   .     A
C341   O401    1.293   .     A
C342   C346    1.404   .     A
C342   C365    1.409   .     A
C342   H379    1.082   .     S
C343   O405    1.282   .     A
C343   C347    1.367   .     S
C343   O402    1.283   .     A
C344   O403    1.282   .     A
C344   C348    1.367   .     S
C344   O404    1.283   .     A
C345   C368    1.404   .     A
C345   C366    1.404   .     A
C345   C482    1.519   1_545 S
C346   C367    1.404   .     A
C346   C481    1.519   .     S
C348   C619    1.166   .     S
C349   C354    1.398   .     A
C349   C360    1.416   .     A
C349   O391    1.386   .     S
C350   O392    1.384   .     S
C350   C361    1.415   .     A
C350   C355    1.385   .     A
C351   C356    1.400   .     A
C351   O393    1.386   .     S
C351   C361    1.414   .     A
C352   O398    1.291   .     A
C352   C359    1.438   .     S
C352   O400    1.293   .     A
C353   C357    1.399   .     A
C353   O394    1.386   .     S
C353   C360    1.414   .     A
C354   C358    1.401   .     A
C354   O395    1.385   .     S
C355   O396    1.384   .     S
C355   C359    1.410   .     A
C356   O397    1.385   .     S
C356   C359    1.405   .     A
C357   C358    1.406   .     A
C357   O399    1.386   .     S
C361   C292    1.450   1_655 S
C362   N385    1.381   .     A
C362   C366    1.409   .     A
C362   O406    1.373   .     S
C363   C367    1.409   .     A
C363   N386    1.381   .     A
C363   O388    1.372   .     S
C364   N385    1.381   .     A
C364   O389    1.373   .     S
C364   C368    1.409   .     A
C365   N386    1.381   .     A
C365   O390    1.372   .     S
C366   H369    1.082   .     S
C367   H377    1.082   .     S
C368   H378    1.082   .     S
H372   O394    0.988   .     S
H373   O395    0.989   .     S
H374   O396    0.989   .     S
H375   O397    0.989   .     S
H376   O399    0.989   .     S
H380   O406    0.983   .     S
H381   O388    0.982   .     S
H382   O389    0.983   .     S
H383   O390    0.982   .     S
H384   O323    0.989   1_655 S
N385   Zn408   2.024   .     S
N386   Zn407   2.024   .     S
O387   Zn407   1.992   .     S
O392   H302    0.989   1_655 S
O393   H303    0.988   1_655 S
O398   Zn408   1.992   .     S
O400   Zn407   1.991   .     S
O401   Zn408   1.991   .     S
O402   Zn407   1.951   .     S
O403   Zn408   1.951   .     S
O404   Zn407   1.950   .     S
O405   Zn408   1.950   .     S
C409   C426    1.444   .     S
C409   O455    1.294   .     A
C409   O469    1.293   .     A
C410   C414    1.404   .     A
C410   C433    1.409   .     A
C410   H447    1.082   .     S
C411   O473    1.282   .     A
C411   C415    1.367   .     S
C411   O470    1.283   .     A
C412   O471    1.282   .     A
C412   C416    1.367   .     S
C412   O472    1.283   .     A
C413   C436    1.404   .     A
C413   C434    1.404   .     A
C414   C435    1.404   .     A
C414   C277    1.519   1_565 S
C416   C687    1.166   .     S
C417   C422    1.398   .     A
C417   C428    1.416   .     A
C417   O459    1.386   .     S
C418   O460    1.384   .     S
C418   C429    1.415   .     A
C418   C423    1.385   .     A
C419   C424    1.400   .     A
C419   O461    1.386   .     S
C419   C429    1.414   .     A
C420   O466    1.291   .     A
C420   C427    1.438   .     S
C420   O468    1.293   .     A
C421   C425    1.399   .     A
C421   O462    1.386   .     S
C421   C428    1.414   .     A
C422   C426    1.401   .     A
C422   O463    1.385   .     S
C423   O464    1.384   .     S
C423   C427    1.410   .     A
C424   O465    1.385   .     S
C424   C427    1.405   .     A
C425   C426    1.406   .     A
C425   O467    1.386   .     S
C428   C497    1.450   1_455 S
C429   C496    1.450   .     S
C430   N453    1.381   .     A
C430   C434    1.409   .     A
C430   O474    1.373   .     S
C431   C435    1.409   .     A
C431   N454    1.381   .     A
C431   O456    1.372   .     S
C432   N453    1.381   .     A
C432   O457    1.373   .     S
C432   C436    1.409   .     A
C433   N454    1.381   .     A
C433   O458    1.372   .     S
C434   H437    1.082   .     S
C435   H445    1.082   .     S
C436   H446    1.082   .     S
H438   O528    0.989   1_455 S
H439   O529    0.988   1_455 S
H440   O462    0.988   .     S
H441   O463    0.989   .     S
H442   O464    0.989   .     S
H443   O465    0.989   .     S
H444   O467    0.989   .     S
H448   O474    0.983   .     S
H449   O456    0.982   .     S
H450   O457    0.983   .     S
H451   O458    0.982   .     S
H452   O527    0.989   .     S
N453   Zn476   2.024   .     S
N454   Zn475   2.024   .     S
O455   Zn475   1.992   .     S
O459   H520    0.989   1_455 S
O460   H506    0.989   .     S
O461   H507    0.988   .     S
O466   Zn476   1.992   .     S
O468   Zn475   1.991   .     S
O469   Zn476   1.991   .     S
O470   Zn475   1.951   .     S
O471   Zn476   1.951   .     S
O472   Zn475   1.950   .     S
O473   Zn476   1.950   .     S
C477   C494    1.444   .     S
C477   O523    1.294   .     A
C477   O537    1.293   .     A
C478   C482    1.404   .     A
C478   C501    1.409   .     A
C478   H515    1.082   .     S
C479   O541    1.282   .     A
C479   C483    1.367   .     S
C479   O538    1.283   .     A
C480   O539    1.282   .     A
C480   C484    1.367   .     S
C480   O540    1.283   .     A
C481   C504    1.404   .     A
C481   C502    1.404   .     A
C482   C503    1.404   .     A
C482   C345    1.519   1_565 S
C484   C755    1.166   .     S
C485   C490    1.398   .     A
C485   C496    1.416   .     A
C485   O527    1.386   .     S
C486   O528    1.384   .     S
C486   C497    1.415   .     A
C486   C491    1.385   .     A
C487   C492    1.400   .     A
C487   O529    1.386   .     S
C487   C497    1.414   .     A
C488   O534    1.291   .     A
C488   C495    1.438   .     S
C488   O536    1.293   .     A
C489   C493    1.399   .     A
C489   O530    1.386   .     S
C489   C496    1.414   .     A
C490   C494    1.401   .     A
C490   O531    1.385   .     S
C491   O532    1.384   .     S
C491   C495    1.410   .     A
C492   O533    1.385   .     S
C492   C495    1.405   .     A
C493   C494    1.406   .     A
C493   O535    1.386   .     S
C497   C428    1.450   1_655 S
C498   N521    1.381   .     A
C498   C502    1.409   .     A
C498   O542    1.373   .     S
C499   C503    1.409   .     A
C499   N522    1.381   .     A
C499   O524    1.372   .     S
C500   N521    1.381   .     A
C500   O525    1.373   .     S
C500   C504    1.409   .     A
C501   N522    1.381   .     A
C501   O526    1.372   .     S
C502   H505    1.082   .     S
C503   H513    1.082   .     S
C504   H514    1.082   .     S
H508   O530    0.988   .     S
H509   O531    0.989   .     S
H510   O532    0.989   .     S
H511   O533    0.989   .     S
H512   O535    0.989   .     S
H516   O542    0.983   .     S
H517   O524    0.982   .     S
H518   O525    0.983   .     S
H519   O526    0.982   .     S
H520   O459    0.989   1_655 S
N521   Zn544   2.024   .     S
N522   Zn543   2.024   .     S
O523   Zn543   1.992   .     S
O528   H438    0.989   1_655 S
O529   H439    0.988   1_655 S
O534   Zn544   1.992   .     S
O536   Zn543   1.991   .     S
O537   Zn544   1.991   .     S
O538   Zn543   1.951   .     S
O539   Zn544   1.951   .     S
O540   Zn543   1.950   .     S
O541   Zn544   1.950   .     S
C545   C562    1.444   .     S
C545   O591    1.294   .     A
C545   O605    1.293   .     A
C546   C550    1.404   .     A
C546   C569    1.409   .     A
C546   H583    1.082   .     S
C547   O609    1.282   .     A
C547   C551    1.367   .     S
C547   O606    1.283   .     A
C548   O607    1.282   .     A
C548   C552    1.367   .     S
C548   O608    1.283   .     A
C549   C572    1.404   .     A
C549   C570    1.404   .     A
C549   C686    1.519   1_545 S
C550   C571    1.404   .     A
C550   C685    1.519   .     S
C552   C7      1.166   1_556 S
C553   C558    1.398   .     A
C553   C564    1.416   .     A
C553   O595    1.386   .     S
C554   O596    1.384   .     S
C554   C565    1.415   .     A
C554   C559    1.385   .     A
C555   C560    1.400   .     A
C555   O597    1.386   .     S
C555   C565    1.414   .     A
C556   O602    1.291   .     A
C556   C563    1.438   .     S
C556   O604    1.293   .     A
C557   C561    1.399   .     A
C557   O598    1.386   .     S
C557   C564    1.414   .     A
C558   C562    1.401   .     A
C558   O599    1.385   .     S
C559   O600    1.384   .     S
C559   C563    1.410   .     A
C560   O601    1.385   .     S
C560   C563    1.405   .     A
C561   C562    1.406   .     A
C561   O603    1.386   .     S
C564   C633    1.450   1_455 S
C565   C632    1.450   .     S
C566   N589    1.381   .     A
C566   C570    1.409   .     A
C566   O610    1.373   .     S
C567   C571    1.409   .     A
C567   N590    1.381   .     A
C567   O592    1.372   .     S
C568   N589    1.381   .     A
C568   O593    1.373   .     S
C568   C572    1.409   .     A
C569   N590    1.381   .     A
C569   O594    1.372   .     S
C570   H573    1.082   .     S
C571   H581    1.082   .     S
C572   H582    1.082   .     S
H574   O664    0.989   1_455 S
H575   O665    0.988   1_455 S
H576   O598    0.988   .     S
H577   O599    0.989   .     S
H578   O600    0.989   .     S
H579   O601    0.989   .     S
H580   O603    0.989   .     S
H584   O610    0.983   .     S
H585   O592    0.982   .     S
H586   O593    0.983   .     S
H587   O594    0.982   .     S
H588   O663    0.989   .     S
N589   Zn612   2.024   .     S
N590   Zn611   2.024   .     S
O591   Zn611   1.992   .     S
O595   H656    0.989   1_455 S
O596   H642    0.989   .     S
O597   H643    0.988   .     S
O602   Zn612   1.992   .     S
O604   Zn611   1.991   .     S
O605   Zn612   1.991   .     S
O606   Zn611   1.951   .     S
O607   Zn612   1.951   .     S
O608   Zn611   1.950   .     S
O609   Zn612   1.950   .     S
C613   C630    1.444   .     S
C613   O659    1.294   .     A
C613   O673    1.293   .     A
C614   C618    1.404   .     A
C614   C637    1.409   .     A
C614   H651    1.082   .     S
C615   O677    1.282   .     A
C615   C619    1.367   .     S
C615   O674    1.283   .     A
C616   O675    1.282   .     A
C616   C620    1.367   .     S
C616   O676    1.283   .     A
C617   C640    1.404   .     A
C617   C638    1.404   .     A
C617   C754    1.519   1_545 S
C618   C639    1.404   .     A
C618   C753    1.519   .     S
C620   C75     1.166   1_556 S
C621   C626    1.398   .     A
C621   C632    1.416   .     A
C621   O663    1.386   .     S
C622   O664    1.384   .     S
C622   C633    1.415   .     A
C622   C627    1.385   .     A
C623   C628    1.400   .     A
C623   O665    1.386   .     S
C623   C633    1.414   .     A
C624   O670    1.291   .     A
C624   C631    1.438   .     S
C624   O672    1.293   .     A
C625   C629    1.399   .     A
C625   O666    1.386   .     S
C625   C632    1.414   .     A
C626   C630    1.401   .     A
C626   O667    1.385   .     S
C627   O668    1.384   .     S
C627   C631    1.410   .     A
C628   O669    1.385   .     S
C628   C631    1.405   .     A
C629   C630    1.406   .     A
C629   O671    1.386   .     S
C633   C564    1.450   1_655 S
C634   N657    1.381   .     A
C634   C638    1.409   .     A
C634   O678    1.373   .     S
C635   C639    1.409   .     A
C635   N658    1.381   .     A
C635   O660    1.372   .     S
C636   N657    1.381   .     A
C636   O661    1.373   .     S
C636   C640    1.409   .     A
C637   N658    1.381   .     A
C637   O662    1.372   .     S
C638   H641    1.082   .     S
C639   H649    1.082   .     S
C640   H650    1.082   .     S
H644   O666    0.988   .     S
H645   O667    0.989   .     S
H646   O668    0.989   .     S
H647   O669    0.989   .     S
H648   O671    0.989   .     S
H652   O678    0.983   .     S
H653   O660    0.982   .     S
H654   O661    0.983   .     S
H655   O662    0.982   .     S
H656   O595    0.989   1_655 S
N657   Zn680   2.024   .     S
N658   Zn679   2.024   .     S
O659   Zn679   1.992   .     S
O664   H574    0.989   1_655 S
O665   H575    0.988   1_655 S
O670   Zn680   1.992   .     S
O672   Zn679   1.991   .     S
O673   Zn680   1.991   .     S
O674   Zn679   1.951   .     S
O675   Zn680   1.951   .     S
O676   Zn679   1.950   .     S
O677   Zn680   1.950   .     S
C681   C698    1.444   .     S
C681   O727    1.294   .     A
C681   O741    1.293   .     A
C682   C686    1.404   .     A
C682   C705    1.409   .     A
C682   H719    1.082   .     S
C683   O745    1.282   .     A
C683   C687    1.367   .     S
C683   O742    1.283   .     A
C684   O743    1.282   .     A
C684   C688    1.367   .     S
C684   O744    1.283   .     A
C685   C708    1.404   .     A
C685   C706    1.404   .     A
C686   C707    1.404   .     A
C686   C549    1.519   1_565 S
C688   C143    1.166   1_556 S
C689   C694    1.398   .     A
C689   C700    1.416   .     A
C689   O731    1.386   .     S
C690   O732    1.384   .     S
C690   C701    1.415   .     A
C690   C695    1.385   .     A
C691   C696    1.400   .     A
C691   O733    1.386   .     S
C691   C701    1.414   .     A
C692   O738    1.291   .     A
C692   C699    1.438   .     S
C692   O740    1.293   .     A
C693   C697    1.399   .     A
C693   O734    1.386   .     S
C693   C700    1.414   .     A
C694   C698    1.401   .     A
C694   O735    1.385   .     S
C695   O736    1.384   .     S
C695   C699    1.410   .     A
C696   O737    1.385   .     S
C696   C699    1.405   .     A
C697   C698    1.406   .     A
C697   O739    1.386   .     S
C700   C769    1.450   1_455 S
C701   C768    1.450   .     S
C702   N725    1.381   .     A
C702   C706    1.409   .     A
C702   O746    1.373   .     S
C703   C707    1.409   .     A
C703   N726    1.381   .     A
C703   O728    1.372   .     S
C704   N725    1.381   .     A
C704   O729    1.373   .     S
C704   C708    1.409   .     A
C705   N726    1.381   .     A
C705   O730    1.372   .     S
C706   H709    1.082   .     S
C707   H717    1.082   .     S
C708   H718    1.082   .     S
H710   O800    0.989   1_455 S
H711   O801    0.988   1_455 S
H712   O734    0.988   .     S
H713   O735    0.989   .     S
H714   O736    0.989   .     S
H715   O737    0.989   .     S
H716   O739    0.989   .     S
H720   O746    0.983   .     S
H721   O728    0.982   .     S
H722   O729    0.983   .     S
H723   O730    0.982   .     S
H724   O799    0.989   .     S
N725   Zn748   2.024   .     S
N726   Zn747   2.024   .     S
O727   Zn747   1.992   .     S
O731   H792    0.989   1_455 S
O732   H778    0.989   .     S
O733   H779    0.988   .     S
O738   Zn748   1.992   .     S
O740   Zn747   1.991   .     S
O741   Zn748   1.991   .     S
O742   Zn747   1.951   .     S
O743   Zn748   1.951   .     S
O744   Zn747   1.950   .     S
O745   Zn748   1.950   .     S
C749   C766    1.444   .     S
C749   O795    1.294   .     A
C749   O809    1.293   .     A
C750   C754    1.404   .     A
C750   C773    1.409   .     A
C750   H787    1.082   .     S
C751   O813    1.282   .     A
C751   C755    1.367   .     S
C751   O810    1.283   .     A
C752   O811    1.282   .     A
C752   C756    1.367   .     S
C752   O812    1.283   .     A
C753   C776    1.404   .     A
C753   C774    1.404   .     A
C754   C775    1.404   .     A
C754   C617    1.519   1_565 S
C756   C211    1.166   1_556 S
C757   C762    1.398   .     A
C757   C768    1.416   .     A
C757   O799    1.386   .     S
C758   O800    1.384   .     S
C758   C769    1.415   .     A
C758   C763    1.385   .     A
C759   C764    1.400   .     A
C759   O801    1.386   .     S
C759   C769    1.414   .     A
C760   O806    1.291   .     A
C760   C767    1.438   .     S
C760   O808    1.293   .     A
C761   C765    1.399   .     A
C761   O802    1.386   .     S
C761   C768    1.414   .     A
C762   C766    1.401   .     A
C762   O803    1.385   .     S
C763   O804    1.384   .     S
C763   C767    1.410   .     A
C764   O805    1.385   .     S
C764   C767    1.405   .     A
C765   C766    1.406   .     A
C765   O807    1.386   .     S
C769   C700    1.450   1_655 S
C770   N793    1.381   .     A
C770   C774    1.409   .     A
C770   O814    1.373   .     S
C771   C775    1.409   .     A
C771   N794    1.381   .     A
C771   O796    1.372   .     S
C772   N793    1.381   .     A
C772   O797    1.373   .     S
C772   C776    1.409   .     A
C773   N794    1.381   .     A
C773   O798    1.372   .     S
C774   H777    1.082   .     S
C775   H785    1.082   .     S
C776   H786    1.082   .     S
H780   O802    0.988   .     S
H781   O803    0.989   .     S
H782   O804    0.989   .     S
H783   O805    0.989   .     S
H784   O807    0.989   .     S
H788   O814    0.983   .     S
H789   O796    0.982   .     S
H790   O797    0.983   .     S
H791   O798    0.982   .     S
H792   O731    0.989   1_655 S
N793   Zn816   2.024   .     S
N794   Zn815   2.024   .     S
O795   Zn815   1.992   .     S
O800   H710    0.989   1_655 S
O801   H711    0.988   1_655 S
O806   Zn816   1.992   .     S
O808   Zn815   1.991   .     S
O809   Zn816   1.991   .     S
O810   Zn815   1.951   .     S
O811   Zn816   1.951   .     S
O812   Zn815   1.950   .     S
O813   Zn816   1.950   .     S
