data_str_m3_o1_o16_pcu_sym.233
_audit_creation_date              2020-01-03
_audit_creation_method            'Materials Studio'
_symmetry_space_group_name_H-M    'P1'
_symmetry_Int_Tables_number       1
_symmetry_cell_setting            triclinic
loop_
_symmetry_equiv_pos_as_xyz
  x,y,z
_cell_length_a                    29.6732
_cell_length_b                    31.9487
_cell_length_c                    26.2741
_cell_angle_alpha                 90.7201
_cell_angle_beta                  70.1136
_cell_angle_gamma                 90.5580
loop_
_atom_site_label
_atom_site_type_symbol
_atom_site_fract_x
_atom_site_fract_y
_atom_site_fract_z
_atom_site_U_iso_or_equiv
_atom_site_adp_type
_atom_site_occupancy
C1     C     0.16673   0.24662   0.25046   0.00000  Uiso   1.00
C2     C     0.14553   0.16517   0.49134   0.00000  Uiso   1.00
C3     C     0.15270   0.15032   0.43846   0.00000  Uiso   1.00
C4     C     0.18153   0.15738   0.01410   0.00000  Uiso   1.00
C5     C     0.22034   0.13032   0.48725   0.00000  Uiso   1.00
C6     C     0.22352   0.11207   0.43782   0.00000  Uiso   1.00
C7     C     0.19002   0.12173   0.41379   0.00000  Uiso   1.00
C8     C     0.17966   0.17520   0.06338   0.00000  Uiso   1.00
C9     C     0.24867   0.13545   0.06322   0.00000  Uiso   1.00
C10    C     0.12283   0.16509   0.41094   0.00000  Uiso   1.00
C11    C     0.20909   0.31201   0.22315   0.00000  Uiso   1.00
C12    C     0.14002   0.16522   0.35201   0.00000  Uiso   1.00
C13    C     0.20885   0.02159   0.22272   0.00000  Uiso   1.00
C14    C     0.16649   0.04259   0.25087   0.00000  Uiso   1.00
C15    C     0.12466   0.02139   0.28039   0.00000  Uiso   1.00
C16    C     0.12471   0.31176   0.28023   0.00000  Uiso   1.00
C17    C     0.16687   0.29077   0.25137   0.00000  Uiso   1.00
C18    C     0.31676   0.13654   0.22275   0.00000  Uiso   1.00
C19    C     0.03117   0.13621   0.22259   0.00000  Uiso   1.00
C20    C     0.01600   0.19681   0.27754   0.00000  Uiso   1.00
C21    C     0.30148   0.19678   0.27755   0.00000  Uiso   1.00
C22    C     0.16650   0.08672   0.25018   0.00000  Uiso   1.00
C23    C     0.19334   0.16665   0.14802   0.00000  Uiso   1.00
C24    C     0.25452   0.12069   0.01130   0.00000  Uiso   1.00
C25    C     0.20989   0.16138   0.08981   0.00000  Uiso   1.00
C26    C     0.08042   0.18631   0.43923   0.00000  Uiso   1.00
C27    C     0.06971   0.19595   0.49368   0.00000  Uiso   1.00
C28    C     0.10246   0.18682   0.01928   0.00000  Uiso   1.00
H29    H     0.27244   0.12460   0.08368   0.00000  Uiso   1.00
H30    H     0.24128   0.03832   0.20001   0.00000  Uiso   1.00
H31    H     0.09230   0.03802   0.30323   0.00000  Uiso   1.00
H32    H     0.09224   0.29498   0.30271   0.00000  Uiso   1.00
H33    H     0.30446   0.11260   0.20091   0.00000  Uiso   1.00
H34    H     0.02761   0.22095   0.29964   0.00000  Uiso   1.00
H35    H     0.27709   0.22092   0.29968   0.00000  Uiso   1.00
H36    H     0.25204   0.09038   0.41757   0.00000  Uiso   1.00
H37    H     0.28405   0.09990   0.49130   0.00000  Uiso   1.00
H38    H     0.15276   0.19782   0.08422   0.00000  Uiso   1.00
H39    H     0.05670   0.19712   0.41870   0.00000  Uiso   1.00
H40    H     0.09247   0.19632   0.06112   0.00000  Uiso   1.00
H41    H     0.03696   0.21239   0.01550   0.00000  Uiso   1.00
H42    H     0.19329   0.10618   0.37588   0.00000  Uiso   1.00
H43    H     0.24165   0.29546   0.20073   0.00000  Uiso   1.00
N44    N     0.04760   0.16668   0.25002   0.00000  Uiso   1.00
N45    N     0.28573   0.16665   0.25000   0.00000  Uiso   1.00
O46    O     0.12846   0.22775   0.25000   0.00000  Uiso   1.00
O47    O     0.20490   0.22774   0.25000   0.00000  Uiso   1.00
O48    O     0.10947   0.16666   0.32681   0.00000  Uiso   1.00
O49    O     0.18591   0.16665   0.32681   0.00000  Uiso   1.00
O50    O     0.12843   0.10559   0.24999   0.00000  Uiso   1.00
O51    O     0.20488   0.10558   0.24999   0.00000  Uiso   1.00
O52    O     0.14742   0.16668   0.17319   0.00000  Uiso   1.00
O53    O     0.22387   0.16667   0.17319   0.00000  Uiso   1.00
Zn54   Zn    0.11562   0.16667   0.25000   0.00000  Uiso   1.00
Zn55   Zn    0.21771   0.16666   0.25000   0.00000  Uiso   1.00
C56    C     0.06167   0.10195   0.19205   0.00000  Uiso   1.00
C57    C     0.09017   0.10758   0.13778   0.00000  Uiso   1.00
C58    C     0.11565   0.07400   0.10695   0.00000  Uiso   1.00
C59    C     0.11124   0.03418   0.12956   0.00000  Uiso   1.00
C60    C     0.08085   0.02783   0.18271   0.00000  Uiso   1.00
C61    C     0.05594   0.06154   0.21386   0.00000  Uiso   1.00
H62    H     0.09193   0.13782   0.11930   0.00000  Uiso   1.00
H63    H     0.13808   0.07865   0.06528   0.00000  Uiso   1.00
H64    H     0.13065   0.00811   0.10559   0.00000  Uiso   1.00
H65    H     0.07646   0.33009   0.19972   0.00000  Uiso   1.00
H66    H     0.03196   0.05617   0.25478   0.00000  Uiso   1.00
C67    C     0.50006   0.24662   0.25046   0.00000  Uiso   1.00
C68    C     0.47886   0.16517   0.49134   0.00000  Uiso   1.00
C69    C     0.48603   0.15032   0.43846   0.00000  Uiso   1.00
C70    C     0.51486   0.15738   0.01410   0.00000  Uiso   1.00
C71    C     0.55367   0.13032   0.48725   0.00000  Uiso   1.00
C72    C     0.55685   0.11207   0.43782   0.00000  Uiso   1.00
C73    C     0.52335   0.12173   0.41379   0.00000  Uiso   1.00
C74    C     0.51300   0.17520   0.06338   0.00000  Uiso   1.00
C75    C     0.58200   0.13545   0.06322   0.00000  Uiso   1.00
C76    C     0.45616   0.16509   0.41094   0.00000  Uiso   1.00
C77    C     0.54242   0.31201   0.22315   0.00000  Uiso   1.00
C78    C     0.47336   0.16522   0.35201   0.00000  Uiso   1.00
C79    C     0.54218   0.02159   0.22272   0.00000  Uiso   1.00
C80    C     0.49982   0.04259   0.25087   0.00000  Uiso   1.00
C81    C     0.45800   0.02139   0.28039   0.00000  Uiso   1.00
C82    C     0.45804   0.31176   0.28023   0.00000  Uiso   1.00
C83    C     0.50020   0.29077   0.25137   0.00000  Uiso   1.00
C84    C     0.65009   0.13654   0.22275   0.00000  Uiso   1.00
C85    C     0.36451   0.13621   0.22259   0.00000  Uiso   1.00
C86    C     0.34933   0.19681   0.27754   0.00000  Uiso   1.00
C87    C     0.63482   0.19678   0.27755   0.00000  Uiso   1.00
C88    C     0.49983   0.08672   0.25018   0.00000  Uiso   1.00
C89    C     0.52668   0.16665   0.14802   0.00000  Uiso   1.00
C90    C     0.58785   0.12069   0.01130   0.00000  Uiso   1.00
C91    C     0.54323   0.16138   0.08981   0.00000  Uiso   1.00
C92    C     0.41376   0.18631   0.43923   0.00000  Uiso   1.00
C93    C     0.40304   0.19595   0.49368   0.00000  Uiso   1.00
C94    C     0.43579   0.18682   0.01928   0.00000  Uiso   1.00
H95    H     0.60577   0.12460   0.08368   0.00000  Uiso   1.00
H96    H     0.57462   0.03832   0.20001   0.00000  Uiso   1.00
H97    H     0.42563   0.03802   0.30323   0.00000  Uiso   1.00
H98    H     0.42557   0.29498   0.30271   0.00000  Uiso   1.00
H99    H     0.63779   0.11260   0.20091   0.00000  Uiso   1.00
H100   H     0.36094   0.22095   0.29964   0.00000  Uiso   1.00
H101   H     0.61042   0.22092   0.29968   0.00000  Uiso   1.00
H102   H     0.58537   0.09038   0.41757   0.00000  Uiso   1.00
H103   H     0.61738   0.09990   0.49130   0.00000  Uiso   1.00
H104   H     0.48609   0.19782   0.08422   0.00000  Uiso   1.00
H105   H     0.39003   0.19712   0.41870   0.00000  Uiso   1.00
H106   H     0.42580   0.19632   0.06112   0.00000  Uiso   1.00
H107   H     0.37029   0.21239   0.01550   0.00000  Uiso   1.00
H108   H     0.52662   0.10618   0.37588   0.00000  Uiso   1.00
H109   H     0.57498   0.29546   0.20073   0.00000  Uiso   1.00
N110   N     0.38093   0.16668   0.25002   0.00000  Uiso   1.00
N111   N     0.61906   0.16665   0.25000   0.00000  Uiso   1.00
O112   O     0.46179   0.22775   0.25000   0.00000  Uiso   1.00
O113   O     0.53823   0.22774   0.25000   0.00000  Uiso   1.00
O114   O     0.44280   0.16666   0.32681   0.00000  Uiso   1.00
O115   O     0.51924   0.16665   0.32681   0.00000  Uiso   1.00
O116   O     0.46177   0.10559   0.24999   0.00000  Uiso   1.00
O117   O     0.53821   0.10558   0.24999   0.00000  Uiso   1.00
O118   O     0.48076   0.16668   0.17319   0.00000  Uiso   1.00
O119   O     0.55720   0.16667   0.17319   0.00000  Uiso   1.00
Zn120  Zn    0.44896   0.16667   0.25000   0.00000  Uiso   1.00
Zn121  Zn    0.55104   0.16666   0.25000   0.00000  Uiso   1.00
C122   C     0.39501   0.10195   0.19205   0.00000  Uiso   1.00
C123   C     0.42350   0.10758   0.13778   0.00000  Uiso   1.00
C124   C     0.44898   0.07400   0.10695   0.00000  Uiso   1.00
C125   C     0.44457   0.03418   0.12956   0.00000  Uiso   1.00
C126   C     0.41418   0.02783   0.18271   0.00000  Uiso   1.00
C127   C     0.38927   0.06154   0.21386   0.00000  Uiso   1.00
H128   H     0.42526   0.13782   0.11930   0.00000  Uiso   1.00
H129   H     0.47141   0.07865   0.06528   0.00000  Uiso   1.00
H130   H     0.46398   0.00811   0.10559   0.00000  Uiso   1.00
H131   H     0.40979   0.33009   0.19972   0.00000  Uiso   1.00
H132   H     0.36529   0.05617   0.25478   0.00000  Uiso   1.00
C133   C     0.83340   0.24662   0.25046   0.00000  Uiso   1.00
C134   C     0.81220   0.16517   0.49134   0.00000  Uiso   1.00
C135   C     0.81937   0.15032   0.43846   0.00000  Uiso   1.00
C136   C     0.84820   0.15738   0.01410   0.00000  Uiso   1.00
C137   C     0.88700   0.13032   0.48725   0.00000  Uiso   1.00
C138   C     0.89018   0.11207   0.43782   0.00000  Uiso   1.00
C139   C     0.85669   0.12173   0.41379   0.00000  Uiso   1.00
C140   C     0.84633   0.17520   0.06338   0.00000  Uiso   1.00
C141   C     0.91534   0.13545   0.06322   0.00000  Uiso   1.00
C142   C     0.78949   0.16509   0.41094   0.00000  Uiso   1.00
C143   C     0.87575   0.31201   0.22315   0.00000  Uiso   1.00
C144   C     0.80669   0.16522   0.35201   0.00000  Uiso   1.00
C145   C     0.87551   0.02159   0.22272   0.00000  Uiso   1.00
C146   C     0.83315   0.04259   0.25087   0.00000  Uiso   1.00
C147   C     0.79133   0.02139   0.28039   0.00000  Uiso   1.00
C148   C     0.79137   0.31176   0.28023   0.00000  Uiso   1.00
C149   C     0.83353   0.29077   0.25137   0.00000  Uiso   1.00
C150   C     0.98342   0.13654   0.22275   0.00000  Uiso   1.00
C151   C     0.69784   0.13621   0.22259   0.00000  Uiso   1.00
C152   C     0.68267   0.19681   0.27754   0.00000  Uiso   1.00
C153   C     0.96815   0.19678   0.27755   0.00000  Uiso   1.00
C154   C     0.83316   0.08672   0.25018   0.00000  Uiso   1.00
C155   C     0.86001   0.16665   0.14802   0.00000  Uiso   1.00
C156   C     0.92119   0.12069   0.01130   0.00000  Uiso   1.00
C157   C     0.87656   0.16138   0.08981   0.00000  Uiso   1.00
C158   C     0.74709   0.18631   0.43923   0.00000  Uiso   1.00
C159   C     0.73637   0.19595   0.49368   0.00000  Uiso   1.00
C160   C     0.76912   0.18682   0.01928   0.00000  Uiso   1.00
H161   H     0.93911   0.12460   0.08368   0.00000  Uiso   1.00
H162   H     0.90795   0.03832   0.20001   0.00000  Uiso   1.00
H163   H     0.75897   0.03802   0.30323   0.00000  Uiso   1.00
H164   H     0.75891   0.29498   0.30271   0.00000  Uiso   1.00
H165   H     0.97113   0.11260   0.20091   0.00000  Uiso   1.00
H166   H     0.69428   0.22095   0.29964   0.00000  Uiso   1.00
H167   H     0.94375   0.22092   0.29968   0.00000  Uiso   1.00
H168   H     0.91870   0.09038   0.41757   0.00000  Uiso   1.00
H169   H     0.95071   0.09990   0.49130   0.00000  Uiso   1.00
H170   H     0.81943   0.19782   0.08422   0.00000  Uiso   1.00
H171   H     0.72336   0.19712   0.41870   0.00000  Uiso   1.00
H172   H     0.75913   0.19632   0.06112   0.00000  Uiso   1.00
H173   H     0.70363   0.21239   0.01550   0.00000  Uiso   1.00
H174   H     0.85996   0.10618   0.37588   0.00000  Uiso   1.00
H175   H     0.90832   0.29546   0.20073   0.00000  Uiso   1.00
N176   N     0.71426   0.16668   0.25002   0.00000  Uiso   1.00
N177   N     0.95239   0.16665   0.25000   0.00000  Uiso   1.00
O178   O     0.79512   0.22775   0.25000   0.00000  Uiso   1.00
O179   O     0.87157   0.22774   0.25000   0.00000  Uiso   1.00
O180   O     0.77613   0.16666   0.32681   0.00000  Uiso   1.00
O181   O     0.85258   0.16665   0.32681   0.00000  Uiso   1.00
O182   O     0.79510   0.10559   0.24999   0.00000  Uiso   1.00
O183   O     0.87154   0.10558   0.24999   0.00000  Uiso   1.00
O184   O     0.81409   0.16668   0.17319   0.00000  Uiso   1.00
O185   O     0.89053   0.16667   0.17319   0.00000  Uiso   1.00
Zn186  Zn    0.78229   0.16667   0.25000   0.00000  Uiso   1.00
Zn187  Zn    0.88438   0.16666   0.25000   0.00000  Uiso   1.00
C188   C     0.72834   0.10195   0.19205   0.00000  Uiso   1.00
C189   C     0.75683   0.10758   0.13778   0.00000  Uiso   1.00
C190   C     0.78231   0.07400   0.10695   0.00000  Uiso   1.00
C191   C     0.77791   0.03418   0.12956   0.00000  Uiso   1.00
C192   C     0.74751   0.02783   0.18271   0.00000  Uiso   1.00
C193   C     0.72260   0.06154   0.21386   0.00000  Uiso   1.00
H194   H     0.75860   0.13782   0.11930   0.00000  Uiso   1.00
H195   H     0.80475   0.07865   0.06528   0.00000  Uiso   1.00
H196   H     0.79732   0.00811   0.10559   0.00000  Uiso   1.00
H197   H     0.74313   0.33009   0.19972   0.00000  Uiso   1.00
H198   H     0.69863   0.05617   0.25478   0.00000  Uiso   1.00
C199   C     0.16673   0.57995   0.25046   0.00000  Uiso   1.00
C200   C     0.14553   0.49850   0.49134   0.00000  Uiso   1.00
C201   C     0.15270   0.48365   0.43846   0.00000  Uiso   1.00
C202   C     0.18153   0.49071   0.01410   0.00000  Uiso   1.00
C203   C     0.22034   0.46366   0.48725   0.00000  Uiso   1.00
C204   C     0.22352   0.44540   0.43782   0.00000  Uiso   1.00
C205   C     0.19002   0.45507   0.41379   0.00000  Uiso   1.00
C206   C     0.17966   0.50853   0.06338   0.00000  Uiso   1.00
C207   C     0.24867   0.46878   0.06322   0.00000  Uiso   1.00
C208   C     0.12283   0.49843   0.41094   0.00000  Uiso   1.00
C209   C     0.20909   0.64535   0.22315   0.00000  Uiso   1.00
C210   C     0.14002   0.49855   0.35201   0.00000  Uiso   1.00
C211   C     0.20885   0.35492   0.22272   0.00000  Uiso   1.00
C212   C     0.16649   0.37592   0.25087   0.00000  Uiso   1.00
C213   C     0.12466   0.35473   0.28039   0.00000  Uiso   1.00
C214   C     0.12471   0.64509   0.28023   0.00000  Uiso   1.00
C215   C     0.16687   0.62410   0.25137   0.00000  Uiso   1.00
C216   C     0.31676   0.46987   0.22275   0.00000  Uiso   1.00
C217   C     0.03117   0.46954   0.22259   0.00000  Uiso   1.00
C218   C     0.01600   0.53015   0.27754   0.00000  Uiso   1.00
C219   C     0.30148   0.53011   0.27755   0.00000  Uiso   1.00
C220   C     0.16650   0.42006   0.25018   0.00000  Uiso   1.00
C221   C     0.19334   0.49998   0.14802   0.00000  Uiso   1.00
C222   C     0.25452   0.45403   0.01130   0.00000  Uiso   1.00
C223   C     0.20989   0.49472   0.08981   0.00000  Uiso   1.00
C224   C     0.08042   0.51964   0.43923   0.00000  Uiso   1.00
C225   C     0.06971   0.52928   0.49368   0.00000  Uiso   1.00
C226   C     0.10246   0.52015   0.01928   0.00000  Uiso   1.00
H227   H     0.27244   0.45794   0.08368   0.00000  Uiso   1.00
H228   H     0.24128   0.37166   0.20001   0.00000  Uiso   1.00
H229   H     0.09230   0.37135   0.30323   0.00000  Uiso   1.00
H230   H     0.09224   0.62831   0.30271   0.00000  Uiso   1.00
H231   H     0.30446   0.44593   0.20091   0.00000  Uiso   1.00
H232   H     0.02761   0.55429   0.29964   0.00000  Uiso   1.00
H233   H     0.27709   0.55425   0.29968   0.00000  Uiso   1.00
H234   H     0.25204   0.42372   0.41757   0.00000  Uiso   1.00
H235   H     0.28405   0.43323   0.49130   0.00000  Uiso   1.00
H236   H     0.15276   0.53115   0.08422   0.00000  Uiso   1.00
H237   H     0.05670   0.53045   0.41870   0.00000  Uiso   1.00
H238   H     0.09247   0.52965   0.06112   0.00000  Uiso   1.00
H239   H     0.03696   0.54573   0.01550   0.00000  Uiso   1.00
H240   H     0.19329   0.43951   0.37588   0.00000  Uiso   1.00
H241   H     0.24165   0.62879   0.20073   0.00000  Uiso   1.00
N242   N     0.04760   0.50001   0.25002   0.00000  Uiso   1.00
N243   N     0.28573   0.49998   0.25000   0.00000  Uiso   1.00
O244   O     0.12846   0.56108   0.25000   0.00000  Uiso   1.00
O245   O     0.20490   0.56107   0.25000   0.00000  Uiso   1.00
O246   O     0.10947   0.50000   0.32681   0.00000  Uiso   1.00
O247   O     0.18591   0.49999   0.32681   0.00000  Uiso   1.00
O248   O     0.12843   0.43893   0.24999   0.00000  Uiso   1.00
O249   O     0.20488   0.43892   0.24999   0.00000  Uiso   1.00
O250   O     0.14742   0.50001   0.17319   0.00000  Uiso   1.00
O251   O     0.22387   0.50000   0.17319   0.00000  Uiso   1.00
Zn252  Zn    0.11562   0.50001   0.25000   0.00000  Uiso   1.00
Zn253  Zn    0.21771   0.49999   0.25000   0.00000  Uiso   1.00
C254   C     0.06167   0.43528   0.19205   0.00000  Uiso   1.00
C255   C     0.09017   0.44091   0.13778   0.00000  Uiso   1.00
C256   C     0.11565   0.40734   0.10695   0.00000  Uiso   1.00
C257   C     0.11124   0.36751   0.12956   0.00000  Uiso   1.00
C258   C     0.08085   0.36117   0.18271   0.00000  Uiso   1.00
C259   C     0.05594   0.39488   0.21386   0.00000  Uiso   1.00
H260   H     0.09193   0.47115   0.11930   0.00000  Uiso   1.00
H261   H     0.13808   0.41198   0.06528   0.00000  Uiso   1.00
H262   H     0.13065   0.34145   0.10559   0.00000  Uiso   1.00
H263   H     0.07646   0.66343   0.19972   0.00000  Uiso   1.00
H264   H     0.03196   0.38950   0.25478   0.00000  Uiso   1.00
C265   C     0.50006   0.57995   0.25046   0.00000  Uiso   1.00
C266   C     0.47886   0.49850   0.49134   0.00000  Uiso   1.00
C267   C     0.48603   0.48365   0.43846   0.00000  Uiso   1.00
C268   C     0.51486   0.49071   0.01410   0.00000  Uiso   1.00
C269   C     0.55367   0.46366   0.48725   0.00000  Uiso   1.00
C270   C     0.55685   0.44540   0.43782   0.00000  Uiso   1.00
C271   C     0.52335   0.45507   0.41379   0.00000  Uiso   1.00
C272   C     0.51300   0.50853   0.06338   0.00000  Uiso   1.00
C273   C     0.58200   0.46878   0.06322   0.00000  Uiso   1.00
C274   C     0.45616   0.49843   0.41094   0.00000  Uiso   1.00
C275   C     0.54242   0.64535   0.22315   0.00000  Uiso   1.00
C276   C     0.47336   0.49855   0.35201   0.00000  Uiso   1.00
C277   C     0.54218   0.35492   0.22272   0.00000  Uiso   1.00
C278   C     0.49982   0.37592   0.25087   0.00000  Uiso   1.00
C279   C     0.45800   0.35473   0.28039   0.00000  Uiso   1.00
C280   C     0.45804   0.64509   0.28023   0.00000  Uiso   1.00
C281   C     0.50020   0.62410   0.25137   0.00000  Uiso   1.00
C282   C     0.65009   0.46987   0.22275   0.00000  Uiso   1.00
C283   C     0.36451   0.46954   0.22259   0.00000  Uiso   1.00
C284   C     0.34933   0.53015   0.27754   0.00000  Uiso   1.00
C285   C     0.63482   0.53011   0.27755   0.00000  Uiso   1.00
C286   C     0.49983   0.42006   0.25018   0.00000  Uiso   1.00
C287   C     0.52668   0.49998   0.14802   0.00000  Uiso   1.00
C288   C     0.58785   0.45403   0.01130   0.00000  Uiso   1.00
C289   C     0.54323   0.49472   0.08981   0.00000  Uiso   1.00
C290   C     0.41376   0.51964   0.43923   0.00000  Uiso   1.00
C291   C     0.40304   0.52928   0.49368   0.00000  Uiso   1.00
C292   C     0.43579   0.52015   0.01928   0.00000  Uiso   1.00
H293   H     0.60577   0.45794   0.08368   0.00000  Uiso   1.00
H294   H     0.57462   0.37166   0.20001   0.00000  Uiso   1.00
H295   H     0.42563   0.37135   0.30323   0.00000  Uiso   1.00
H296   H     0.42557   0.62831   0.30271   0.00000  Uiso   1.00
H297   H     0.63779   0.44593   0.20091   0.00000  Uiso   1.00
H298   H     0.36094   0.55429   0.29964   0.00000  Uiso   1.00
H299   H     0.61042   0.55425   0.29968   0.00000  Uiso   1.00
H300   H     0.58537   0.42372   0.41757   0.00000  Uiso   1.00
H301   H     0.61738   0.43323   0.49130   0.00000  Uiso   1.00
H302   H     0.48609   0.53115   0.08422   0.00000  Uiso   1.00
H303   H     0.39003   0.53045   0.41870   0.00000  Uiso   1.00
H304   H     0.42580   0.52965   0.06112   0.00000  Uiso   1.00
H305   H     0.37029   0.54573   0.01550   0.00000  Uiso   1.00
H306   H     0.52662   0.43951   0.37588   0.00000  Uiso   1.00
H307   H     0.57498   0.62879   0.20073   0.00000  Uiso   1.00
N308   N     0.38093   0.50001   0.25002   0.00000  Uiso   1.00
N309   N     0.61906   0.49998   0.25000   0.00000  Uiso   1.00
O310   O     0.46179   0.56108   0.25000   0.00000  Uiso   1.00
O311   O     0.53823   0.56107   0.25000   0.00000  Uiso   1.00
O312   O     0.44280   0.50000   0.32681   0.00000  Uiso   1.00
O313   O     0.51924   0.49999   0.32681   0.00000  Uiso   1.00
O314   O     0.46177   0.43893   0.24999   0.00000  Uiso   1.00
O315   O     0.53821   0.43892   0.24999   0.00000  Uiso   1.00
O316   O     0.48076   0.50001   0.17319   0.00000  Uiso   1.00
O317   O     0.55720   0.50000   0.17319   0.00000  Uiso   1.00
Zn318  Zn    0.44896   0.50001   0.25000   0.00000  Uiso   1.00
Zn319  Zn    0.55104   0.49999   0.25000   0.00000  Uiso   1.00
C320   C     0.39501   0.43528   0.19205   0.00000  Uiso   1.00
C321   C     0.42350   0.44091   0.13778   0.00000  Uiso   1.00
C322   C     0.44898   0.40734   0.10695   0.00000  Uiso   1.00
C323   C     0.44457   0.36751   0.12956   0.00000  Uiso   1.00
C324   C     0.41418   0.36117   0.18271   0.00000  Uiso   1.00
C325   C     0.38927   0.39488   0.21386   0.00000  Uiso   1.00
H326   H     0.42526   0.47115   0.11930   0.00000  Uiso   1.00
H327   H     0.47141   0.41198   0.06528   0.00000  Uiso   1.00
H328   H     0.46398   0.34145   0.10559   0.00000  Uiso   1.00
H329   H     0.40979   0.66343   0.19972   0.00000  Uiso   1.00
H330   H     0.36529   0.38950   0.25478   0.00000  Uiso   1.00
C331   C     0.83340   0.57995   0.25046   0.00000  Uiso   1.00
C332   C     0.81220   0.49850   0.49134   0.00000  Uiso   1.00
C333   C     0.81937   0.48365   0.43846   0.00000  Uiso   1.00
C334   C     0.84820   0.49071   0.01410   0.00000  Uiso   1.00
C335   C     0.88700   0.46366   0.48725   0.00000  Uiso   1.00
C336   C     0.89018   0.44540   0.43782   0.00000  Uiso   1.00
C337   C     0.85669   0.45507   0.41379   0.00000  Uiso   1.00
C338   C     0.84633   0.50853   0.06338   0.00000  Uiso   1.00
C339   C     0.91534   0.46878   0.06322   0.00000  Uiso   1.00
C340   C     0.78949   0.49843   0.41094   0.00000  Uiso   1.00
C341   C     0.87575   0.64535   0.22315   0.00000  Uiso   1.00
C342   C     0.80669   0.49855   0.35201   0.00000  Uiso   1.00
C343   C     0.87551   0.35492   0.22272   0.00000  Uiso   1.00
C344   C     0.83315   0.37592   0.25087   0.00000  Uiso   1.00
C345   C     0.79133   0.35473   0.28039   0.00000  Uiso   1.00
C346   C     0.79137   0.64509   0.28023   0.00000  Uiso   1.00
C347   C     0.83353   0.62410   0.25137   0.00000  Uiso   1.00
C348   C     0.98342   0.46987   0.22275   0.00000  Uiso   1.00
C349   C     0.69784   0.46954   0.22259   0.00000  Uiso   1.00
C350   C     0.68267   0.53015   0.27754   0.00000  Uiso   1.00
C351   C     0.96815   0.53011   0.27755   0.00000  Uiso   1.00
C352   C     0.83316   0.42006   0.25018   0.00000  Uiso   1.00
C353   C     0.86001   0.49998   0.14802   0.00000  Uiso   1.00
C354   C     0.92119   0.45403   0.01130   0.00000  Uiso   1.00
C355   C     0.87656   0.49472   0.08981   0.00000  Uiso   1.00
C356   C     0.74709   0.51964   0.43923   0.00000  Uiso   1.00
C357   C     0.73637   0.52928   0.49368   0.00000  Uiso   1.00
C358   C     0.76912   0.52015   0.01928   0.00000  Uiso   1.00
H359   H     0.93911   0.45794   0.08368   0.00000  Uiso   1.00
H360   H     0.90795   0.37166   0.20001   0.00000  Uiso   1.00
H361   H     0.75897   0.37135   0.30323   0.00000  Uiso   1.00
H362   H     0.75891   0.62831   0.30271   0.00000  Uiso   1.00
H363   H     0.97113   0.44593   0.20091   0.00000  Uiso   1.00
H364   H     0.69428   0.55429   0.29964   0.00000  Uiso   1.00
H365   H     0.94375   0.55425   0.29968   0.00000  Uiso   1.00
H366   H     0.91870   0.42372   0.41757   0.00000  Uiso   1.00
H367   H     0.95071   0.43323   0.49130   0.00000  Uiso   1.00
H368   H     0.81943   0.53115   0.08422   0.00000  Uiso   1.00
H369   H     0.72336   0.53045   0.41870   0.00000  Uiso   1.00
H370   H     0.75913   0.52965   0.06112   0.00000  Uiso   1.00
H371   H     0.70363   0.54573   0.01550   0.00000  Uiso   1.00
H372   H     0.85996   0.43951   0.37588   0.00000  Uiso   1.00
H373   H     0.90832   0.62879   0.20073   0.00000  Uiso   1.00
N374   N     0.71426   0.50001   0.25002   0.00000  Uiso   1.00
N375   N     0.95239   0.49998   0.25000   0.00000  Uiso   1.00
O376   O     0.79512   0.56108   0.25000   0.00000  Uiso   1.00
O377   O     0.87157   0.56107   0.25000   0.00000  Uiso   1.00
O378   O     0.77613   0.50000   0.32681   0.00000  Uiso   1.00
O379   O     0.85258   0.49999   0.32681   0.00000  Uiso   1.00
O380   O     0.79510   0.43893   0.24999   0.00000  Uiso   1.00
O381   O     0.87154   0.43892   0.24999   0.00000  Uiso   1.00
O382   O     0.81409   0.50001   0.17319   0.00000  Uiso   1.00
O383   O     0.89053   0.50000   0.17319   0.00000  Uiso   1.00
Zn384  Zn    0.78229   0.50001   0.25000   0.00000  Uiso   1.00
Zn385  Zn    0.88438   0.49999   0.25000   0.00000  Uiso   1.00
C386   C     0.72834   0.43528   0.19205   0.00000  Uiso   1.00
C387   C     0.75683   0.44091   0.13778   0.00000  Uiso   1.00
C388   C     0.78231   0.40734   0.10695   0.00000  Uiso   1.00
C389   C     0.77791   0.36751   0.12956   0.00000  Uiso   1.00
C390   C     0.74751   0.36117   0.18271   0.00000  Uiso   1.00
C391   C     0.72260   0.39488   0.21386   0.00000  Uiso   1.00
H392   H     0.75860   0.47115   0.11930   0.00000  Uiso   1.00
H393   H     0.80475   0.41198   0.06528   0.00000  Uiso   1.00
H394   H     0.79732   0.34145   0.10559   0.00000  Uiso   1.00
H395   H     0.74313   0.66343   0.19972   0.00000  Uiso   1.00
H396   H     0.69863   0.38950   0.25478   0.00000  Uiso   1.00
C397   C     0.16673   0.91328   0.25046   0.00000  Uiso   1.00
C398   C     0.14553   0.83184   0.49134   0.00000  Uiso   1.00
C399   C     0.15270   0.81699   0.43846   0.00000  Uiso   1.00
C400   C     0.18153   0.82404   0.01410   0.00000  Uiso   1.00
C401   C     0.22034   0.79699   0.48725   0.00000  Uiso   1.00
C402   C     0.22352   0.77874   0.43782   0.00000  Uiso   1.00
C403   C     0.19002   0.78840   0.41379   0.00000  Uiso   1.00
C404   C     0.17966   0.84187   0.06338   0.00000  Uiso   1.00
C405   C     0.24867   0.80212   0.06322   0.00000  Uiso   1.00
C406   C     0.12283   0.83176   0.41094   0.00000  Uiso   1.00
C407   C     0.20909   0.97868   0.22315   0.00000  Uiso   1.00
C408   C     0.14002   0.83189   0.35201   0.00000  Uiso   1.00
C409   C     0.20885   0.68826   0.22272   0.00000  Uiso   1.00
C410   C     0.16649   0.70926   0.25087   0.00000  Uiso   1.00
C411   C     0.12466   0.68806   0.28039   0.00000  Uiso   1.00
C412   C     0.12471   0.97843   0.28023   0.00000  Uiso   1.00
C413   C     0.16687   0.95744   0.25137   0.00000  Uiso   1.00
C414   C     0.31676   0.80320   0.22275   0.00000  Uiso   1.00
C415   C     0.03117   0.80288   0.22259   0.00000  Uiso   1.00
C416   C     0.01600   0.86348   0.27754   0.00000  Uiso   1.00
C417   C     0.30148   0.86344   0.27755   0.00000  Uiso   1.00
C418   C     0.16650   0.75339   0.25018   0.00000  Uiso   1.00
C419   C     0.19334   0.83332   0.14802   0.00000  Uiso   1.00
C420   C     0.25452   0.78736   0.01130   0.00000  Uiso   1.00
C421   C     0.20989   0.82805   0.08981   0.00000  Uiso   1.00
C422   C     0.08042   0.85297   0.43923   0.00000  Uiso   1.00
C423   C     0.06971   0.86262   0.49368   0.00000  Uiso   1.00
C424   C     0.10246   0.85348   0.01928   0.00000  Uiso   1.00
H425   H     0.27244   0.79127   0.08368   0.00000  Uiso   1.00
H426   H     0.24128   0.70499   0.20001   0.00000  Uiso   1.00
H427   H     0.09230   0.70468   0.30323   0.00000  Uiso   1.00
H428   H     0.09224   0.96164   0.30271   0.00000  Uiso   1.00
H429   H     0.30446   0.77926   0.20091   0.00000  Uiso   1.00
H430   H     0.02761   0.88762   0.29964   0.00000  Uiso   1.00
H431   H     0.27709   0.88758   0.29968   0.00000  Uiso   1.00
H432   H     0.25204   0.75705   0.41757   0.00000  Uiso   1.00
H433   H     0.28405   0.76657   0.49130   0.00000  Uiso   1.00
H434   H     0.15276   0.86448   0.08422   0.00000  Uiso   1.00
H435   H     0.05670   0.86379   0.41870   0.00000  Uiso   1.00
H436   H     0.09247   0.86298   0.06112   0.00000  Uiso   1.00
H437   H     0.03696   0.87906   0.01550   0.00000  Uiso   1.00
H438   H     0.19329   0.77284   0.37588   0.00000  Uiso   1.00
H439   H     0.24165   0.96213   0.20073   0.00000  Uiso   1.00
N440   N     0.04760   0.83334   0.25002   0.00000  Uiso   1.00
N441   N     0.28573   0.83331   0.25000   0.00000  Uiso   1.00
O442   O     0.12846   0.89442   0.25000   0.00000  Uiso   1.00
O443   O     0.20490   0.89441   0.25000   0.00000  Uiso   1.00
O444   O     0.10947   0.83333   0.32681   0.00000  Uiso   1.00
O445   O     0.18591   0.83332   0.32681   0.00000  Uiso   1.00
O446   O     0.12843   0.77226   0.24999   0.00000  Uiso   1.00
O447   O     0.20488   0.77225   0.24999   0.00000  Uiso   1.00
O448   O     0.14742   0.83335   0.17319   0.00000  Uiso   1.00
O449   O     0.22387   0.83334   0.17319   0.00000  Uiso   1.00
Zn450  Zn    0.11562   0.83334   0.25000   0.00000  Uiso   1.00
Zn451  Zn    0.21771   0.83333   0.25000   0.00000  Uiso   1.00
C452   C     0.06167   0.76861   0.19205   0.00000  Uiso   1.00
C453   C     0.09017   0.77424   0.13778   0.00000  Uiso   1.00
C454   C     0.11565   0.74067   0.10695   0.00000  Uiso   1.00
C455   C     0.11124   0.70085   0.12956   0.00000  Uiso   1.00
C456   C     0.08085   0.69450   0.18271   0.00000  Uiso   1.00
C457   C     0.05594   0.72821   0.21386   0.00000  Uiso   1.00
H458   H     0.09193   0.80449   0.11930   0.00000  Uiso   1.00
H459   H     0.13808   0.74531   0.06528   0.00000  Uiso   1.00
H460   H     0.13065   0.67478   0.10559   0.00000  Uiso   1.00
H461   H     0.07646   0.99676   0.19972   0.00000  Uiso   1.00
H462   H     0.03196   0.72283   0.25478   0.00000  Uiso   1.00
C463   C     0.50006   0.91328   0.25046   0.00000  Uiso   1.00
C464   C     0.47886   0.83184   0.49134   0.00000  Uiso   1.00
C465   C     0.48603   0.81699   0.43846   0.00000  Uiso   1.00
C466   C     0.51486   0.82404   0.01410   0.00000  Uiso   1.00
C467   C     0.55367   0.79699   0.48725   0.00000  Uiso   1.00
C468   C     0.55685   0.77874   0.43782   0.00000  Uiso   1.00
C469   C     0.52335   0.78840   0.41379   0.00000  Uiso   1.00
C470   C     0.51300   0.84187   0.06338   0.00000  Uiso   1.00
C471   C     0.58200   0.80212   0.06322   0.00000  Uiso   1.00
C472   C     0.45616   0.83176   0.41094   0.00000  Uiso   1.00
C473   C     0.54242   0.97868   0.22315   0.00000  Uiso   1.00
C474   C     0.47336   0.83189   0.35201   0.00000  Uiso   1.00
C475   C     0.54218   0.68826   0.22272   0.00000  Uiso   1.00
C476   C     0.49982   0.70926   0.25087   0.00000  Uiso   1.00
C477   C     0.45800   0.68806   0.28039   0.00000  Uiso   1.00
C478   C     0.45804   0.97843   0.28023   0.00000  Uiso   1.00
C479   C     0.50020   0.95744   0.25137   0.00000  Uiso   1.00
C480   C     0.65009   0.80320   0.22275   0.00000  Uiso   1.00
C481   C     0.36451   0.80288   0.22259   0.00000  Uiso   1.00
C482   C     0.34933   0.86348   0.27754   0.00000  Uiso   1.00
C483   C     0.63482   0.86344   0.27755   0.00000  Uiso   1.00
C484   C     0.49983   0.75339   0.25018   0.00000  Uiso   1.00
C485   C     0.52668   0.83332   0.14802   0.00000  Uiso   1.00
C486   C     0.58785   0.78736   0.01130   0.00000  Uiso   1.00
C487   C     0.54323   0.82805   0.08981   0.00000  Uiso   1.00
C488   C     0.41376   0.85297   0.43923   0.00000  Uiso   1.00
C489   C     0.40304   0.86262   0.49368   0.00000  Uiso   1.00
C490   C     0.43579   0.85348   0.01928   0.00000  Uiso   1.00
H491   H     0.60577   0.79127   0.08368   0.00000  Uiso   1.00
H492   H     0.57462   0.70499   0.20001   0.00000  Uiso   1.00
H493   H     0.42563   0.70468   0.30323   0.00000  Uiso   1.00
H494   H     0.42557   0.96164   0.30271   0.00000  Uiso   1.00
H495   H     0.63779   0.77926   0.20091   0.00000  Uiso   1.00
H496   H     0.36094   0.88762   0.29964   0.00000  Uiso   1.00
H497   H     0.61042   0.88758   0.29968   0.00000  Uiso   1.00
H498   H     0.58537   0.75705   0.41757   0.00000  Uiso   1.00
H499   H     0.61738   0.76657   0.49130   0.00000  Uiso   1.00
H500   H     0.48609   0.86448   0.08422   0.00000  Uiso   1.00
H501   H     0.39003   0.86379   0.41870   0.00000  Uiso   1.00
H502   H     0.42580   0.86298   0.06112   0.00000  Uiso   1.00
H503   H     0.37029   0.87906   0.01550   0.00000  Uiso   1.00
H504   H     0.52662   0.77284   0.37588   0.00000  Uiso   1.00
H505   H     0.57498   0.96213   0.20073   0.00000  Uiso   1.00
N506   N     0.38093   0.83334   0.25002   0.00000  Uiso   1.00
N507   N     0.61906   0.83331   0.25000   0.00000  Uiso   1.00
O508   O     0.46179   0.89442   0.25000   0.00000  Uiso   1.00
O509   O     0.53823   0.89441   0.25000   0.00000  Uiso   1.00
O510   O     0.44280   0.83333   0.32681   0.00000  Uiso   1.00
O511   O     0.51924   0.83332   0.32681   0.00000  Uiso   1.00
O512   O     0.46177   0.77226   0.24999   0.00000  Uiso   1.00
O513   O     0.53821   0.77225   0.24999   0.00000  Uiso   1.00
O514   O     0.48076   0.83335   0.17319   0.00000  Uiso   1.00
O515   O     0.55720   0.83334   0.17319   0.00000  Uiso   1.00
Zn516  Zn    0.44896   0.83334   0.25000   0.00000  Uiso   1.00
Zn517  Zn    0.55104   0.83333   0.25000   0.00000  Uiso   1.00
C518   C     0.39501   0.76861   0.19205   0.00000  Uiso   1.00
C519   C     0.42350   0.77424   0.13778   0.00000  Uiso   1.00
C520   C     0.44898   0.74067   0.10695   0.00000  Uiso   1.00
C521   C     0.44457   0.70085   0.12956   0.00000  Uiso   1.00
C522   C     0.41418   0.69450   0.18271   0.00000  Uiso   1.00
C523   C     0.38927   0.72821   0.21386   0.00000  Uiso   1.00
H524   H     0.42526   0.80449   0.11930   0.00000  Uiso   1.00
H525   H     0.47141   0.74531   0.06528   0.00000  Uiso   1.00
H526   H     0.46398   0.67478   0.10559   0.00000  Uiso   1.00
H527   H     0.40979   0.99676   0.19972   0.00000  Uiso   1.00
H528   H     0.36529   0.72283   0.25478   0.00000  Uiso   1.00
C529   C     0.83340   0.91328   0.25046   0.00000  Uiso   1.00
C530   C     0.81220   0.83184   0.49134   0.00000  Uiso   1.00
C531   C     0.81937   0.81699   0.43846   0.00000  Uiso   1.00
C532   C     0.84820   0.82404   0.01410   0.00000  Uiso   1.00
C533   C     0.88700   0.79699   0.48725   0.00000  Uiso   1.00
C534   C     0.89018   0.77874   0.43782   0.00000  Uiso   1.00
C535   C     0.85669   0.78840   0.41379   0.00000  Uiso   1.00
C536   C     0.84633   0.84187   0.06338   0.00000  Uiso   1.00
C537   C     0.91534   0.80212   0.06322   0.00000  Uiso   1.00
C538   C     0.78949   0.83176   0.41094   0.00000  Uiso   1.00
C539   C     0.87575   0.97868   0.22315   0.00000  Uiso   1.00
C540   C     0.80669   0.83189   0.35201   0.00000  Uiso   1.00
C541   C     0.87551   0.68826   0.22272   0.00000  Uiso   1.00
C542   C     0.83315   0.70926   0.25087   0.00000  Uiso   1.00
C543   C     0.79133   0.68806   0.28039   0.00000  Uiso   1.00
C544   C     0.79137   0.97843   0.28023   0.00000  Uiso   1.00
C545   C     0.83353   0.95744   0.25137   0.00000  Uiso   1.00
C546   C     0.98342   0.80320   0.22275   0.00000  Uiso   1.00
C547   C     0.69784   0.80288   0.22259   0.00000  Uiso   1.00
C548   C     0.68267   0.86348   0.27754   0.00000  Uiso   1.00
C549   C     0.96815   0.86344   0.27755   0.00000  Uiso   1.00
C550   C     0.83316   0.75339   0.25018   0.00000  Uiso   1.00
C551   C     0.86001   0.83332   0.14802   0.00000  Uiso   1.00
C552   C     0.92119   0.78736   0.01130   0.00000  Uiso   1.00
C553   C     0.87656   0.82805   0.08981   0.00000  Uiso   1.00
C554   C     0.74709   0.85297   0.43923   0.00000  Uiso   1.00
C555   C     0.73637   0.86262   0.49368   0.00000  Uiso   1.00
C556   C     0.76912   0.85348   0.01928   0.00000  Uiso   1.00
H557   H     0.93911   0.79127   0.08368   0.00000  Uiso   1.00
H558   H     0.90795   0.70499   0.20001   0.00000  Uiso   1.00
H559   H     0.75897   0.70468   0.30323   0.00000  Uiso   1.00
H560   H     0.75891   0.96164   0.30271   0.00000  Uiso   1.00
H561   H     0.97113   0.77926   0.20091   0.00000  Uiso   1.00
H562   H     0.69428   0.88762   0.29964   0.00000  Uiso   1.00
H563   H     0.94375   0.88758   0.29968   0.00000  Uiso   1.00
H564   H     0.91870   0.75705   0.41757   0.00000  Uiso   1.00
H565   H     0.95071   0.76657   0.49130   0.00000  Uiso   1.00
H566   H     0.81943   0.86448   0.08422   0.00000  Uiso   1.00
H567   H     0.72336   0.86379   0.41870   0.00000  Uiso   1.00
H568   H     0.75913   0.86298   0.06112   0.00000  Uiso   1.00
H569   H     0.70363   0.87906   0.01550   0.00000  Uiso   1.00
H570   H     0.85996   0.77284   0.37588   0.00000  Uiso   1.00
H571   H     0.90832   0.96213   0.20073   0.00000  Uiso   1.00
N572   N     0.71426   0.83334   0.25002   0.00000  Uiso   1.00
N573   N     0.95239   0.83331   0.25000   0.00000  Uiso   1.00
O574   O     0.79512   0.89442   0.25000   0.00000  Uiso   1.00
O575   O     0.87157   0.89441   0.25000   0.00000  Uiso   1.00
O576   O     0.77613   0.83333   0.32681   0.00000  Uiso   1.00
O577   O     0.85258   0.83332   0.32681   0.00000  Uiso   1.00
O578   O     0.79510   0.77226   0.24999   0.00000  Uiso   1.00
O579   O     0.87154   0.77225   0.24999   0.00000  Uiso   1.00
O580   O     0.81409   0.83335   0.17319   0.00000  Uiso   1.00
O581   O     0.89053   0.83334   0.17319   0.00000  Uiso   1.00
Zn582  Zn    0.78229   0.83334   0.25000   0.00000  Uiso   1.00
Zn583  Zn    0.88438   0.83333   0.25000   0.00000  Uiso   1.00
C584   C     0.72834   0.76861   0.19205   0.00000  Uiso   1.00
C585   C     0.75683   0.77424   0.13778   0.00000  Uiso   1.00
C586   C     0.78231   0.74067   0.10695   0.00000  Uiso   1.00
C587   C     0.77791   0.70085   0.12956   0.00000  Uiso   1.00
C588   C     0.74751   0.69450   0.18271   0.00000  Uiso   1.00
C589   C     0.72260   0.72821   0.21386   0.00000  Uiso   1.00
H590   H     0.75860   0.80449   0.11930   0.00000  Uiso   1.00
H591   H     0.80475   0.74531   0.06528   0.00000  Uiso   1.00
H592   H     0.79732   0.67478   0.10559   0.00000  Uiso   1.00
H593   H     0.74313   0.99676   0.19972   0.00000  Uiso   1.00
H594   H     0.69863   0.72283   0.25478   0.00000  Uiso   1.00
C595   C     0.16673   0.24662   0.75046   0.00000  Uiso   1.00
C596   C     0.14553   0.16517   0.99134   0.00000  Uiso   1.00
C597   C     0.15270   0.15032   0.93846   0.00000  Uiso   1.00
C598   C     0.18153   0.15738   0.51410   0.00000  Uiso   1.00
C599   C     0.22034   0.13032   0.98725   0.00000  Uiso   1.00
C600   C     0.22352   0.11207   0.93782   0.00000  Uiso   1.00
C601   C     0.19002   0.12173   0.91379   0.00000  Uiso   1.00
C602   C     0.17966   0.17520   0.56338   0.00000  Uiso   1.00
C603   C     0.24867   0.13545   0.56322   0.00000  Uiso   1.00
C604   C     0.12283   0.16509   0.91094   0.00000  Uiso   1.00
C605   C     0.20909   0.31201   0.72315   0.00000  Uiso   1.00
C606   C     0.14002   0.16522   0.85201   0.00000  Uiso   1.00
C607   C     0.20885   0.02159   0.72272   0.00000  Uiso   1.00
C608   C     0.16649   0.04259   0.75087   0.00000  Uiso   1.00
C609   C     0.12466   0.02139   0.78039   0.00000  Uiso   1.00
C610   C     0.12471   0.31176   0.78023   0.00000  Uiso   1.00
C611   C     0.16687   0.29077   0.75137   0.00000  Uiso   1.00
C612   C     0.31676   0.13654   0.72275   0.00000  Uiso   1.00
C613   C     0.03117   0.13621   0.72259   0.00000  Uiso   1.00
C614   C     0.01600   0.19681   0.77754   0.00000  Uiso   1.00
C615   C     0.30148   0.19678   0.77755   0.00000  Uiso   1.00
C616   C     0.16650   0.08672   0.75018   0.00000  Uiso   1.00
C617   C     0.19334   0.16665   0.64802   0.00000  Uiso   1.00
C618   C     0.25452   0.12069   0.51130   0.00000  Uiso   1.00
C619   C     0.20989   0.16138   0.58981   0.00000  Uiso   1.00
C620   C     0.08042   0.18631   0.93923   0.00000  Uiso   1.00
C621   C     0.06971   0.19595   0.99368   0.00000  Uiso   1.00
C622   C     0.10246   0.18682   0.51928   0.00000  Uiso   1.00
H623   H     0.27244   0.12460   0.58368   0.00000  Uiso   1.00
H624   H     0.24128   0.03832   0.70001   0.00000  Uiso   1.00
H625   H     0.09230   0.03802   0.80323   0.00000  Uiso   1.00
H626   H     0.09224   0.29498   0.80271   0.00000  Uiso   1.00
H627   H     0.30446   0.11260   0.70091   0.00000  Uiso   1.00
H628   H     0.02761   0.22095   0.79964   0.00000  Uiso   1.00
H629   H     0.27709   0.22092   0.79968   0.00000  Uiso   1.00
H630   H     0.25204   0.09038   0.91757   0.00000  Uiso   1.00
H631   H     0.28405   0.09990   0.99130   0.00000  Uiso   1.00
H632   H     0.15276   0.19782   0.58422   0.00000  Uiso   1.00
H633   H     0.05670   0.19712   0.91870   0.00000  Uiso   1.00
H634   H     0.09247   0.19632   0.56112   0.00000  Uiso   1.00
H635   H     0.03696   0.21239   0.51550   0.00000  Uiso   1.00
H636   H     0.19329   0.10618   0.87588   0.00000  Uiso   1.00
H637   H     0.24165   0.29546   0.70073   0.00000  Uiso   1.00
N638   N     0.04760   0.16668   0.75002   0.00000  Uiso   1.00
N639   N     0.28573   0.16665   0.75000   0.00000  Uiso   1.00
O640   O     0.12846   0.22775   0.75000   0.00000  Uiso   1.00
O641   O     0.20490   0.22774   0.75000   0.00000  Uiso   1.00
O642   O     0.10947   0.16666   0.82681   0.00000  Uiso   1.00
O643   O     0.18591   0.16665   0.82681   0.00000  Uiso   1.00
O644   O     0.12843   0.10559   0.74999   0.00000  Uiso   1.00
O645   O     0.20488   0.10558   0.74999   0.00000  Uiso   1.00
O646   O     0.14742   0.16668   0.67319   0.00000  Uiso   1.00
O647   O     0.22387   0.16667   0.67319   0.00000  Uiso   1.00
Zn648  Zn    0.11562   0.16667   0.75000   0.00000  Uiso   1.00
Zn649  Zn    0.21771   0.16666   0.75000   0.00000  Uiso   1.00
C650   C     0.06167   0.10195   0.69205   0.00000  Uiso   1.00
C651   C     0.09017   0.10758   0.63778   0.00000  Uiso   1.00
C652   C     0.11565   0.07400   0.60695   0.00000  Uiso   1.00
C653   C     0.11124   0.03418   0.62956   0.00000  Uiso   1.00
C654   C     0.08085   0.02783   0.68271   0.00000  Uiso   1.00
C655   C     0.05594   0.06154   0.71386   0.00000  Uiso   1.00
H656   H     0.09193   0.13782   0.61930   0.00000  Uiso   1.00
H657   H     0.13808   0.07865   0.56528   0.00000  Uiso   1.00
H658   H     0.13065   0.00811   0.60559   0.00000  Uiso   1.00
H659   H     0.07646   0.33009   0.69972   0.00000  Uiso   1.00
H660   H     0.03196   0.05617   0.75478   0.00000  Uiso   1.00
C661   C     0.50006   0.24662   0.75046   0.00000  Uiso   1.00
C662   C     0.47886   0.16517   0.99134   0.00000  Uiso   1.00
C663   C     0.48603   0.15032   0.93846   0.00000  Uiso   1.00
C664   C     0.51486   0.15738   0.51410   0.00000  Uiso   1.00
C665   C     0.55367   0.13032   0.98725   0.00000  Uiso   1.00
C666   C     0.55685   0.11207   0.93782   0.00000  Uiso   1.00
C667   C     0.52335   0.12173   0.91379   0.00000  Uiso   1.00
C668   C     0.51300   0.17520   0.56338   0.00000  Uiso   1.00
C669   C     0.58200   0.13545   0.56322   0.00000  Uiso   1.00
C670   C     0.45616   0.16509   0.91094   0.00000  Uiso   1.00
C671   C     0.54242   0.31201   0.72315   0.00000  Uiso   1.00
C672   C     0.47336   0.16522   0.85201   0.00000  Uiso   1.00
C673   C     0.54218   0.02159   0.72272   0.00000  Uiso   1.00
C674   C     0.49982   0.04259   0.75087   0.00000  Uiso   1.00
C675   C     0.45800   0.02139   0.78039   0.00000  Uiso   1.00
C676   C     0.45804   0.31176   0.78023   0.00000  Uiso   1.00
C677   C     0.50020   0.29077   0.75137   0.00000  Uiso   1.00
C678   C     0.65009   0.13654   0.72275   0.00000  Uiso   1.00
C679   C     0.36451   0.13621   0.72259   0.00000  Uiso   1.00
C680   C     0.34933   0.19681   0.77754   0.00000  Uiso   1.00
C681   C     0.63482   0.19678   0.77755   0.00000  Uiso   1.00
C682   C     0.49983   0.08672   0.75018   0.00000  Uiso   1.00
C683   C     0.52668   0.16665   0.64802   0.00000  Uiso   1.00
C684   C     0.58785   0.12069   0.51130   0.00000  Uiso   1.00
C685   C     0.54323   0.16138   0.58981   0.00000  Uiso   1.00
C686   C     0.41376   0.18631   0.93923   0.00000  Uiso   1.00
C687   C     0.40304   0.19595   0.99368   0.00000  Uiso   1.00
C688   C     0.43579   0.18682   0.51928   0.00000  Uiso   1.00
H689   H     0.60577   0.12460   0.58368   0.00000  Uiso   1.00
H690   H     0.57462   0.03832   0.70001   0.00000  Uiso   1.00
H691   H     0.42563   0.03802   0.80323   0.00000  Uiso   1.00
H692   H     0.42557   0.29498   0.80271   0.00000  Uiso   1.00
H693   H     0.63779   0.11260   0.70091   0.00000  Uiso   1.00
H694   H     0.36094   0.22095   0.79964   0.00000  Uiso   1.00
H695   H     0.61042   0.22092   0.79968   0.00000  Uiso   1.00
H696   H     0.58537   0.09038   0.91757   0.00000  Uiso   1.00
H697   H     0.61738   0.09990   0.99130   0.00000  Uiso   1.00
H698   H     0.48609   0.19782   0.58422   0.00000  Uiso   1.00
H699   H     0.39003   0.19712   0.91870   0.00000  Uiso   1.00
H700   H     0.42580   0.19632   0.56112   0.00000  Uiso   1.00
H701   H     0.37029   0.21239   0.51550   0.00000  Uiso   1.00
H702   H     0.52662   0.10618   0.87588   0.00000  Uiso   1.00
H703   H     0.57498   0.29546   0.70073   0.00000  Uiso   1.00
N704   N     0.38093   0.16668   0.75002   0.00000  Uiso   1.00
N705   N     0.61906   0.16665   0.75000   0.00000  Uiso   1.00
O706   O     0.46179   0.22775   0.75000   0.00000  Uiso   1.00
O707   O     0.53823   0.22774   0.75000   0.00000  Uiso   1.00
O708   O     0.44280   0.16666   0.82681   0.00000  Uiso   1.00
O709   O     0.51924   0.16665   0.82681   0.00000  Uiso   1.00
O710   O     0.46177   0.10559   0.74999   0.00000  Uiso   1.00
O711   O     0.53821   0.10558   0.74999   0.00000  Uiso   1.00
O712   O     0.48076   0.16668   0.67319   0.00000  Uiso   1.00
O713   O     0.55720   0.16667   0.67319   0.00000  Uiso   1.00
Zn714  Zn    0.44896   0.16667   0.75000   0.00000  Uiso   1.00
Zn715  Zn    0.55104   0.16666   0.75000   0.00000  Uiso   1.00
C716   C     0.39501   0.10195   0.69205   0.00000  Uiso   1.00
C717   C     0.42350   0.10758   0.63778   0.00000  Uiso   1.00
C718   C     0.44898   0.07400   0.60695   0.00000  Uiso   1.00
C719   C     0.44457   0.03418   0.62956   0.00000  Uiso   1.00
C720   C     0.41418   0.02783   0.68271   0.00000  Uiso   1.00
C721   C     0.38927   0.06154   0.71386   0.00000  Uiso   1.00
H722   H     0.42526   0.13782   0.61930   0.00000  Uiso   1.00
H723   H     0.47141   0.07865   0.56528   0.00000  Uiso   1.00
H724   H     0.46398   0.00811   0.60559   0.00000  Uiso   1.00
H725   H     0.40979   0.33009   0.69972   0.00000  Uiso   1.00
H726   H     0.36529   0.05617   0.75478   0.00000  Uiso   1.00
C727   C     0.83340   0.24662   0.75046   0.00000  Uiso   1.00
C728   C     0.81220   0.16517   0.99134   0.00000  Uiso   1.00
C729   C     0.81937   0.15032   0.93846   0.00000  Uiso   1.00
C730   C     0.84820   0.15738   0.51410   0.00000  Uiso   1.00
C731   C     0.88700   0.13032   0.98725   0.00000  Uiso   1.00
C732   C     0.89018   0.11207   0.93782   0.00000  Uiso   1.00
C733   C     0.85669   0.12173   0.91379   0.00000  Uiso   1.00
C734   C     0.84633   0.17520   0.56338   0.00000  Uiso   1.00
C735   C     0.91534   0.13545   0.56322   0.00000  Uiso   1.00
C736   C     0.78949   0.16509   0.91094   0.00000  Uiso   1.00
C737   C     0.87575   0.31201   0.72315   0.00000  Uiso   1.00
C738   C     0.80669   0.16522   0.85201   0.00000  Uiso   1.00
C739   C     0.87551   0.02159   0.72272   0.00000  Uiso   1.00
C740   C     0.83315   0.04259   0.75087   0.00000  Uiso   1.00
C741   C     0.79133   0.02139   0.78039   0.00000  Uiso   1.00
C742   C     0.79137   0.31176   0.78023   0.00000  Uiso   1.00
C743   C     0.83353   0.29077   0.75137   0.00000  Uiso   1.00
C744   C     0.98342   0.13654   0.72275   0.00000  Uiso   1.00
C745   C     0.69784   0.13621   0.72259   0.00000  Uiso   1.00
C746   C     0.68267   0.19681   0.77754   0.00000  Uiso   1.00
C747   C     0.96815   0.19678   0.77755   0.00000  Uiso   1.00
C748   C     0.83316   0.08672   0.75018   0.00000  Uiso   1.00
C749   C     0.86001   0.16665   0.64802   0.00000  Uiso   1.00
C750   C     0.92119   0.12069   0.51130   0.00000  Uiso   1.00
C751   C     0.87656   0.16138   0.58981   0.00000  Uiso   1.00
C752   C     0.74709   0.18631   0.93923   0.00000  Uiso   1.00
C753   C     0.73637   0.19595   0.99368   0.00000  Uiso   1.00
C754   C     0.76912   0.18682   0.51928   0.00000  Uiso   1.00
H755   H     0.93911   0.12460   0.58368   0.00000  Uiso   1.00
H756   H     0.90795   0.03832   0.70001   0.00000  Uiso   1.00
H757   H     0.75897   0.03802   0.80323   0.00000  Uiso   1.00
H758   H     0.75891   0.29498   0.80271   0.00000  Uiso   1.00
H759   H     0.97113   0.11260   0.70091   0.00000  Uiso   1.00
H760   H     0.69428   0.22095   0.79964   0.00000  Uiso   1.00
H761   H     0.94375   0.22092   0.79968   0.00000  Uiso   1.00
H762   H     0.91870   0.09038   0.91757   0.00000  Uiso   1.00
H763   H     0.95071   0.09990   0.99130   0.00000  Uiso   1.00
H764   H     0.81943   0.19782   0.58422   0.00000  Uiso   1.00
H765   H     0.72336   0.19712   0.91870   0.00000  Uiso   1.00
H766   H     0.75913   0.19632   0.56112   0.00000  Uiso   1.00
H767   H     0.70363   0.21239   0.51550   0.00000  Uiso   1.00
H768   H     0.85996   0.10618   0.87588   0.00000  Uiso   1.00
H769   H     0.90832   0.29546   0.70073   0.00000  Uiso   1.00
N770   N     0.71426   0.16668   0.75002   0.00000  Uiso   1.00
N771   N     0.95239   0.16665   0.75000   0.00000  Uiso   1.00
O772   O     0.79512   0.22775   0.75000   0.00000  Uiso   1.00
O773   O     0.87157   0.22774   0.75000   0.00000  Uiso   1.00
O774   O     0.77613   0.16666   0.82681   0.00000  Uiso   1.00
O775   O     0.85258   0.16665   0.82681   0.00000  Uiso   1.00
O776   O     0.79510   0.10559   0.74999   0.00000  Uiso   1.00
O777   O     0.87154   0.10558   0.74999   0.00000  Uiso   1.00
O778   O     0.81409   0.16668   0.67319   0.00000  Uiso   1.00
O779   O     0.89053   0.16667   0.67319   0.00000  Uiso   1.00
Zn780  Zn    0.78229   0.16667   0.75000   0.00000  Uiso   1.00
Zn781  Zn    0.88438   0.16666   0.75000   0.00000  Uiso   1.00
C782   C     0.72834   0.10195   0.69205   0.00000  Uiso   1.00
C783   C     0.75683   0.10758   0.63778   0.00000  Uiso   1.00
C784   C     0.78231   0.07400   0.60695   0.00000  Uiso   1.00
C785   C     0.77791   0.03418   0.62956   0.00000  Uiso   1.00
C786   C     0.74751   0.02783   0.68271   0.00000  Uiso   1.00
C787   C     0.72260   0.06154   0.71386   0.00000  Uiso   1.00
H788   H     0.75860   0.13782   0.61930   0.00000  Uiso   1.00
H789   H     0.80475   0.07865   0.56528   0.00000  Uiso   1.00
H790   H     0.79732   0.00811   0.60559   0.00000  Uiso   1.00
H791   H     0.74313   0.33009   0.69972   0.00000  Uiso   1.00
H792   H     0.69863   0.05617   0.75478   0.00000  Uiso   1.00
C793   C     0.16673   0.57995   0.75046   0.00000  Uiso   1.00
C794   C     0.14553   0.49850   0.99134   0.00000  Uiso   1.00
C795   C     0.15270   0.48365   0.93846   0.00000  Uiso   1.00
C796   C     0.18153   0.49071   0.51410   0.00000  Uiso   1.00
C797   C     0.22034   0.46366   0.98725   0.00000  Uiso   1.00
C798   C     0.22352   0.44540   0.93782   0.00000  Uiso   1.00
C799   C     0.19002   0.45507   0.91379   0.00000  Uiso   1.00
C800   C     0.17966   0.50853   0.56338   0.00000  Uiso   1.00
C801   C     0.24867   0.46878   0.56322   0.00000  Uiso   1.00
C802   C     0.12283   0.49843   0.91094   0.00000  Uiso   1.00
C803   C     0.20909   0.64535   0.72315   0.00000  Uiso   1.00
C804   C     0.14002   0.49855   0.85201   0.00000  Uiso   1.00
C805   C     0.20885   0.35492   0.72272   0.00000  Uiso   1.00
C806   C     0.16649   0.37592   0.75087   0.00000  Uiso   1.00
C807   C     0.12466   0.35473   0.78039   0.00000  Uiso   1.00
C808   C     0.12471   0.64509   0.78023   0.00000  Uiso   1.00
C809   C     0.16687   0.62410   0.75137   0.00000  Uiso   1.00
C810   C     0.31676   0.46987   0.72275   0.00000  Uiso   1.00
C811   C     0.03117   0.46954   0.72259   0.00000  Uiso   1.00
C812   C     0.01600   0.53015   0.77754   0.00000  Uiso   1.00
C813   C     0.30148   0.53011   0.77755   0.00000  Uiso   1.00
C814   C     0.16650   0.42006   0.75018   0.00000  Uiso   1.00
C815   C     0.19334   0.49998   0.64802   0.00000  Uiso   1.00
C816   C     0.25452   0.45403   0.51130   0.00000  Uiso   1.00
C817   C     0.20989   0.49472   0.58981   0.00000  Uiso   1.00
C818   C     0.08042   0.51964   0.93923   0.00000  Uiso   1.00
C819   C     0.06971   0.52928   0.99368   0.00000  Uiso   1.00
C820   C     0.10246   0.52015   0.51928   0.00000  Uiso   1.00
H821   H     0.27244   0.45794   0.58368   0.00000  Uiso   1.00
H822   H     0.24128   0.37166   0.70001   0.00000  Uiso   1.00
H823   H     0.09230   0.37135   0.80323   0.00000  Uiso   1.00
H824   H     0.09224   0.62831   0.80271   0.00000  Uiso   1.00
H825   H     0.30446   0.44593   0.70091   0.00000  Uiso   1.00
H826   H     0.02761   0.55429   0.79964   0.00000  Uiso   1.00
H827   H     0.27709   0.55425   0.79968   0.00000  Uiso   1.00
H828   H     0.25204   0.42372   0.91757   0.00000  Uiso   1.00
H829   H     0.28405   0.43323   0.99130   0.00000  Uiso   1.00
H830   H     0.15276   0.53115   0.58422   0.00000  Uiso   1.00
H831   H     0.05670   0.53045   0.91870   0.00000  Uiso   1.00
H832   H     0.09247   0.52965   0.56112   0.00000  Uiso   1.00
H833   H     0.03696   0.54573   0.51550   0.00000  Uiso   1.00
H834   H     0.19329   0.43951   0.87588   0.00000  Uiso   1.00
H835   H     0.24165   0.62879   0.70073   0.00000  Uiso   1.00
N836   N     0.04760   0.50001   0.75002   0.00000  Uiso   1.00
N837   N     0.28573   0.49998   0.75000   0.00000  Uiso   1.00
O838   O     0.12846   0.56108   0.75000   0.00000  Uiso   1.00
O839   O     0.20490   0.56107   0.75000   0.00000  Uiso   1.00
O840   O     0.10947   0.50000   0.82681   0.00000  Uiso   1.00
O841   O     0.18591   0.49999   0.82681   0.00000  Uiso   1.00
O842   O     0.12843   0.43893   0.74999   0.00000  Uiso   1.00
O843   O     0.20488   0.43892   0.74999   0.00000  Uiso   1.00
O844   O     0.14742   0.50001   0.67319   0.00000  Uiso   1.00
O845   O     0.22387   0.50000   0.67319   0.00000  Uiso   1.00
Zn846  Zn    0.11562   0.50001   0.75000   0.00000  Uiso   1.00
Zn847  Zn    0.21771   0.49999   0.75000   0.00000  Uiso   1.00
C848   C     0.06167   0.43528   0.69205   0.00000  Uiso   1.00
C849   C     0.09017   0.44091   0.63778   0.00000  Uiso   1.00
C850   C     0.11565   0.40734   0.60695   0.00000  Uiso   1.00
C851   C     0.11124   0.36751   0.62956   0.00000  Uiso   1.00
C852   C     0.08085   0.36117   0.68271   0.00000  Uiso   1.00
C853   C     0.05594   0.39488   0.71386   0.00000  Uiso   1.00
H854   H     0.09193   0.47115   0.61930   0.00000  Uiso   1.00
H855   H     0.13808   0.41198   0.56528   0.00000  Uiso   1.00
H856   H     0.13065   0.34145   0.60559   0.00000  Uiso   1.00
H857   H     0.07646   0.66343   0.69972   0.00000  Uiso   1.00
H858   H     0.03196   0.38950   0.75478   0.00000  Uiso   1.00
C859   C     0.50006   0.57995   0.75046   0.00000  Uiso   1.00
C860   C     0.47886   0.49850   0.99134   0.00000  Uiso   1.00
C861   C     0.48603   0.48365   0.93846   0.00000  Uiso   1.00
C862   C     0.51486   0.49071   0.51410   0.00000  Uiso   1.00
C863   C     0.55367   0.46366   0.98725   0.00000  Uiso   1.00
C864   C     0.55685   0.44540   0.93782   0.00000  Uiso   1.00
C865   C     0.52335   0.45507   0.91379   0.00000  Uiso   1.00
C866   C     0.51300   0.50853   0.56338   0.00000  Uiso   1.00
C867   C     0.58200   0.46878   0.56322   0.00000  Uiso   1.00
C868   C     0.45616   0.49843   0.91094   0.00000  Uiso   1.00
C869   C     0.54242   0.64535   0.72315   0.00000  Uiso   1.00
C870   C     0.47336   0.49855   0.85201   0.00000  Uiso   1.00
C871   C     0.54218   0.35492   0.72272   0.00000  Uiso   1.00
C872   C     0.49982   0.37592   0.75087   0.00000  Uiso   1.00
C873   C     0.45800   0.35473   0.78039   0.00000  Uiso   1.00
C874   C     0.45804   0.64509   0.78023   0.00000  Uiso   1.00
C875   C     0.50020   0.62410   0.75137   0.00000  Uiso   1.00
C876   C     0.65009   0.46987   0.72275   0.00000  Uiso   1.00
C877   C     0.36451   0.46954   0.72259   0.00000  Uiso   1.00
C878   C     0.34933   0.53015   0.77754   0.00000  Uiso   1.00
C879   C     0.63482   0.53011   0.77755   0.00000  Uiso   1.00
C880   C     0.49983   0.42006   0.75018   0.00000  Uiso   1.00
C881   C     0.52668   0.49998   0.64802   0.00000  Uiso   1.00
C882   C     0.58785   0.45403   0.51130   0.00000  Uiso   1.00
C883   C     0.54323   0.49472   0.58981   0.00000  Uiso   1.00
C884   C     0.41376   0.51964   0.93923   0.00000  Uiso   1.00
C885   C     0.40304   0.52928   0.99368   0.00000  Uiso   1.00
C886   C     0.43579   0.52015   0.51928   0.00000  Uiso   1.00
H887   H     0.60577   0.45794   0.58368   0.00000  Uiso   1.00
H888   H     0.57462   0.37166   0.70001   0.00000  Uiso   1.00
H889   H     0.42563   0.37135   0.80323   0.00000  Uiso   1.00
H890   H     0.42557   0.62831   0.80271   0.00000  Uiso   1.00
H891   H     0.63779   0.44593   0.70091   0.00000  Uiso   1.00
H892   H     0.36094   0.55429   0.79964   0.00000  Uiso   1.00
H893   H     0.61042   0.55425   0.79968   0.00000  Uiso   1.00
H894   H     0.58537   0.42372   0.91757   0.00000  Uiso   1.00
H895   H     0.61738   0.43323   0.99130   0.00000  Uiso   1.00
H896   H     0.48609   0.53115   0.58422   0.00000  Uiso   1.00
H897   H     0.39003   0.53045   0.91870   0.00000  Uiso   1.00
H898   H     0.42580   0.52965   0.56112   0.00000  Uiso   1.00
H899   H     0.37029   0.54573   0.51550   0.00000  Uiso   1.00
H900   H     0.52662   0.43951   0.87588   0.00000  Uiso   1.00
H901   H     0.57498   0.62879   0.70073   0.00000  Uiso   1.00
N902   N     0.38093   0.50001   0.75002   0.00000  Uiso   1.00
N903   N     0.61906   0.49998   0.75000   0.00000  Uiso   1.00
O904   O     0.46179   0.56108   0.75000   0.00000  Uiso   1.00
O905   O     0.53823   0.56107   0.75000   0.00000  Uiso   1.00
O906   O     0.44280   0.50000   0.82681   0.00000  Uiso   1.00
O907   O     0.51924   0.49999   0.82681   0.00000  Uiso   1.00
O908   O     0.46177   0.43893   0.74999   0.00000  Uiso   1.00
O909   O     0.53821   0.43892   0.74999   0.00000  Uiso   1.00
O910   O     0.48076   0.50001   0.67319   0.00000  Uiso   1.00
O911   O     0.55720   0.50000   0.67319   0.00000  Uiso   1.00
Zn912  Zn    0.44896   0.50001   0.75000   0.00000  Uiso   1.00
Zn913  Zn    0.55104   0.49999   0.75000   0.00000  Uiso   1.00
C914   C     0.39501   0.43528   0.69205   0.00000  Uiso   1.00
C915   C     0.42350   0.44091   0.63778   0.00000  Uiso   1.00
C916   C     0.44898   0.40734   0.60695   0.00000  Uiso   1.00
C917   C     0.44457   0.36751   0.62956   0.00000  Uiso   1.00
C918   C     0.41418   0.36117   0.68271   0.00000  Uiso   1.00
C919   C     0.38927   0.39488   0.71386   0.00000  Uiso   1.00
H920   H     0.42526   0.47115   0.61930   0.00000  Uiso   1.00
H921   H     0.47141   0.41198   0.56528   0.00000  Uiso   1.00
H922   H     0.46398   0.34145   0.60559   0.00000  Uiso   1.00
H923   H     0.40979   0.66343   0.69972   0.00000  Uiso   1.00
H924   H     0.36529   0.38950   0.75478   0.00000  Uiso   1.00
C925   C     0.83340   0.57995   0.75046   0.00000  Uiso   1.00
C926   C     0.81220   0.49850   0.99134   0.00000  Uiso   1.00
C927   C     0.81937   0.48365   0.93846   0.00000  Uiso   1.00
C928   C     0.84820   0.49071   0.51410   0.00000  Uiso   1.00
C929   C     0.88700   0.46366   0.98725   0.00000  Uiso   1.00
C930   C     0.89018   0.44540   0.93782   0.00000  Uiso   1.00
C931   C     0.85669   0.45507   0.91379   0.00000  Uiso   1.00
C932   C     0.84633   0.50853   0.56338   0.00000  Uiso   1.00
C933   C     0.91534   0.46878   0.56322   0.00000  Uiso   1.00
C934   C     0.78949   0.49843   0.91094   0.00000  Uiso   1.00
C935   C     0.87575   0.64535   0.72315   0.00000  Uiso   1.00
C936   C     0.80669   0.49855   0.85201   0.00000  Uiso   1.00
C937   C     0.87551   0.35492   0.72272   0.00000  Uiso   1.00
C938   C     0.83315   0.37592   0.75087   0.00000  Uiso   1.00
C939   C     0.79133   0.35473   0.78039   0.00000  Uiso   1.00
C940   C     0.79137   0.64509   0.78023   0.00000  Uiso   1.00
C941   C     0.83353   0.62410   0.75137   0.00000  Uiso   1.00
C942   C     0.98342   0.46987   0.72275   0.00000  Uiso   1.00
C943   C     0.69784   0.46954   0.72259   0.00000  Uiso   1.00
C944   C     0.68267   0.53015   0.77754   0.00000  Uiso   1.00
C945   C     0.96815   0.53011   0.77755   0.00000  Uiso   1.00
C946   C     0.83316   0.42006   0.75018   0.00000  Uiso   1.00
C947   C     0.86001   0.49998   0.64802   0.00000  Uiso   1.00
C948   C     0.92119   0.45403   0.51130   0.00000  Uiso   1.00
C949   C     0.87656   0.49472   0.58981   0.00000  Uiso   1.00
C950   C     0.74709   0.51964   0.93923   0.00000  Uiso   1.00
C951   C     0.73637   0.52928   0.99368   0.00000  Uiso   1.00
C952   C     0.76912   0.52015   0.51928   0.00000  Uiso   1.00
H953   H     0.93911   0.45794   0.58368   0.00000  Uiso   1.00
H954   H     0.90795   0.37166   0.70001   0.00000  Uiso   1.00
H955   H     0.75897   0.37135   0.80323   0.00000  Uiso   1.00
H956   H     0.75891   0.62831   0.80271   0.00000  Uiso   1.00
H957   H     0.97113   0.44593   0.70091   0.00000  Uiso   1.00
H958   H     0.69428   0.55429   0.79964   0.00000  Uiso   1.00
H959   H     0.94375   0.55425   0.79968   0.00000  Uiso   1.00
H960   H     0.91870   0.42372   0.91757   0.00000  Uiso   1.00
H961   H     0.95071   0.43323   0.99130   0.00000  Uiso   1.00
H962   H     0.81943   0.53115   0.58422   0.00000  Uiso   1.00
H963   H     0.72336   0.53045   0.91870   0.00000  Uiso   1.00
H964   H     0.75913   0.52965   0.56112   0.00000  Uiso   1.00
H965   H     0.70363   0.54573   0.51550   0.00000  Uiso   1.00
H966   H     0.85996   0.43951   0.87588   0.00000  Uiso   1.00
H967   H     0.90832   0.62879   0.70073   0.00000  Uiso   1.00
N968   N     0.71426   0.50001   0.75002   0.00000  Uiso   1.00
N969   N     0.95239   0.49998   0.75000   0.00000  Uiso   1.00
O970   O     0.79512   0.56108   0.75000   0.00000  Uiso   1.00
O971   O     0.87157   0.56107   0.75000   0.00000  Uiso   1.00
O972   O     0.77613   0.50000   0.82681   0.00000  Uiso   1.00
O973   O     0.85258   0.49999   0.82681   0.00000  Uiso   1.00
O974   O     0.79510   0.43893   0.74999   0.00000  Uiso   1.00
O975   O     0.87154   0.43892   0.74999   0.00000  Uiso   1.00
O976   O     0.81409   0.50001   0.67319   0.00000  Uiso   1.00
O977   O     0.89053   0.50000   0.67319   0.00000  Uiso   1.00
Zn978  Zn    0.78229   0.50001   0.75000   0.00000  Uiso   1.00
Zn979  Zn    0.88438   0.49999   0.75000   0.00000  Uiso   1.00
C980   C     0.72834   0.43528   0.69205   0.00000  Uiso   1.00
C981   C     0.75683   0.44091   0.63778   0.00000  Uiso   1.00
C982   C     0.78231   0.40734   0.60695   0.00000  Uiso   1.00
C983   C     0.77791   0.36751   0.62956   0.00000  Uiso   1.00
C984   C     0.74751   0.36117   0.68271   0.00000  Uiso   1.00
C985   C     0.72260   0.39488   0.71386   0.00000  Uiso   1.00
H986   H     0.75860   0.47115   0.61930   0.00000  Uiso   1.00
H987   H     0.80475   0.41198   0.56528   0.00000  Uiso   1.00
H988   H     0.79732   0.34145   0.60559   0.00000  Uiso   1.00
H989   H     0.74313   0.66343   0.69972   0.00000  Uiso   1.00
H990   H     0.69863   0.38950   0.75478   0.00000  Uiso   1.00
C991   C     0.16673   0.91328   0.75046   0.00000  Uiso   1.00
C992   C     0.14553   0.83184   0.99134   0.00000  Uiso   1.00
C993   C     0.15270   0.81699   0.93846   0.00000  Uiso   1.00
C994   C     0.18153   0.82404   0.51410   0.00000  Uiso   1.00
C995   C     0.22034   0.79699   0.98725   0.00000  Uiso   1.00
C996   C     0.22352   0.77874   0.93782   0.00000  Uiso   1.00
C997   C     0.19002   0.78840   0.91379   0.00000  Uiso   1.00
C998   C     0.17966   0.84187   0.56338   0.00000  Uiso   1.00
C999   C     0.24867   0.80212   0.56322   0.00000  Uiso   1.00
C1000  C     0.12283   0.83176   0.91094   0.00000  Uiso   1.00
C1001  C     0.20909   0.97868   0.72315   0.00000  Uiso   1.00
C1002  C     0.14002   0.83189   0.85201   0.00000  Uiso   1.00
C1003  C     0.20885   0.68826   0.72272   0.00000  Uiso   1.00
C1004  C     0.16649   0.70926   0.75087   0.00000  Uiso   1.00
C1005  C     0.12466   0.68806   0.78039   0.00000  Uiso   1.00
C1006  C     0.12471   0.97843   0.78023   0.00000  Uiso   1.00
C1007  C     0.16687   0.95744   0.75137   0.00000  Uiso   1.00
C1008  C     0.31676   0.80320   0.72275   0.00000  Uiso   1.00
C1009  C     0.03117   0.80288   0.72259   0.00000  Uiso   1.00
C1010  C     0.01600   0.86348   0.77754   0.00000  Uiso   1.00
C1011  C     0.30148   0.86344   0.77755   0.00000  Uiso   1.00
C1012  C     0.16650   0.75339   0.75018   0.00000  Uiso   1.00
C1013  C     0.19334   0.83332   0.64802   0.00000  Uiso   1.00
C1014  C     0.25452   0.78736   0.51130   0.00000  Uiso   1.00
C1015  C     0.20989   0.82805   0.58981   0.00000  Uiso   1.00
C1016  C     0.08042   0.85297   0.93923   0.00000  Uiso   1.00
C1017  C     0.06971   0.86262   0.99368   0.00000  Uiso   1.00
C1018  C     0.10246   0.85348   0.51928   0.00000  Uiso   1.00
H1019  H     0.27244   0.79127   0.58368   0.00000  Uiso   1.00
H1020  H     0.24128   0.70499   0.70001   0.00000  Uiso   1.00
H1021  H     0.09230   0.70468   0.80323   0.00000  Uiso   1.00
H1022  H     0.09224   0.96164   0.80271   0.00000  Uiso   1.00
H1023  H     0.30446   0.77926   0.70091   0.00000  Uiso   1.00
H1024  H     0.02761   0.88762   0.79964   0.00000  Uiso   1.00
H1025  H     0.27709   0.88758   0.79968   0.00000  Uiso   1.00
H1026  H     0.25204   0.75705   0.91757   0.00000  Uiso   1.00
H1027  H     0.28405   0.76657   0.99130   0.00000  Uiso   1.00
H1028  H     0.15276   0.86448   0.58422   0.00000  Uiso   1.00
H1029  H     0.05670   0.86379   0.91870   0.00000  Uiso   1.00
H1030  H     0.09247   0.86298   0.56112   0.00000  Uiso   1.00
H1031  H     0.03696   0.87906   0.51550   0.00000  Uiso   1.00
H1032  H     0.19329   0.77284   0.87588   0.00000  Uiso   1.00
H1033  H     0.24165   0.96213   0.70073   0.00000  Uiso   1.00
N1034  N     0.04760   0.83334   0.75002   0.00000  Uiso   1.00
N1035  N     0.28573   0.83331   0.75000   0.00000  Uiso   1.00
O1036  O     0.12846   0.89442   0.75000   0.00000  Uiso   1.00
O1037  O     0.20490   0.89441   0.75000   0.00000  Uiso   1.00
O1038  O     0.10947   0.83333   0.82681   0.00000  Uiso   1.00
O1039  O     0.18591   0.83332   0.82681   0.00000  Uiso   1.00
O1040  O     0.12843   0.77226   0.74999   0.00000  Uiso   1.00
O1041  O     0.20488   0.77225   0.74999   0.00000  Uiso   1.00
O1042  O     0.14742   0.83335   0.67319   0.00000  Uiso   1.00
O1043  O     0.22387   0.83334   0.67319   0.00000  Uiso   1.00
Zn1044 Zn    0.11562   0.83334   0.75000   0.00000  Uiso   1.00
Zn1045 Zn    0.21771   0.83333   0.75000   0.00000  Uiso   1.00
C1046  C     0.06167   0.76861   0.69205   0.00000  Uiso   1.00
C1047  C     0.09017   0.77424   0.63778   0.00000  Uiso   1.00
C1048  C     0.11565   0.74067   0.60695   0.00000  Uiso   1.00
C1049  C     0.11124   0.70085   0.62956   0.00000  Uiso   1.00
C1050  C     0.08085   0.69450   0.68271   0.00000  Uiso   1.00
C1051  C     0.05594   0.72821   0.71386   0.00000  Uiso   1.00
H1052  H     0.09193   0.80449   0.61930   0.00000  Uiso   1.00
H1053  H     0.13808   0.74531   0.56528   0.00000  Uiso   1.00
H1054  H     0.13065   0.67478   0.60559   0.00000  Uiso   1.00
H1055  H     0.07646   0.99676   0.69972   0.00000  Uiso   1.00
H1056  H     0.03196   0.72283   0.75478   0.00000  Uiso   1.00
C1057  C     0.50006   0.91328   0.75046   0.00000  Uiso   1.00
C1058  C     0.47886   0.83184   0.99134   0.00000  Uiso   1.00
C1059  C     0.48603   0.81699   0.93846   0.00000  Uiso   1.00
C1060  C     0.51486   0.82404   0.51410   0.00000  Uiso   1.00
C1061  C     0.55367   0.79699   0.98725   0.00000  Uiso   1.00
C1062  C     0.55685   0.77874   0.93782   0.00000  Uiso   1.00
C1063  C     0.52335   0.78840   0.91379   0.00000  Uiso   1.00
C1064  C     0.51300   0.84187   0.56338   0.00000  Uiso   1.00
C1065  C     0.58200   0.80212   0.56322   0.00000  Uiso   1.00
C1066  C     0.45616   0.83176   0.91094   0.00000  Uiso   1.00
C1067  C     0.54242   0.97868   0.72315   0.00000  Uiso   1.00
C1068  C     0.47336   0.83189   0.85201   0.00000  Uiso   1.00
C1069  C     0.54218   0.68826   0.72272   0.00000  Uiso   1.00
C1070  C     0.49982   0.70926   0.75087   0.00000  Uiso   1.00
C1071  C     0.45800   0.68806   0.78039   0.00000  Uiso   1.00
C1072  C     0.45804   0.97843   0.78023   0.00000  Uiso   1.00
C1073  C     0.50020   0.95744   0.75137   0.00000  Uiso   1.00
C1074  C     0.65009   0.80320   0.72275   0.00000  Uiso   1.00
C1075  C     0.36451   0.80288   0.72259   0.00000  Uiso   1.00
C1076  C     0.34933   0.86348   0.77754   0.00000  Uiso   1.00
C1077  C     0.63482   0.86344   0.77755   0.00000  Uiso   1.00
C1078  C     0.49983   0.75339   0.75018   0.00000  Uiso   1.00
C1079  C     0.52668   0.83332   0.64802   0.00000  Uiso   1.00
C1080  C     0.58785   0.78736   0.51130   0.00000  Uiso   1.00
C1081  C     0.54323   0.82805   0.58981   0.00000  Uiso   1.00
C1082  C     0.41376   0.85297   0.93923   0.00000  Uiso   1.00
C1083  C     0.40304   0.86262   0.99368   0.00000  Uiso   1.00
C1084  C     0.43579   0.85348   0.51928   0.00000  Uiso   1.00
H1085  H     0.60577   0.79127   0.58368   0.00000  Uiso   1.00
H1086  H     0.57462   0.70499   0.70001   0.00000  Uiso   1.00
H1087  H     0.42563   0.70468   0.80323   0.00000  Uiso   1.00
H1088  H     0.42557   0.96164   0.80271   0.00000  Uiso   1.00
H1089  H     0.63779   0.77926   0.70091   0.00000  Uiso   1.00
H1090  H     0.36094   0.88762   0.79964   0.00000  Uiso   1.00
H1091  H     0.61042   0.88758   0.79968   0.00000  Uiso   1.00
H1092  H     0.58537   0.75705   0.91757   0.00000  Uiso   1.00
H1093  H     0.61738   0.76657   0.99130   0.00000  Uiso   1.00
H1094  H     0.48609   0.86448   0.58422   0.00000  Uiso   1.00
H1095  H     0.39003   0.86379   0.91870   0.00000  Uiso   1.00
H1096  H     0.42580   0.86298   0.56112   0.00000  Uiso   1.00
H1097  H     0.37029   0.87906   0.51550   0.00000  Uiso   1.00
H1098  H     0.52662   0.77284   0.87588   0.00000  Uiso   1.00
H1099  H     0.57498   0.96213   0.70073   0.00000  Uiso   1.00
N1100  N     0.38093   0.83334   0.75002   0.00000  Uiso   1.00
N1101  N     0.61906   0.83331   0.75000   0.00000  Uiso   1.00
O1102  O     0.46179   0.89442   0.75000   0.00000  Uiso   1.00
O1103  O     0.53823   0.89441   0.75000   0.00000  Uiso   1.00
O1104  O     0.44280   0.83333   0.82681   0.00000  Uiso   1.00
O1105  O     0.51924   0.83332   0.82681   0.00000  Uiso   1.00
O1106  O     0.46177   0.77226   0.74999   0.00000  Uiso   1.00
O1107  O     0.53821   0.77225   0.74999   0.00000  Uiso   1.00
O1108  O     0.48076   0.83335   0.67319   0.00000  Uiso   1.00
O1109  O     0.55720   0.83334   0.67319   0.00000  Uiso   1.00
Zn1110 Zn    0.44896   0.83334   0.75000   0.00000  Uiso   1.00
Zn1111 Zn    0.55104   0.83333   0.75000   0.00000  Uiso   1.00
C1112  C     0.39501   0.76861   0.69205   0.00000  Uiso   1.00
C1113  C     0.42350   0.77424   0.63778   0.00000  Uiso   1.00
C1114  C     0.44898   0.74067   0.60695   0.00000  Uiso   1.00
C1115  C     0.44457   0.70085   0.62956   0.00000  Uiso   1.00
C1116  C     0.41418   0.69450   0.68271   0.00000  Uiso   1.00
C1117  C     0.38927   0.72821   0.71386   0.00000  Uiso   1.00
H1118  H     0.42526   0.80449   0.61930   0.00000  Uiso   1.00
H1119  H     0.47141   0.74531   0.56528   0.00000  Uiso   1.00
H1120  H     0.46398   0.67478   0.60559   0.00000  Uiso   1.00
H1121  H     0.40979   0.99676   0.69972   0.00000  Uiso   1.00
H1122  H     0.36529   0.72283   0.75478   0.00000  Uiso   1.00
C1123  C     0.83340   0.91328   0.75046   0.00000  Uiso   1.00
C1124  C     0.81220   0.83184   0.99134   0.00000  Uiso   1.00
C1125  C     0.81937   0.81699   0.93846   0.00000  Uiso   1.00
C1126  C     0.84820   0.82404   0.51410   0.00000  Uiso   1.00
C1127  C     0.88700   0.79699   0.98725   0.00000  Uiso   1.00
C1128  C     0.89018   0.77874   0.93782   0.00000  Uiso   1.00
C1129  C     0.85669   0.78840   0.91379   0.00000  Uiso   1.00
C1130  C     0.84633   0.84187   0.56338   0.00000  Uiso   1.00
C1131  C     0.91534   0.80212   0.56322   0.00000  Uiso   1.00
C1132  C     0.78949   0.83176   0.91094   0.00000  Uiso   1.00
C1133  C     0.87575   0.97868   0.72315   0.00000  Uiso   1.00
C1134  C     0.80669   0.83189   0.85201   0.00000  Uiso   1.00
C1135  C     0.87551   0.68826   0.72272   0.00000  Uiso   1.00
C1136  C     0.83315   0.70926   0.75087   0.00000  Uiso   1.00
C1137  C     0.79133   0.68806   0.78039   0.00000  Uiso   1.00
C1138  C     0.79137   0.97843   0.78023   0.00000  Uiso   1.00
C1139  C     0.83353   0.95744   0.75137   0.00000  Uiso   1.00
C1140  C     0.98342   0.80320   0.72275   0.00000  Uiso   1.00
C1141  C     0.69784   0.80288   0.72259   0.00000  Uiso   1.00
C1142  C     0.68267   0.86348   0.77754   0.00000  Uiso   1.00
C1143  C     0.96815   0.86344   0.77755   0.00000  Uiso   1.00
C1144  C     0.83316   0.75339   0.75018   0.00000  Uiso   1.00
C1145  C     0.86001   0.83332   0.64802   0.00000  Uiso   1.00
C1146  C     0.92119   0.78736   0.51130   0.00000  Uiso   1.00
C1147  C     0.87656   0.82805   0.58981   0.00000  Uiso   1.00
C1148  C     0.74709   0.85297   0.93923   0.00000  Uiso   1.00
C1149  C     0.73637   0.86262   0.99368   0.00000  Uiso   1.00
C1150  C     0.76912   0.85348   0.51928   0.00000  Uiso   1.00
H1151  H     0.93911   0.79127   0.58368   0.00000  Uiso   1.00
H1152  H     0.90795   0.70499   0.70001   0.00000  Uiso   1.00
H1153  H     0.75897   0.70468   0.80323   0.00000  Uiso   1.00
H1154  H     0.75891   0.96164   0.80271   0.00000  Uiso   1.00
H1155  H     0.97113   0.77926   0.70091   0.00000  Uiso   1.00
H1156  H     0.69428   0.88762   0.79964   0.00000  Uiso   1.00
H1157  H     0.94375   0.88758   0.79968   0.00000  Uiso   1.00
H1158  H     0.91870   0.75705   0.91757   0.00000  Uiso   1.00
H1159  H     0.95071   0.76657   0.99130   0.00000  Uiso   1.00
H1160  H     0.81943   0.86448   0.58422   0.00000  Uiso   1.00
H1161  H     0.72336   0.86379   0.91870   0.00000  Uiso   1.00
H1162  H     0.75913   0.86298   0.56112   0.00000  Uiso   1.00
H1163  H     0.70363   0.87906   0.51550   0.00000  Uiso   1.00
H1164  H     0.85996   0.77284   0.87588   0.00000  Uiso   1.00
H1165  H     0.90832   0.96213   0.70073   0.00000  Uiso   1.00
N1166  N     0.71426   0.83334   0.75002   0.00000  Uiso   1.00
N1167  N     0.95239   0.83331   0.75000   0.00000  Uiso   1.00
O1168  O     0.79512   0.89442   0.75000   0.00000  Uiso   1.00
O1169  O     0.87157   0.89441   0.75000   0.00000  Uiso   1.00
O1170  O     0.77613   0.83333   0.82681   0.00000  Uiso   1.00
O1171  O     0.85258   0.83332   0.82681   0.00000  Uiso   1.00
O1172  O     0.79510   0.77226   0.74999   0.00000  Uiso   1.00
O1173  O     0.87154   0.77225   0.74999   0.00000  Uiso   1.00
O1174  O     0.81409   0.83335   0.67319   0.00000  Uiso   1.00
O1175  O     0.89053   0.83334   0.67319   0.00000  Uiso   1.00
Zn1176 Zn    0.78229   0.83334   0.75000   0.00000  Uiso   1.00
Zn1177 Zn    0.88438   0.83333   0.75000   0.00000  Uiso   1.00
C1178  C     0.72834   0.76861   0.69205   0.00000  Uiso   1.00
C1179  C     0.75683   0.77424   0.63778   0.00000  Uiso   1.00
C1180  C     0.78231   0.74067   0.60695   0.00000  Uiso   1.00
C1181  C     0.77791   0.70085   0.62956   0.00000  Uiso   1.00
C1182  C     0.74751   0.69450   0.68271   0.00000  Uiso   1.00
C1183  C     0.72260   0.72821   0.71386   0.00000  Uiso   1.00
H1184  H     0.75860   0.80449   0.61930   0.00000  Uiso   1.00
H1185  H     0.80475   0.74531   0.56528   0.00000  Uiso   1.00
H1186  H     0.79732   0.67478   0.60559   0.00000  Uiso   1.00
H1187  H     0.74313   0.99676   0.69972   0.00000  Uiso   1.00
H1188  H     0.69863   0.72283   0.75478   0.00000  Uiso   1.00
loop_
_geom_bond_atom_site_label_1
_geom_bond_atom_site_label_2
_geom_bond_distance
_geom_bond_site_symmetry_2
_ccdc_geom_bond_type
C1     C17     1.411   .     S
C1     O47     1.285   .     A
C1     O46     1.284   .     A
C2     C3      1.409   .     A
C2     C598    1.416   .     S
C2     C622    1.420   .     S
C3     C10     1.409   .     A
C3     C7      1.413   .     A
C4     C8      1.392   .     A
C4     C596    1.416   1_554 S
C4     C599    1.422   1_554 S
C5     C6      1.391   .     A
C5     C598    1.422   .     S
C5     C618    1.403   .     S
C6     C7      1.385   .     A
C6     H36     1.084   .     S
C7     H42     1.082   .     S
C8     C25     1.386   .     A
C8     H38     1.078   .     S
C9     C24     1.392   .     A
C9     H29     1.083   .     S
C9     C25     1.398   .     A
C10    C26     1.401   .     A
C10    C12     1.456   .     S
C11    H43     1.084   .     S
C11    C17     1.394   .     A
C11    C211    1.371   .     S
C12    O48     1.293   .     A
C12    O49     1.296   .     A
C13    C14     1.396   .     A
C13    H30     1.084   .     S
C13    C407    1.371   1_545 S
C14    C15     1.394   .     A
C14    C22     1.410   .     S
C15    H31     1.084   .     S
C15    C412    1.373   1_545 S
C16    H32     1.084   .     S
C16    C17     1.396   .     A
C16    C213    1.373   .     S
C18    H33     1.083   .     S
C18    N45     1.355   .     A
C18    C85     1.416   .     S
C19    C56     1.471   .     S
C19    N44     1.384   .     A
C19    C150    1.416   1_455 S
C20    H34     1.082   .     S
C20    N44     1.367   .     A
C20    C153    1.420   1_455 S
C21    H35     1.082   .     S
C21    N45     1.369   .     A
C21    C86     1.420   .     S
C22    O50     1.287   .     A
C22    O51     1.282   .     A
C23    O52     1.296   .     A
C23    C25     1.447   .     S
C23    O53     1.290   .     A
C24    C599    1.403   1_554 S
C24    H631    1.084   1_554 S
C26    C27     1.387   .     A
C26    H39     1.083   .     S
C27    C622    1.392   .     S
C27    H635    1.083   .     S
C28    H40     1.077   .     S
C28    C621    1.392   1_554 S
C28    C596    1.420   1_554 S
H37    C618    1.084   .     S
H41    C621    1.083   1_554 S
N44    Zn54    2.018   .     S
N45    Zn55    2.018   .     S
O46    Zn54    1.984   .     S
O47    Zn55    1.992   .     S
O48    Zn54    1.964   .     S
O49    Zn55    1.915   .     S
O50    Zn54    1.992   .     S
O51    Zn55    1.984   .     S
O52    Zn54    1.915   .     S
O53    Zn55    1.964   .     S
C56    C57     1.401   .     A
C56    C61     1.404   .     A
C57    C58     1.398   .     A
C57    H62     1.080   .     S
C58    H63     1.082   .     S
C58    C59     1.397   .     A
C59    H64     1.082   .     S
C59    C60     1.397   .     A
C60    C61     1.399   .     A
C60    H461    1.082   1_545 S
C61    H66     1.083   .     S
H65    C258    1.082   .     S
C67    C83     1.411   .     S
C67    O113    1.285   .     A
C67    O112    1.284   .     A
C68    C69     1.409   .     A
C68    C664    1.416   .     S
C68    C688    1.420   .     S
C69    C76     1.409   .     A
C69    C73     1.413   .     A
C70    C74     1.392   .     A
C70    C662    1.416   1_554 S
C70    C665    1.422   1_554 S
C71    C72     1.391   .     A
C71    C664    1.422   .     S
C71    C684    1.403   .     S
C72    C73     1.385   .     A
C72    H102    1.084   .     S
C73    H108    1.082   .     S
C74    C91     1.386   .     A
C74    H104    1.078   .     S
C75    C90     1.392   .     A
C75    H95     1.083   .     S
C75    C91     1.398   .     A
C76    C92     1.401   .     A
C76    C78     1.456   .     S
C77    H109    1.084   .     S
C77    C83     1.394   .     A
C77    C277    1.371   .     S
C78    O114    1.293   .     A
C78    O115    1.296   .     A
C79    C80     1.396   .     A
C79    H96     1.084   .     S
C79    C473    1.371   1_545 S
C80    C81     1.394   .     A
C80    C88     1.410   .     S
C81    H97     1.084   .     S
C81    C478    1.373   1_545 S
C82    H98     1.084   .     S
C82    C83     1.396   .     A
C82    C279    1.373   .     S
C84    H99     1.083   .     S
C84    N111    1.355   .     A
C84    C151    1.416   .     S
C85    C122    1.471   .     S
C85    N110    1.384   .     A
C86    H100    1.082   .     S
C86    N110    1.367   .     A
C87    H101    1.082   .     S
C87    N111    1.369   .     A
C87    C152    1.420   .     S
C88    O116    1.287   .     A
C88    O117    1.282   .     A
C89    O118    1.296   .     A
C89    C91     1.447   .     S
C89    O119    1.290   .     A
C90    C665    1.403   1_554 S
C90    H697    1.084   1_554 S
C92    C93     1.387   .     A
C92    H105    1.083   .     S
C93    C688    1.392   .     S
C93    H701    1.083   .     S
C94    H106    1.077   .     S
C94    C687    1.392   1_554 S
C94    C662    1.420   1_554 S
H103   C684    1.084   .     S
H107   C687    1.083   1_554 S
N110   Zn120   2.018   .     S
N111   Zn121   2.018   .     S
O112   Zn120   1.984   .     S
O113   Zn121   1.992   .     S
O114   Zn120   1.964   .     S
O115   Zn121   1.915   .     S
O116   Zn120   1.992   .     S
O117   Zn121   1.984   .     S
O118   Zn120   1.915   .     S
O119   Zn121   1.964   .     S
C122   C123    1.401   .     A
C122   C127    1.404   .     A
C123   C124    1.398   .     A
C123   H128    1.080   .     S
C124   H129    1.082   .     S
C124   C125    1.397   .     A
C125   H130    1.082   .     S
C125   C126    1.397   .     A
C126   C127    1.399   .     A
C126   H527    1.082   1_545 S
C127   H132    1.083   .     S
H131   C324    1.082   .     S
C133   C149    1.411   .     S
C133   O179    1.285   .     A
C133   O178    1.284   .     A
C134   C135    1.409   .     A
C134   C730    1.416   .     S
C134   C754    1.420   .     S
C135   C142    1.409   .     A
C135   C139    1.413   .     A
C136   C140    1.392   .     A
C136   C728    1.416   1_554 S
C136   C731    1.422   1_554 S
C137   C138    1.391   .     A
C137   C730    1.422   .     S
C137   C750    1.403   .     S
C138   C139    1.385   .     A
C138   H168    1.084   .     S
C139   H174    1.082   .     S
C140   C157    1.386   .     A
C140   H170    1.078   .     S
C141   C156    1.392   .     A
C141   H161    1.083   .     S
C141   C157    1.398   .     A
C142   C158    1.401   .     A
C142   C144    1.456   .     S
C143   H175    1.084   .     S
C143   C149    1.394   .     A
C143   C343    1.371   .     S
C144   O180    1.293   .     A
C144   O181    1.296   .     A
C145   C146    1.396   .     A
C145   H162    1.084   .     S
C145   C539    1.371   1_545 S
C146   C147    1.394   .     A
C146   C154    1.410   .     S
C147   H163    1.084   .     S
C147   C544    1.373   1_545 S
C148   H164    1.084   .     S
C148   C149    1.396   .     A
C148   C345    1.373   .     S
C150   H165    1.083   .     S
C150   N177    1.355   .     A
C150   C19     1.416   1_655 S
C151   C188    1.471   .     S
C151   N176    1.384   .     A
C152   H166    1.082   .     S
C152   N176    1.367   .     A
C153   H167    1.082   .     S
C153   N177    1.369   .     A
C153   C20     1.420   1_655 S
C154   O182    1.287   .     A
C154   O183    1.282   .     A
C155   O184    1.296   .     A
C155   C157    1.447   .     S
C155   O185    1.290   .     A
C156   C731    1.403   1_554 S
C156   H763    1.084   1_554 S
C158   C159    1.387   .     A
C158   H171    1.083   .     S
C159   C754    1.392   .     S
C159   H767    1.083   .     S
C160   H172    1.077   .     S
C160   C753    1.392   1_554 S
C160   C728    1.420   1_554 S
H169   C750    1.084   .     S
H173   C753    1.083   1_554 S
N176   Zn186   2.018   .     S
N177   Zn187   2.018   .     S
O178   Zn186   1.984   .     S
O179   Zn187   1.992   .     S
O180   Zn186   1.964   .     S
O181   Zn187   1.915   .     S
O182   Zn186   1.992   .     S
O183   Zn187   1.984   .     S
O184   Zn186   1.915   .     S
O185   Zn187   1.964   .     S
C188   C189    1.401   .     A
C188   C193    1.404   .     A
C189   C190    1.398   .     A
C189   H194    1.080   .     S
C190   H195    1.082   .     S
C190   C191    1.397   .     A
C191   H196    1.082   .     S
C191   C192    1.397   .     A
C192   C193    1.399   .     A
C192   H593    1.082   1_545 S
C193   H198    1.083   .     S
H197   C390    1.082   .     S
C199   C215    1.411   .     S
C199   O245    1.285   .     A
C199   O244    1.284   .     A
C200   C201    1.409   .     A
C200   C796    1.416   .     S
C200   C820    1.420   .     S
C201   C208    1.409   .     A
C201   C205    1.413   .     A
C202   C206    1.392   .     A
C202   C794    1.416   1_554 S
C202   C797    1.422   1_554 S
C203   C204    1.391   .     A
C203   C796    1.422   .     S
C203   C816    1.403   .     S
C204   C205    1.385   .     A
C204   H234    1.084   .     S
C205   H240    1.082   .     S
C206   C223    1.386   .     A
C206   H236    1.078   .     S
C207   C222    1.392   .     A
C207   H227    1.083   .     S
C207   C223    1.398   .     A
C208   C224    1.401   .     A
C208   C210    1.456   .     S
C209   H241    1.084   .     S
C209   C215    1.394   .     A
C209   C409    1.371   .     S
C210   O246    1.293   .     A
C210   O247    1.296   .     A
C211   C212    1.396   .     A
C211   H228    1.084   .     S
C212   C213    1.394   .     A
C212   C220    1.410   .     S
C213   H229    1.084   .     S
C214   H230    1.084   .     S
C214   C215    1.396   .     A
C214   C411    1.373   .     S
C216   H231    1.083   .     S
C216   N243    1.355   .     A
C216   C283    1.416   .     S
C217   C254    1.471   .     S
C217   N242    1.384   .     A
C217   C348    1.416   1_455 S
C218   H232    1.082   .     S
C218   N242    1.367   .     A
C218   C351    1.420   1_455 S
C219   H233    1.082   .     S
C219   N243    1.369   .     A
C219   C284    1.420   .     S
C220   O248    1.287   .     A
C220   O249    1.282   .     A
C221   O250    1.296   .     A
C221   C223    1.447   .     S
C221   O251    1.290   .     A
C222   C797    1.403   1_554 S
C222   H829    1.084   1_554 S
C224   C225    1.387   .     A
C224   H237    1.083   .     S
C225   C820    1.392   .     S
C225   H833    1.083   .     S
C226   H238    1.077   .     S
C226   C819    1.392   1_554 S
C226   C794    1.420   1_554 S
H235   C816    1.084   .     S
H239   C819    1.083   1_554 S
N242   Zn252   2.018   .     S
N243   Zn253   2.018   .     S
O244   Zn252   1.984   .     S
O245   Zn253   1.992   .     S
O246   Zn252   1.964   .     S
O247   Zn253   1.915   .     S
O248   Zn252   1.992   .     S
O249   Zn253   1.984   .     S
O250   Zn252   1.915   .     S
O251   Zn253   1.964   .     S
C254   C255    1.401   .     A
C254   C259    1.404   .     A
C255   C256    1.398   .     A
C255   H260    1.080   .     S
C256   H261    1.082   .     S
C256   C257    1.397   .     A
C257   H262    1.082   .     S
C257   C258    1.397   .     A
C258   C259    1.399   .     A
C259   H264    1.083   .     S
H263   C456    1.082   .     S
C265   C281    1.411   .     S
C265   O311    1.285   .     A
C265   O310    1.284   .     A
C266   C267    1.409   .     A
C266   C862    1.416   .     S
C266   C886    1.420   .     S
C267   C274    1.409   .     A
C267   C271    1.413   .     A
C268   C272    1.392   .     A
C268   C860    1.416   1_554 S
C268   C863    1.422   1_554 S
C269   C270    1.391   .     A
C269   C862    1.422   .     S
C269   C882    1.403   .     S
C270   C271    1.385   .     A
C270   H300    1.084   .     S
C271   H306    1.082   .     S
C272   C289    1.386   .     A
C272   H302    1.078   .     S
C273   C288    1.392   .     A
C273   H293    1.083   .     S
C273   C289    1.398   .     A
C274   C290    1.401   .     A
C274   C276    1.456   .     S
C275   H307    1.084   .     S
C275   C281    1.394   .     A
C275   C475    1.371   .     S
C276   O312    1.293   .     A
C276   O313    1.296   .     A
C277   C278    1.396   .     A
C277   H294    1.084   .     S
C278   C279    1.394   .     A
C278   C286    1.410   .     S
C279   H295    1.084   .     S
C280   H296    1.084   .     S
C280   C281    1.396   .     A
C280   C477    1.373   .     S
C282   H297    1.083   .     S
C282   N309    1.355   .     A
C282   C349    1.416   .     S
C283   C320    1.471   .     S
C283   N308    1.384   .     A
C284   H298    1.082   .     S
C284   N308    1.367   .     A
C285   H299    1.082   .     S
C285   N309    1.369   .     A
C285   C350    1.420   .     S
C286   O314    1.287   .     A
C286   O315    1.282   .     A
C287   O316    1.296   .     A
C287   C289    1.447   .     S
C287   O317    1.290   .     A
C288   C863    1.403   1_554 S
C288   H895    1.084   1_554 S
C290   C291    1.387   .     A
C290   H303    1.083   .     S
C291   C886    1.392   .     S
C291   H899    1.083   .     S
C292   H304    1.077   .     S
C292   C885    1.392   1_554 S
C292   C860    1.420   1_554 S
H301   C882    1.084   .     S
H305   C885    1.083   1_554 S
N308   Zn318   2.018   .     S
N309   Zn319   2.018   .     S
O310   Zn318   1.984   .     S
O311   Zn319   1.992   .     S
O312   Zn318   1.964   .     S
O313   Zn319   1.915   .     S
O314   Zn318   1.992   .     S
O315   Zn319   1.984   .     S
O316   Zn318   1.915   .     S
O317   Zn319   1.964   .     S
C320   C321    1.401   .     A
C320   C325    1.404   .     A
C321   C322    1.398   .     A
C321   H326    1.080   .     S
C322   H327    1.082   .     S
C322   C323    1.397   .     A
C323   H328    1.082   .     S
C323   C324    1.397   .     A
C324   C325    1.399   .     A
C325   H330    1.083   .     S
H329   C522    1.082   .     S
C331   C347    1.411   .     S
C331   O377    1.285   .     A
C331   O376    1.284   .     A
C332   C333    1.409   .     A
C332   C928    1.416   .     S
C332   C952    1.420   .     S
C333   C340    1.409   .     A
C333   C337    1.413   .     A
C334   C338    1.392   .     A
C334   C926    1.416   1_554 S
C334   C929    1.422   1_554 S
C335   C336    1.391   .     A
C335   C928    1.422   .     S
C335   C948    1.403   .     S
C336   C337    1.385   .     A
C336   H366    1.084   .     S
C337   H372    1.082   .     S
C338   C355    1.386   .     A
C338   H368    1.078   .     S
C339   C354    1.392   .     A
C339   H359    1.083   .     S
C339   C355    1.398   .     A
C340   C356    1.401   .     A
C340   C342    1.456   .     S
C341   H373    1.084   .     S
C341   C347    1.394   .     A
C341   C541    1.371   .     S
C342   O378    1.293   .     A
C342   O379    1.296   .     A
C343   C344    1.396   .     A
C343   H360    1.084   .     S
C344   C345    1.394   .     A
C344   C352    1.410   .     S
C345   H361    1.084   .     S
C346   H362    1.084   .     S
C346   C347    1.396   .     A
C346   C543    1.373   .     S
C348   H363    1.083   .     S
C348   N375    1.355   .     A
C348   C217    1.416   1_655 S
C349   C386    1.471   .     S
C349   N374    1.384   .     A
C350   H364    1.082   .     S
C350   N374    1.367   .     A
C351   H365    1.082   .     S
C351   N375    1.369   .     A
C351   C218    1.420   1_655 S
C352   O380    1.287   .     A
C352   O381    1.282   .     A
C353   O382    1.296   .     A
C353   C355    1.447   .     S
C353   O383    1.290   .     A
C354   C929    1.403   1_554 S
C354   H961    1.084   1_554 S
C356   C357    1.387   .     A
C356   H369    1.083   .     S
C357   C952    1.392   .     S
C357   H965    1.083   .     S
C358   H370    1.077   .     S
C358   C951    1.392   1_554 S
C358   C926    1.420   1_554 S
H367   C948    1.084   .     S
H371   C951    1.083   1_554 S
N374   Zn384   2.018   .     S
N375   Zn385   2.018   .     S
O376   Zn384   1.984   .     S
O377   Zn385   1.992   .     S
O378   Zn384   1.964   .     S
O379   Zn385   1.915   .     S
O380   Zn384   1.992   .     S
O381   Zn385   1.984   .     S
O382   Zn384   1.915   .     S
O383   Zn385   1.964   .     S
C386   C387    1.401   .     A
C386   C391    1.404   .     A
C387   C388    1.398   .     A
C387   H392    1.080   .     S
C388   H393    1.082   .     S
C388   C389    1.397   .     A
C389   H394    1.082   .     S
C389   C390    1.397   .     A
C390   C391    1.399   .     A
C391   H396    1.083   .     S
H395   C588    1.082   .     S
C397   C413    1.411   .     S
C397   O443    1.285   .     A
C397   O442    1.284   .     A
C398   C399    1.409   .     A
C398   C994    1.416   .     S
C398   C1018   1.420   .     S
C399   C406    1.409   .     A
C399   C403    1.413   .     A
C400   C404    1.392   .     A
C400   C992    1.416   1_554 S
C400   C995    1.422   1_554 S
C401   C402    1.391   .     A
C401   C994    1.422   .     S
C401   C1014   1.403   .     S
C402   C403    1.385   .     A
C402   H432    1.084   .     S
C403   H438    1.082   .     S
C404   C421    1.386   .     A
C404   H434    1.078   .     S
C405   C420    1.392   .     A
C405   H425    1.083   .     S
C405   C421    1.398   .     A
C406   C422    1.401   .     A
C406   C408    1.456   .     S
C407   H439    1.084   .     S
C407   C413    1.394   .     A
C407   C13     1.371   1_565 S
C408   O444    1.293   .     A
C408   O445    1.296   .     A
C409   C410    1.396   .     A
C409   H426    1.084   .     S
C410   C411    1.394   .     A
C410   C418    1.410   .     S
C411   H427    1.084   .     S
C412   H428    1.084   .     S
C412   C413    1.396   .     A
C412   C15     1.373   1_565 S
C414   H429    1.083   .     S
C414   N441    1.355   .     A
C414   C481    1.416   .     S
C415   C452    1.471   .     S
C415   N440    1.384   .     A
C415   C546    1.416   1_455 S
C416   H430    1.082   .     S
C416   N440    1.367   .     A
C416   C549    1.420   1_455 S
C417   H431    1.082   .     S
C417   N441    1.369   .     A
C417   C482    1.420   .     S
C418   O446    1.287   .     A
C418   O447    1.282   .     A
C419   O448    1.296   .     A
C419   C421    1.447   .     S
C419   O449    1.290   .     A
C420   C995    1.403   1_554 S
C420   H1027   1.084   1_554 S
C422   C423    1.387   .     A
C422   H435    1.083   .     S
C423   C1018   1.392   .     S
C423   H1031   1.083   .     S
C424   H436    1.077   .     S
C424   C1017   1.392   1_554 S
C424   C992    1.420   1_554 S
H433   C1014   1.084   .     S
H437   C1017   1.083   1_554 S
N440   Zn450   2.018   .     S
N441   Zn451   2.018   .     S
O442   Zn450   1.984   .     S
O443   Zn451   1.992   .     S
O444   Zn450   1.964   .     S
O445   Zn451   1.915   .     S
O446   Zn450   1.992   .     S
O447   Zn451   1.984   .     S
O448   Zn450   1.915   .     S
O449   Zn451   1.964   .     S
C452   C453    1.401   .     A
C452   C457    1.404   .     A
C453   C454    1.398   .     A
C453   H458    1.080   .     S
C454   H459    1.082   .     S
C454   C455    1.397   .     A
C455   H460    1.082   .     S
C455   C456    1.397   .     A
C456   C457    1.399   .     A
C457   H462    1.083   .     S
H461   C60     1.082   1_565 S
C463   C479    1.411   .     S
C463   O509    1.285   .     A
C463   O508    1.284   .     A
C464   C465    1.409   .     A
C464   C1060   1.416   .     S
C464   C1084   1.420   .     S
C465   C472    1.409   .     A
C465   C469    1.413   .     A
C466   C470    1.392   .     A
C466   C1058   1.416   1_554 S
C466   C1061   1.422   1_554 S
C467   C468    1.391   .     A
C467   C1060   1.422   .     S
C467   C1080   1.403   .     S
C468   C469    1.385   .     A
C468   H498    1.084   .     S
C469   H504    1.082   .     S
C470   C487    1.386   .     A
C470   H500    1.078   .     S
C471   C486    1.392   .     A
C471   H491    1.083   .     S
C471   C487    1.398   .     A
C472   C488    1.401   .     A
C472   C474    1.456   .     S
C473   H505    1.084   .     S
C473   C479    1.394   .     A
C473   C79     1.371   1_565 S
C474   O510    1.293   .     A
C474   O511    1.296   .     A
C475   C476    1.396   .     A
C475   H492    1.084   .     S
C476   C477    1.394   .     A
C476   C484    1.410   .     S
C477   H493    1.084   .     S
C478   H494    1.084   .     S
C478   C479    1.396   .     A
C478   C81     1.373   1_565 S
C480   H495    1.083   .     S
C480   N507    1.355   .     A
C480   C547    1.416   .     S
C481   C518    1.471   .     S
C481   N506    1.384   .     A
C482   H496    1.082   .     S
C482   N506    1.367   .     A
C483   H497    1.082   .     S
C483   N507    1.369   .     A
C483   C548    1.420   .     S
C484   O512    1.287   .     A
C484   O513    1.282   .     A
C485   O514    1.296   .     A
C485   C487    1.447   .     S
C485   O515    1.290   .     A
C486   C1061   1.403   1_554 S
C486   H1093   1.084   1_554 S
C488   C489    1.387   .     A
C488   H501    1.083   .     S
C489   C1084   1.392   .     S
C489   H1097   1.083   .     S
C490   H502    1.077   .     S
C490   C1083   1.392   1_554 S
C490   C1058   1.420   1_554 S
H499   C1080   1.084   .     S
H503   C1083   1.083   1_554 S
N506   Zn516   2.018   .     S
N507   Zn517   2.018   .     S
O508   Zn516   1.984   .     S
O509   Zn517   1.992   .     S
O510   Zn516   1.964   .     S
O511   Zn517   1.915   .     S
O512   Zn516   1.992   .     S
O513   Zn517   1.984   .     S
O514   Zn516   1.915   .     S
O515   Zn517   1.964   .     S
C518   C519    1.401   .     A
C518   C523    1.404   .     A
C519   C520    1.398   .     A
C519   H524    1.080   .     S
C520   H525    1.082   .     S
C520   C521    1.397   .     A
C521   H526    1.082   .     S
C521   C522    1.397   .     A
C522   C523    1.399   .     A
C523   H528    1.083   .     S
H527   C126    1.082   1_565 S
C529   C545    1.411   .     S
C529   O575    1.285   .     A
C529   O574    1.284   .     A
C530   C531    1.409   .     A
C530   C1126   1.416   .     S
C530   C1150   1.420   .     S
C531   C538    1.409   .     A
C531   C535    1.413   .     A
C532   C536    1.392   .     A
C532   C1124   1.416   1_554 S
C532   C1127   1.422   1_554 S
C533   C534    1.391   .     A
C533   C1126   1.422   .     S
C533   C1146   1.403   .     S
C534   C535    1.385   .     A
C534   H564    1.084   .     S
C535   H570    1.082   .     S
C536   C553    1.386   .     A
C536   H566    1.078   .     S
C537   C552    1.392   .     A
C537   H557    1.083   .     S
C537   C553    1.398   .     A
C538   C554    1.401   .     A
C538   C540    1.456   .     S
C539   H571    1.084   .     S
C539   C545    1.394   .     A
C539   C145    1.371   1_565 S
C540   O576    1.293   .     A
C540   O577    1.296   .     A
C541   C542    1.396   .     A
C541   H558    1.084   .     S
C542   C543    1.394   .     A
C542   C550    1.410   .     S
C543   H559    1.084   .     S
C544   H560    1.084   .     S
C544   C545    1.396   .     A
C544   C147    1.373   1_565 S
C546   H561    1.083   .     S
C546   N573    1.355   .     A
C546   C415    1.416   1_655 S
C547   C584    1.471   .     S
C547   N572    1.384   .     A
C548   H562    1.082   .     S
C548   N572    1.367   .     A
C549   H563    1.082   .     S
C549   N573    1.369   .     A
C549   C416    1.420   1_655 S
C550   O578    1.287   .     A
C550   O579    1.282   .     A
C551   O580    1.296   .     A
C551   C553    1.447   .     S
C551   O581    1.290   .     A
C552   C1127   1.403   1_554 S
C552   H1159   1.084   1_554 S
C554   C555    1.387   .     A
C554   H567    1.083   .     S
C555   C1150   1.392   .     S
C555   H1163   1.083   .     S
C556   H568    1.077   .     S
C556   C1149   1.392   1_554 S
C556   C1124   1.420   1_554 S
H565   C1146   1.084   .     S
H569   C1149   1.083   1_554 S
N572   Zn582   2.018   .     S
N573   Zn583   2.018   .     S
O574   Zn582   1.984   .     S
O575   Zn583   1.992   .     S
O576   Zn582   1.964   .     S
O577   Zn583   1.915   .     S
O578   Zn582   1.992   .     S
O579   Zn583   1.984   .     S
O580   Zn582   1.915   .     S
O581   Zn583   1.964   .     S
C584   C585    1.401   .     A
C584   C589    1.404   .     A
C585   C586    1.398   .     A
C585   H590    1.080   .     S
C586   H591    1.082   .     S
C586   C587    1.397   .     A
C587   H592    1.082   .     S
C587   C588    1.397   .     A
C588   C589    1.399   .     A
C589   H594    1.083   .     S
H593   C192    1.082   1_565 S
C595   C611    1.411   .     S
C595   O641    1.285   .     A
C595   O640    1.284   .     A
C596   C597    1.409   .     A
C596   C4      1.416   1_556 S
C596   C28     1.420   1_556 S
C597   C604    1.409   .     A
C597   C601    1.413   .     A
C598   C602    1.392   .     A
C599   C600    1.391   .     A
C599   C4      1.422   1_556 S
C599   C24     1.403   1_556 S
C600   C601    1.385   .     A
C600   H630    1.084   .     S
C601   H636    1.082   .     S
C602   C619    1.386   .     A
C602   H632    1.078   .     S
C603   C618    1.392   .     A
C603   H623    1.083   .     S
C603   C619    1.398   .     A
C604   C620    1.401   .     A
C604   C606    1.456   .     S
C605   H637    1.084   .     S
C605   C611    1.394   .     A
C605   C805    1.371   .     S
C606   O642    1.293   .     A
C606   O643    1.296   .     A
C607   C608    1.396   .     A
C607   H624    1.084   .     S
C607   C1001   1.371   1_545 S
C608   C609    1.394   .     A
C608   C616    1.410   .     S
C609   H625    1.084   .     S
C609   C1006   1.373   1_545 S
C610   H626    1.084   .     S
C610   C611    1.396   .     A
C610   C807    1.373   .     S
C612   H627    1.083   .     S
C612   N639    1.355   .     A
C612   C679    1.416   .     S
C613   C650    1.471   .     S
C613   N638    1.384   .     A
C613   C744    1.416   1_455 S
C614   H628    1.082   .     S
C614   N638    1.367   .     A
C614   C747    1.420   1_455 S
C615   H629    1.082   .     S
C615   N639    1.369   .     A
C615   C680    1.420   .     S
C616   O644    1.287   .     A
C616   O645    1.282   .     A
C617   O646    1.296   .     A
C617   C619    1.447   .     S
C617   O647    1.290   .     A
C620   C621    1.387   .     A
C620   H633    1.083   .     S
C621   C28     1.392   1_556 S
C621   H41     1.083   1_556 S
C622   H634    1.077   .     S
H631   C24     1.084   1_556 S
N638   Zn648   2.018   .     S
N639   Zn649   2.018   .     S
O640   Zn648   1.984   .     S
O641   Zn649   1.992   .     S
O642   Zn648   1.964   .     S
O643   Zn649   1.915   .     S
O644   Zn648   1.992   .     S
O645   Zn649   1.984   .     S
O646   Zn648   1.915   .     S
O647   Zn649   1.964   .     S
C650   C651    1.401   .     A
C650   C655    1.404   .     A
C651   C652    1.398   .     A
C651   H656    1.080   .     S
C652   H657    1.082   .     S
C652   C653    1.397   .     A
C653   H658    1.082   .     S
C653   C654    1.397   .     A
C654   C655    1.399   .     A
C654   H1055   1.082   1_545 S
C655   H660    1.083   .     S
H659   C852    1.082   .     S
C661   C677    1.411   .     S
C661   O707    1.285   .     A
C661   O706    1.284   .     A
C662   C663    1.409   .     A
C662   C70     1.416   1_556 S
C662   C94     1.420   1_556 S
C663   C670    1.409   .     A
C663   C667    1.413   .     A
C664   C668    1.392   .     A
C665   C666    1.391   .     A
C665   C70     1.422   1_556 S
C665   C90     1.403   1_556 S
C666   C667    1.385   .     A
C666   H696    1.084   .     S
C667   H702    1.082   .     S
C668   C685    1.386   .     A
C668   H698    1.078   .     S
C669   C684    1.392   .     A
C669   H689    1.083   .     S
C669   C685    1.398   .     A
C670   C686    1.401   .     A
C670   C672    1.456   .     S
C671   H703    1.084   .     S
C671   C677    1.394   .     A
C671   C871    1.371   .     S
C672   O708    1.293   .     A
C672   O709    1.296   .     A
C673   C674    1.396   .     A
C673   H690    1.084   .     S
C673   C1067   1.371   1_545 S
C674   C675    1.394   .     A
C674   C682    1.410   .     S
C675   H691    1.084   .     S
C675   C1072   1.373   1_545 S
C676   H692    1.084   .     S
C676   C677    1.396   .     A
C676   C873    1.373   .     S
C678   H693    1.083   .     S
C678   N705    1.355   .     A
C678   C745    1.416   .     S
C679   C716    1.471   .     S
C679   N704    1.384   .     A
C680   H694    1.082   .     S
C680   N704    1.367   .     A
C681   H695    1.082   .     S
C681   N705    1.369   .     A
C681   C746    1.420   .     S
C682   O710    1.287   .     A
C682   O711    1.282   .     A
C683   O712    1.296   .     A
C683   C685    1.447   .     S
C683   O713    1.290   .     A
C686   C687    1.387   .     A
C686   H699    1.083   .     S
C687   C94     1.392   1_556 S
C687   H107    1.083   1_556 S
C688   H700    1.077   .     S
H697   C90     1.084   1_556 S
N704   Zn714   2.018   .     S
N705   Zn715   2.018   .     S
O706   Zn714   1.984   .     S
O707   Zn715   1.992   .     S
O708   Zn714   1.964   .     S
O709   Zn715   1.915   .     S
O710   Zn714   1.992   .     S
O711   Zn715   1.984   .     S
O712   Zn714   1.915   .     S
O713   Zn715   1.964   .     S
C716   C717    1.401   .     A
C716   C721    1.404   .     A
C717   C718    1.398   .     A
C717   H722    1.080   .     S
C718   H723    1.082   .     S
C718   C719    1.397   .     A
C719   H724    1.082   .     S
C719   C720    1.397   .     A
C720   C721    1.399   .     A
C720   H1121   1.082   1_545 S
C721   H726    1.083   .     S
H725   C918    1.082   .     S
C727   C743    1.411   .     S
C727   O773    1.285   .     A
C727   O772    1.284   .     A
C728   C729    1.409   .     A
C728   C136    1.416   1_556 S
C728   C160    1.420   1_556 S
C729   C736    1.409   .     A
C729   C733    1.413   .     A
C730   C734    1.392   .     A
C731   C732    1.391   .     A
C731   C136    1.422   1_556 S
C731   C156    1.403   1_556 S
C732   C733    1.385   .     A
C732   H762    1.084   .     S
C733   H768    1.082   .     S
C734   C751    1.386   .     A
C734   H764    1.078   .     S
C735   C750    1.392   .     A
C735   H755    1.083   .     S
C735   C751    1.398   .     A
C736   C752    1.401   .     A
C736   C738    1.456   .     S
C737   H769    1.084   .     S
C737   C743    1.394   .     A
C737   C937    1.371   .     S
C738   O774    1.293   .     A
C738   O775    1.296   .     A
C739   C740    1.396   .     A
C739   H756    1.084   .     S
C739   C1133   1.371   1_545 S
C740   C741    1.394   .     A
C740   C748    1.410   .     S
C741   H757    1.084   .     S
C741   C1138   1.373   1_545 S
C742   H758    1.084   .     S
C742   C743    1.396   .     A
C742   C939    1.373   .     S
C744   H759    1.083   .     S
C744   N771    1.355   .     A
C744   C613    1.416   1_655 S
C745   C782    1.471   .     S
C745   N770    1.384   .     A
C746   H760    1.082   .     S
C746   N770    1.367   .     A
C747   H761    1.082   .     S
C747   N771    1.369   .     A
C747   C614    1.420   1_655 S
C748   O776    1.287   .     A
C748   O777    1.282   .     A
C749   O778    1.296   .     A
C749   C751    1.447   .     S
C749   O779    1.290   .     A
C752   C753    1.387   .     A
C752   H765    1.083   .     S
C753   C160    1.392   1_556 S
C753   H173    1.083   1_556 S
C754   H766    1.077   .     S
H763   C156    1.084   1_556 S
N770   Zn780   2.018   .     S
N771   Zn781   2.018   .     S
O772   Zn780   1.984   .     S
O773   Zn781   1.992   .     S
O774   Zn780   1.964   .     S
O775   Zn781   1.915   .     S
O776   Zn780   1.992   .     S
O777   Zn781   1.984   .     S
O778   Zn780   1.915   .     S
O779   Zn781   1.964   .     S
C782   C783    1.401   .     A
C782   C787    1.404   .     A
C783   C784    1.398   .     A
C783   H788    1.080   .     S
C784   H789    1.082   .     S
C784   C785    1.397   .     A
C785   H790    1.082   .     S
C785   C786    1.397   .     A
C786   C787    1.399   .     A
C786   H1187   1.082   1_545 S
C787   H792    1.083   .     S
H791   C984    1.082   .     S
C793   C809    1.411   .     S
C793   O839    1.285   .     A
C793   O838    1.284   .     A
C794   C795    1.409   .     A
C794   C202    1.416   1_556 S
C794   C226    1.420   1_556 S
C795   C802    1.409   .     A
C795   C799    1.413   .     A
C796   C800    1.392   .     A
C797   C798    1.391   .     A
C797   C202    1.422   1_556 S
C797   C222    1.403   1_556 S
C798   C799    1.385   .     A
C798   H828    1.084   .     S
C799   H834    1.082   .     S
C800   C817    1.386   .     A
C800   H830    1.078   .     S
C801   C816    1.392   .     A
C801   H821    1.083   .     S
C801   C817    1.398   .     A
C802   C818    1.401   .     A
C802   C804    1.456   .     S
C803   H835    1.084   .     S
C803   C809    1.394   .     A
C803   C1003   1.371   .     S
C804   O840    1.293   .     A
C804   O841    1.296   .     A
C805   C806    1.396   .     A
C805   H822    1.084   .     S
C806   C807    1.394   .     A
C806   C814    1.410   .     S
C807   H823    1.084   .     S
C808   H824    1.084   .     S
C808   C809    1.396   .     A
C808   C1005   1.373   .     S
C810   H825    1.083   .     S
C810   N837    1.355   .     A
C810   C877    1.416   .     S
C811   C848    1.471   .     S
C811   N836    1.384   .     A
C811   C942    1.416   1_455 S
C812   H826    1.082   .     S
C812   N836    1.367   .     A
C812   C945    1.420   1_455 S
C813   H827    1.082   .     S
C813   N837    1.369   .     A
C813   C878    1.420   .     S
C814   O842    1.287   .     A
C814   O843    1.282   .     A
C815   O844    1.296   .     A
C815   C817    1.447   .     S
C815   O845    1.290   .     A
C818   C819    1.387   .     A
C818   H831    1.083   .     S
C819   C226    1.392   1_556 S
C819   H239    1.083   1_556 S
C820   H832    1.077   .     S
H829   C222    1.084   1_556 S
N836   Zn846   2.018   .     S
N837   Zn847   2.018   .     S
O838   Zn846   1.984   .     S
O839   Zn847   1.992   .     S
O840   Zn846   1.964   .     S
O841   Zn847   1.915   .     S
O842   Zn846   1.992   .     S
O843   Zn847   1.984   .     S
O844   Zn846   1.915   .     S
O845   Zn847   1.964   .     S
C848   C849    1.401   .     A
C848   C853    1.404   .     A
C849   C850    1.398   .     A
C849   H854    1.080   .     S
C850   H855    1.082   .     S
C850   C851    1.397   .     A
C851   H856    1.082   .     S
C851   C852    1.397   .     A
C852   C853    1.399   .     A
C853   H858    1.083   .     S
H857   C1050   1.082   .     S
C859   C875    1.411   .     S
C859   O905    1.285   .     A
C859   O904    1.284   .     A
C860   C861    1.409   .     A
C860   C268    1.416   1_556 S
C860   C292    1.420   1_556 S
C861   C868    1.409   .     A
C861   C865    1.413   .     A
C862   C866    1.392   .     A
C863   C864    1.391   .     A
C863   C268    1.422   1_556 S
C863   C288    1.403   1_556 S
C864   C865    1.385   .     A
C864   H894    1.084   .     S
C865   H900    1.082   .     S
C866   C883    1.386   .     A
C866   H896    1.078   .     S
C867   C882    1.392   .     A
C867   H887    1.083   .     S
C867   C883    1.398   .     A
C868   C884    1.401   .     A
C868   C870    1.456   .     S
C869   H901    1.084   .     S
C869   C875    1.394   .     A
C869   C1069   1.371   .     S
C870   O906    1.293   .     A
C870   O907    1.296   .     A
C871   C872    1.396   .     A
C871   H888    1.084   .     S
C872   C873    1.394   .     A
C872   C880    1.410   .     S
C873   H889    1.084   .     S
C874   H890    1.084   .     S
C874   C875    1.396   .     A
C874   C1071   1.373   .     S
C876   H891    1.083   .     S
C876   N903    1.355   .     A
C876   C943    1.416   .     S
C877   C914    1.471   .     S
C877   N902    1.384   .     A
C878   H892    1.082   .     S
C878   N902    1.367   .     A
C879   H893    1.082   .     S
C879   N903    1.369   .     A
C879   C944    1.420   .     S
C880   O908    1.287   .     A
C880   O909    1.282   .     A
C881   O910    1.296   .     A
C881   C883    1.447   .     S
C881   O911    1.290   .     A
C884   C885    1.387   .     A
C884   H897    1.083   .     S
C885   C292    1.392   1_556 S
C885   H305    1.083   1_556 S
C886   H898    1.077   .     S
H895   C288    1.084   1_556 S
N902   Zn912   2.018   .     S
N903   Zn913   2.018   .     S
O904   Zn912   1.984   .     S
O905   Zn913   1.992   .     S
O906   Zn912   1.964   .     S
O907   Zn913   1.915   .     S
O908   Zn912   1.992   .     S
O909   Zn913   1.984   .     S
O910   Zn912   1.915   .     S
O911   Zn913   1.964   .     S
C914   C915    1.401   .     A
C914   C919    1.404   .     A
C915   C916    1.398   .     A
C915   H920    1.080   .     S
C916   H921    1.082   .     S
C916   C917    1.397   .     A
C917   H922    1.082   .     S
C917   C918    1.397   .     A
C918   C919    1.399   .     A
C919   H924    1.083   .     S
H923   C1116   1.082   .     S
C925   C941    1.411   .     S
C925   O971    1.285   .     A
C925   O970    1.284   .     A
C926   C927    1.409   .     A
C926   C334    1.416   1_556 S
C926   C358    1.420   1_556 S
C927   C934    1.409   .     A
C927   C931    1.413   .     A
C928   C932    1.392   .     A
C929   C930    1.391   .     A
C929   C334    1.422   1_556 S
C929   C354    1.403   1_556 S
C930   C931    1.385   .     A
C930   H960    1.084   .     S
C931   H966    1.082   .     S
C932   C949    1.386   .     A
C932   H962    1.078   .     S
C933   C948    1.392   .     A
C933   H953    1.083   .     S
C933   C949    1.398   .     A
C934   C950    1.401   .     A
C934   C936    1.456   .     S
C935   H967    1.084   .     S
C935   C941    1.394   .     A
C935   C1135   1.371   .     S
C936   O972    1.293   .     A
C936   O973    1.296   .     A
C937   C938    1.396   .     A
C937   H954    1.084   .     S
C938   C939    1.394   .     A
C938   C946    1.410   .     S
C939   H955    1.084   .     S
C940   H956    1.084   .     S
C940   C941    1.396   .     A
C940   C1137   1.373   .     S
C942   H957    1.083   .     S
C942   N969    1.355   .     A
C942   C811    1.416   1_655 S
C943   C980    1.471   .     S
C943   N968    1.384   .     A
C944   H958    1.082   .     S
C944   N968    1.367   .     A
C945   H959    1.082   .     S
C945   N969    1.369   .     A
C945   C812    1.420   1_655 S
C946   O974    1.287   .     A
C946   O975    1.282   .     A
C947   O976    1.296   .     A
C947   C949    1.447   .     S
C947   O977    1.290   .     A
C950   C951    1.387   .     A
C950   H963    1.083   .     S
C951   C358    1.392   1_556 S
C951   H371    1.083   1_556 S
C952   H964    1.077   .     S
H961   C354    1.084   1_556 S
N968   Zn978   2.018   .     S
N969   Zn979   2.018   .     S
O970   Zn978   1.984   .     S
O971   Zn979   1.992   .     S
O972   Zn978   1.964   .     S
O973   Zn979   1.915   .     S
O974   Zn978   1.992   .     S
O975   Zn979   1.984   .     S
O976   Zn978   1.915   .     S
O977   Zn979   1.964   .     S
C980   C981    1.401   .     A
C980   C985    1.404   .     A
C981   C982    1.398   .     A
C981   H986    1.080   .     S
C982   H987    1.082   .     S
C982   C983    1.397   .     A
C983   H988    1.082   .     S
C983   C984    1.397   .     A
C984   C985    1.399   .     A
C985   H990    1.083   .     S
H989   C1182   1.082   .     S
C991   C1007   1.411   .     S
C991   O1037   1.285   .     A
C991   O1036   1.284   .     A
C992   C993    1.409   .     A
C992   C400    1.416   1_556 S
C992   C424    1.420   1_556 S
C993   C1000   1.409   .     A
C993   C997    1.413   .     A
C994   C998    1.392   .     A
C995   C996    1.391   .     A
C995   C400    1.422   1_556 S
C995   C420    1.403   1_556 S
C996   C997    1.385   .     A
C996   H1026   1.084   .     S
C997   H1032   1.082   .     S
C998   C1015   1.386   .     A
C998   H1028   1.078   .     S
C999   C1014   1.392   .     A
C999   H1019   1.083   .     S
C999   C1015   1.398   .     A
C1000  C1016   1.401   .     A
C1000  C1002   1.456   .     S
C1001  H1033   1.084   .     S
C1001  C1007   1.394   .     A
C1001  C607    1.371   1_565 S
C1002  O1038   1.293   .     A
C1002  O1039   1.296   .     A
C1003  C1004   1.396   .     A
C1003  H1020   1.084   .     S
C1004  C1005   1.394   .     A
C1004  C1012   1.410   .     S
C1005  H1021   1.084   .     S
C1006  H1022   1.084   .     S
C1006  C1007   1.396   .     A
C1006  C609    1.373   1_565 S
C1008  H1023   1.083   .     S
C1008  N1035   1.355   .     A
C1008  C1075   1.416   .     S
C1009  C1046   1.471   .     S
C1009  N1034   1.384   .     A
C1009  C1140   1.416   1_455 S
C1010  H1024   1.082   .     S
C1010  N1034   1.367   .     A
C1010  C1143   1.420   1_455 S
C1011  H1025   1.082   .     S
C1011  N1035   1.369   .     A
C1011  C1076   1.420   .     S
C1012  O1040   1.287   .     A
C1012  O1041   1.282   .     A
C1013  O1042   1.296   .     A
C1013  C1015   1.447   .     S
C1013  O1043   1.290   .     A
C1016  C1017   1.387   .     A
C1016  H1029   1.083   .     S
C1017  C424    1.392   1_556 S
C1017  H437    1.083   1_556 S
C1018  H1030   1.077   .     S
H1027  C420    1.084   1_556 S
N1034  Zn1044  2.018   .     S
N1035  Zn1045  2.018   .     S
O1036  Zn1044  1.984   .     S
O1037  Zn1045  1.992   .     S
O1038  Zn1044  1.964   .     S
O1039  Zn1045  1.915   .     S
O1040  Zn1044  1.992   .     S
O1041  Zn1045  1.984   .     S
O1042  Zn1044  1.915   .     S
O1043  Zn1045  1.964   .     S
C1046  C1047   1.401   .     A
C1046  C1051   1.404   .     A
C1047  C1048   1.398   .     A
C1047  H1052   1.080   .     S
C1048  H1053   1.082   .     S
C1048  C1049   1.397   .     A
C1049  H1054   1.082   .     S
C1049  C1050   1.397   .     A
C1050  C1051   1.399   .     A
C1051  H1056   1.083   .     S
H1055  C654    1.082   1_565 S
C1057  C1073   1.411   .     S
C1057  O1103   1.285   .     A
C1057  O1102   1.284   .     A
C1058  C1059   1.409   .     A
C1058  C466    1.416   1_556 S
C1058  C490    1.420   1_556 S
C1059  C1066   1.409   .     A
C1059  C1063   1.413   .     A
C1060  C1064   1.392   .     A
C1061  C1062   1.391   .     A
C1061  C466    1.422   1_556 S
C1061  C486    1.403   1_556 S
C1062  C1063   1.385   .     A
C1062  H1092   1.084   .     S
C1063  H1098   1.082   .     S
C1064  C1081   1.386   .     A
C1064  H1094   1.078   .     S
C1065  C1080   1.392   .     A
C1065  H1085   1.083   .     S
C1065  C1081   1.398   .     A
C1066  C1082   1.401   .     A
C1066  C1068   1.456   .     S
C1067  H1099   1.084   .     S
C1067  C1073   1.394   .     A
C1067  C673    1.371   1_565 S
C1068  O1104   1.293   .     A
C1068  O1105   1.296   .     A
C1069  C1070   1.396   .     A
C1069  H1086   1.084   .     S
C1070  C1071   1.394   .     A
C1070  C1078   1.410   .     S
C1071  H1087   1.084   .     S
C1072  H1088   1.084   .     S
C1072  C1073   1.396   .     A
C1072  C675    1.373   1_565 S
C1074  H1089   1.083   .     S
C1074  N1101   1.355   .     A
C1074  C1141   1.416   .     S
C1075  C1112   1.471   .     S
C1075  N1100   1.384   .     A
C1076  H1090   1.082   .     S
C1076  N1100   1.367   .     A
C1077  H1091   1.082   .     S
C1077  N1101   1.369   .     A
C1077  C1142   1.420   .     S
C1078  O1106   1.287   .     A
C1078  O1107   1.282   .     A
C1079  O1108   1.296   .     A
C1079  C1081   1.447   .     S
C1079  O1109   1.290   .     A
C1082  C1083   1.387   .     A
C1082  H1095   1.083   .     S
C1083  C490    1.392   1_556 S
C1083  H503    1.083   1_556 S
C1084  H1096   1.077   .     S
H1093  C486    1.084   1_556 S
N1100  Zn1110  2.018   .     S
N1101  Zn1111  2.018   .     S
O1102  Zn1110  1.984   .     S
O1103  Zn1111  1.992   .     S
O1104  Zn1110  1.964   .     S
O1105  Zn1111  1.915   .     S
O1106  Zn1110  1.992   .     S
O1107  Zn1111  1.984   .     S
O1108  Zn1110  1.915   .     S
O1109  Zn1111  1.964   .     S
C1112  C1113   1.401   .     A
C1112  C1117   1.404   .     A
C1113  C1114   1.398   .     A
C1113  H1118   1.080   .     S
C1114  H1119   1.082   .     S
C1114  C1115   1.397   .     A
C1115  H1120   1.082   .     S
C1115  C1116   1.397   .     A
C1116  C1117   1.399   .     A
C1117  H1122   1.083   .     S
H1121  C720    1.082   1_565 S
C1123  C1139   1.411   .     S
C1123  O1169   1.285   .     A
C1123  O1168   1.284   .     A
C1124  C1125   1.409   .     A
C1124  C532    1.416   1_556 S
C1124  C556    1.420   1_556 S
C1125  C1132   1.409   .     A
C1125  C1129   1.413   .     A
C1126  C1130   1.392   .     A
C1127  C1128   1.391   .     A
C1127  C532    1.422   1_556 S
C1127  C552    1.403   1_556 S
C1128  C1129   1.385   .     A
C1128  H1158   1.084   .     S
C1129  H1164   1.082   .     S
C1130  C1147   1.386   .     A
C1130  H1160   1.078   .     S
C1131  C1146   1.392   .     A
C1131  H1151   1.083   .     S
C1131  C1147   1.398   .     A
C1132  C1148   1.401   .     A
C1132  C1134   1.456   .     S
C1133  H1165   1.084   .     S
C1133  C1139   1.394   .     A
C1133  C739    1.371   1_565 S
C1134  O1170   1.293   .     A
C1134  O1171   1.296   .     A
C1135  C1136   1.396   .     A
C1135  H1152   1.084   .     S
C1136  C1137   1.394   .     A
C1136  C1144   1.410   .     S
C1137  H1153   1.084   .     S
C1138  H1154   1.084   .     S
C1138  C1139   1.396   .     A
C1138  C741    1.373   1_565 S
C1140  H1155   1.083   .     S
C1140  N1167   1.355   .     A
C1140  C1009   1.416   1_655 S
C1141  C1178   1.471   .     S
C1141  N1166   1.384   .     A
C1142  H1156   1.082   .     S
C1142  N1166   1.367   .     A
C1143  H1157   1.082   .     S
C1143  N1167   1.369   .     A
C1143  C1010   1.420   1_655 S
C1144  O1172   1.287   .     A
C1144  O1173   1.282   .     A
C1145  O1174   1.296   .     A
C1145  C1147   1.447   .     S
C1145  O1175   1.290   .     A
C1148  C1149   1.387   .     A
C1148  H1161   1.083   .     S
C1149  C556    1.392   1_556 S
C1149  H569    1.083   1_556 S
C1150  H1162   1.077   .     S
H1159  C552    1.084   1_556 S
N1166  Zn1176  2.018   .     S
N1167  Zn1177  2.018   .     S
O1168  Zn1176  1.984   .     S
O1169  Zn1177  1.992   .     S
O1170  Zn1176  1.964   .     S
O1171  Zn1177  1.915   .     S
O1172  Zn1176  1.992   .     S
O1173  Zn1177  1.984   .     S
O1174  Zn1176  1.915   .     S
O1175  Zn1177  1.964   .     S
C1178  C1179   1.401   .     A
C1178  C1183   1.404   .     A
C1179  C1180   1.398   .     A
C1179  H1184   1.080   .     S
C1180  H1185   1.082   .     S
C1180  C1181   1.397   .     A
C1181  H1186   1.082   .     S
C1181  C1182   1.397   .     A
C1182  C1183   1.399   .     A
C1183  H1188   1.083   .     S
H1187  C786    1.082   1_565 S
