data_str_m2_o1_o18_pcu_sym.145
_audit_creation_date              2020-01-03
_audit_creation_method            'Materials Studio'
_symmetry_space_group_name_H-M    'P1'
_symmetry_Int_Tables_number       1
_symmetry_cell_setting            triclinic
loop_
_symmetry_equiv_pos_as_xyz
  x,y,z
_cell_length_a                    29.0220
_cell_length_b                    32.4021
_cell_length_c                    31.7391
_cell_angle_alpha                 88.0927
_cell_angle_beta                  72.4213
_cell_angle_gamma                 89.4211
loop_
_atom_site_label
_atom_site_type_symbol
_atom_site_fract_x
_atom_site_fract_y
_atom_site_fract_z
_atom_site_U_iso_or_equiv
_atom_site_adp_type
_atom_site_occupancy
C1     C     0.00009   0.08753   0.25009   0.00000  Uiso   1.00
C2     C     0.33323   0.24581   0.24993   0.00000  Uiso   1.00
C3     C     0.19558   0.15312   0.04562   0.00000  Uiso   1.00
C4     C     0.13779   0.15150   0.45655   0.00000  Uiso   1.00
C5     C     0.24267   0.14366   0.02125   0.00000  Uiso   1.00
C6     C     0.09132   0.14029   0.48169   0.00000  Uiso   1.00
C7     C     0.28953   0.02133   0.26461   0.00000  Uiso   1.00
C8     C     0.04374   0.31205   0.23548   0.00000  Uiso   1.00
C9     C     0.28941   0.31194   0.26460   0.00000  Uiso   1.00
C10    C     0.04385   0.02143   0.23545   0.00000  Uiso   1.00
C11    C     0.33316   0.29051   0.24993   0.00000  Uiso   1.00
C12    C     0.00011   0.04285   0.25015   0.00000  Uiso   1.00
C13    C     0.18395   0.13919   0.27614   0.00000  Uiso   1.00
C14    C     0.14924   0.19487   0.22446   0.00000  Uiso   1.00
C15    C     0.13519   0.13734   0.27406   0.00000  Uiso   1.00
C16    C     0.19935   0.19421   0.22355   0.00000  Uiso   1.00
C17    C     0.30531   0.16613   0.33553   0.00000  Uiso   1.00
C18    C     0.02793   0.16577   0.16465   0.00000  Uiso   1.00
C19    C     0.28858   0.16066   0.38370   0.00000  Uiso   1.00
C20    C     0.04445   0.15897   0.11732   0.00000  Uiso   1.00
C21    C     0.30183   0.13121   0.45003   0.00000  Uiso   1.00
C22    C     0.03207   0.12632   0.05444   0.00000  Uiso   1.00
C23    C     0.31923   0.14244   0.40530   0.00000  Uiso   1.00
C24    C     0.01454   0.13806   0.09803   0.00000  Uiso   1.00
C25    C     0.23988   0.16711   0.40729   0.00000  Uiso   1.00
C26    C     0.09281   0.16652   0.09315   0.00000  Uiso   1.00
C27    C     0.22298   0.15824   0.45308   0.00000  Uiso   1.00
C28    C     0.11023   0.15636   0.04852   0.00000  Uiso   1.00
C29    C     0.25638   0.14512   0.47504   0.00000  Uiso   1.00
C30    C     0.07752   0.14106   0.02787   0.00000  Uiso   1.00
C31    C     0.17344   0.15816   0.47734   0.00000  Uiso   1.00
C32    C     0.15972   0.15812   0.02428   0.00000  Uiso   1.00
Cu33   Cu    0.04689   0.16667   0.25000   0.00000  Uiso   1.00
Cu34   Cu    0.28645   0.16666   0.25000   0.00000  Uiso   1.00
H35    H     0.26837   0.13568   0.03869   0.00000  Uiso   1.00
H36    H     0.06624   0.13209   0.46458   0.00000  Uiso   1.00
H37    H     0.11633   0.18096   0.10908   0.00000  Uiso   1.00
H38    H     0.21576   0.17962   0.38994   0.00000  Uiso   1.00
H39    H     0.31248   0.12735   0.11792   0.00000  Uiso   1.00
H40    H     0.02239   0.13427   0.38720   0.00000  Uiso   1.00
H41    H     0.18675   0.15100   0.08125   0.00000  Uiso   1.00
H42    H     0.14642   0.14966   0.42107   0.00000  Uiso   1.00
H43    H     0.25538   0.03745   0.27634   0.00000  Uiso   1.00
H44    H     0.07789   0.29595   0.22373   0.00000  Uiso   1.00
H45    H     0.25524   0.29573   0.27654   0.00000  Uiso   1.00
H46    H     0.07797   0.03767   0.22336   0.00000  Uiso   1.00
N47    N     0.11736   0.16668   0.24999   0.00000  Uiso   1.00
N48    N     0.21597   0.16666   0.25001   0.00000  Uiso   1.00
O49    O     0.03958   0.10655   0.25000   0.00000  Uiso   1.00
O50    O     0.29375   0.22678   0.25000   0.00000  Uiso   1.00
O51    O     0.29372   0.10654   0.25001   0.00000  Uiso   1.00
O52    O     0.03961   0.22679   0.25000   0.00000  Uiso   1.00
O53    O     0.01852   0.16668   0.31492   0.00000  Uiso   1.00
O54    O     0.31481   0.16666   0.18509   0.00000  Uiso   1.00
O55    O     0.27267   0.16667   0.31492   0.00000  Uiso   1.00
O56    O     0.06067   0.16667   0.18508   0.00000  Uiso   1.00
O57    O     0.32462   0.10121   0.46785   0.00000  Uiso   1.00
H58    H     0.01688   0.08817   0.44379   0.00000  Uiso   1.00
O59    O     0.00792   0.09520   0.04174   0.00000  Uiso   1.00
H60    H     0.03238   0.07816   0.02073   0.00000  Uiso   1.00
O61    O     0.20048   0.11291   0.30355   0.00000  Uiso   1.00
H62    H     0.17278   0.10243   0.32814   0.00000  Uiso   1.00
O63    O     0.13184   0.22212   0.19845   0.00000  Uiso   1.00
H64    H     0.15609   0.24350   0.18433   0.00000  Uiso   1.00
C65    C     0.10765   0.09958   0.29296   0.00000  Uiso   1.00
O66    O     0.06933   0.10143   0.32220   0.00000  Uiso   1.00
O67    O     0.12768   0.06112   0.27893   0.00000  Uiso   1.00
H68    H     0.10661   0.03727   0.29510   0.00000  Uiso   1.00
C69    C     0.23332   0.22283   0.19267   0.00000  Uiso   1.00
O70    O     0.25432   0.21225   0.15512   0.00000  Uiso   1.00
O71    O     0.23710   0.26341   0.20480   0.00000  Uiso   1.00
H72    H     0.26037   0.28055   0.18039   0.00000  Uiso   1.00
C73    C     0.33343   0.08753   0.25009   0.00000  Uiso   1.00
C74    C     0.66656   0.24581   0.24993   0.00000  Uiso   1.00
C75    C     0.52891   0.15312   0.04562   0.00000  Uiso   1.00
C76    C     0.47112   0.15150   0.45655   0.00000  Uiso   1.00
C77    C     0.57600   0.14366   0.02125   0.00000  Uiso   1.00
C78    C     0.42465   0.14029   0.48169   0.00000  Uiso   1.00
C79    C     0.62286   0.02133   0.26461   0.00000  Uiso   1.00
C80    C     0.37707   0.31205   0.23548   0.00000  Uiso   1.00
C81    C     0.62274   0.31194   0.26460   0.00000  Uiso   1.00
C82    C     0.37718   0.02143   0.23545   0.00000  Uiso   1.00
C83    C     0.66650   0.29051   0.24993   0.00000  Uiso   1.00
C84    C     0.33345   0.04285   0.25015   0.00000  Uiso   1.00
C85    C     0.51728   0.13919   0.27614   0.00000  Uiso   1.00
C86    C     0.48257   0.19487   0.22446   0.00000  Uiso   1.00
C87    C     0.46852   0.13734   0.27406   0.00000  Uiso   1.00
C88    C     0.53268   0.19421   0.22355   0.00000  Uiso   1.00
C89    C     0.63865   0.16613   0.33553   0.00000  Uiso   1.00
C90    C     0.36127   0.16577   0.16465   0.00000  Uiso   1.00
C91    C     0.62192   0.16066   0.38370   0.00000  Uiso   1.00
C92    C     0.37778   0.15897   0.11732   0.00000  Uiso   1.00
C93    C     0.63516   0.13121   0.45003   0.00000  Uiso   1.00
C94    C     0.36540   0.12632   0.05444   0.00000  Uiso   1.00
C95    C     0.65257   0.14244   0.40530   0.00000  Uiso   1.00
C96    C     0.34787   0.13806   0.09803   0.00000  Uiso   1.00
C97    C     0.57322   0.16711   0.40729   0.00000  Uiso   1.00
C98    C     0.42614   0.16652   0.09315   0.00000  Uiso   1.00
C99    C     0.55631   0.15824   0.45308   0.00000  Uiso   1.00
C100   C     0.44356   0.15636   0.04852   0.00000  Uiso   1.00
C101   C     0.58971   0.14512   0.47504   0.00000  Uiso   1.00
C102   C     0.41085   0.14106   0.02787   0.00000  Uiso   1.00
C103   C     0.50678   0.15816   0.47734   0.00000  Uiso   1.00
C104   C     0.49306   0.15812   0.02428   0.00000  Uiso   1.00
Cu105  Cu    0.38022   0.16667   0.25000   0.00000  Uiso   1.00
Cu106  Cu    0.61978   0.16666   0.25000   0.00000  Uiso   1.00
H107   H     0.60170   0.13568   0.03869   0.00000  Uiso   1.00
H108   H     0.39957   0.13209   0.46458   0.00000  Uiso   1.00
H109   H     0.44967   0.18096   0.10908   0.00000  Uiso   1.00
H110   H     0.54909   0.17962   0.38994   0.00000  Uiso   1.00
H111   H     0.64581   0.12735   0.11792   0.00000  Uiso   1.00
H112   H     0.35573   0.13427   0.38720   0.00000  Uiso   1.00
H113   H     0.52009   0.15100   0.08125   0.00000  Uiso   1.00
H114   H     0.47975   0.14966   0.42107   0.00000  Uiso   1.00
H115   H     0.58871   0.03745   0.27634   0.00000  Uiso   1.00
H116   H     0.41122   0.29595   0.22373   0.00000  Uiso   1.00
H117   H     0.58858   0.29573   0.27654   0.00000  Uiso   1.00
H118   H     0.41130   0.03767   0.22336   0.00000  Uiso   1.00
N119   N     0.45069   0.16668   0.24999   0.00000  Uiso   1.00
N120   N     0.54931   0.16666   0.25001   0.00000  Uiso   1.00
O121   O     0.37291   0.10655   0.25000   0.00000  Uiso   1.00
O122   O     0.62709   0.22678   0.25000   0.00000  Uiso   1.00
O123   O     0.62706   0.10654   0.25001   0.00000  Uiso   1.00
O124   O     0.37294   0.22679   0.25000   0.00000  Uiso   1.00
O125   O     0.35186   0.16668   0.31492   0.00000  Uiso   1.00
O126   O     0.64814   0.16666   0.18509   0.00000  Uiso   1.00
O127   O     0.60600   0.16667   0.31492   0.00000  Uiso   1.00
O128   O     0.39400   0.16667   0.18508   0.00000  Uiso   1.00
O129   O     0.65796   0.10121   0.46785   0.00000  Uiso   1.00
H130   H     0.35021   0.08817   0.44379   0.00000  Uiso   1.00
O131   O     0.34126   0.09520   0.04174   0.00000  Uiso   1.00
H132   H     0.36572   0.07816   0.02073   0.00000  Uiso   1.00
O133   O     0.53382   0.11291   0.30355   0.00000  Uiso   1.00
H134   H     0.50612   0.10243   0.32814   0.00000  Uiso   1.00
O135   O     0.46518   0.22212   0.19845   0.00000  Uiso   1.00
H136   H     0.48943   0.24350   0.18433   0.00000  Uiso   1.00
C137   C     0.44098   0.09958   0.29296   0.00000  Uiso   1.00
O138   O     0.40266   0.10143   0.32220   0.00000  Uiso   1.00
O139   O     0.46102   0.06112   0.27893   0.00000  Uiso   1.00
H140   H     0.43994   0.03727   0.29510   0.00000  Uiso   1.00
C141   C     0.56665   0.22283   0.19267   0.00000  Uiso   1.00
O142   O     0.58765   0.21225   0.15512   0.00000  Uiso   1.00
O143   O     0.57044   0.26341   0.20480   0.00000  Uiso   1.00
H144   H     0.59371   0.28055   0.18039   0.00000  Uiso   1.00
C145   C     0.66676   0.08753   0.25009   0.00000  Uiso   1.00
C146   C     0.99989   0.24581   0.24993   0.00000  Uiso   1.00
C147   C     0.86225   0.15312   0.04562   0.00000  Uiso   1.00
C148   C     0.80446   0.15150   0.45655   0.00000  Uiso   1.00
C149   C     0.90934   0.14366   0.02125   0.00000  Uiso   1.00
C150   C     0.75798   0.14029   0.48169   0.00000  Uiso   1.00
C151   C     0.95620   0.02133   0.26461   0.00000  Uiso   1.00
C152   C     0.71040   0.31205   0.23548   0.00000  Uiso   1.00
C153   C     0.95607   0.31194   0.26460   0.00000  Uiso   1.00
C154   C     0.71051   0.02143   0.23545   0.00000  Uiso   1.00
C155   C     0.99983   0.29051   0.24993   0.00000  Uiso   1.00
C156   C     0.66678   0.04285   0.25015   0.00000  Uiso   1.00
C157   C     0.85061   0.13919   0.27614   0.00000  Uiso   1.00
C158   C     0.81591   0.19487   0.22446   0.00000  Uiso   1.00
C159   C     0.80186   0.13734   0.27406   0.00000  Uiso   1.00
C160   C     0.86602   0.19421   0.22355   0.00000  Uiso   1.00
C161   C     0.97198   0.16613   0.33553   0.00000  Uiso   1.00
C162   C     0.69460   0.16577   0.16465   0.00000  Uiso   1.00
C163   C     0.95525   0.16066   0.38370   0.00000  Uiso   1.00
C164   C     0.71112   0.15897   0.11732   0.00000  Uiso   1.00
C165   C     0.96850   0.13121   0.45003   0.00000  Uiso   1.00
C166   C     0.69873   0.12632   0.05444   0.00000  Uiso   1.00
C167   C     0.98590   0.14244   0.40530   0.00000  Uiso   1.00
C168   C     0.68121   0.13806   0.09803   0.00000  Uiso   1.00
C169   C     0.90655   0.16711   0.40729   0.00000  Uiso   1.00
C170   C     0.75948   0.16652   0.09315   0.00000  Uiso   1.00
C171   C     0.88964   0.15824   0.45308   0.00000  Uiso   1.00
C172   C     0.77689   0.15636   0.04852   0.00000  Uiso   1.00
C173   C     0.92305   0.14512   0.47504   0.00000  Uiso   1.00
C174   C     0.74418   0.14106   0.02787   0.00000  Uiso   1.00
C175   C     0.84011   0.15816   0.47734   0.00000  Uiso   1.00
C176   C     0.82639   0.15812   0.02428   0.00000  Uiso   1.00
Cu177  Cu    0.71355   0.16667   0.25000   0.00000  Uiso   1.00
Cu178  Cu    0.95311   0.16666   0.25000   0.00000  Uiso   1.00
H179   H     0.93504   0.13568   0.03869   0.00000  Uiso   1.00
H180   H     0.73290   0.13209   0.46458   0.00000  Uiso   1.00
H181   H     0.78300   0.18096   0.10908   0.00000  Uiso   1.00
H182   H     0.88243   0.17962   0.38994   0.00000  Uiso   1.00
H183   H     0.97914   0.12735   0.11792   0.00000  Uiso   1.00
H184   H     0.68906   0.13427   0.38720   0.00000  Uiso   1.00
H185   H     0.85342   0.15100   0.08125   0.00000  Uiso   1.00
H186   H     0.81308   0.14966   0.42107   0.00000  Uiso   1.00
H187   H     0.92204   0.03745   0.27634   0.00000  Uiso   1.00
H188   H     0.74456   0.29595   0.22373   0.00000  Uiso   1.00
H189   H     0.92191   0.29573   0.27654   0.00000  Uiso   1.00
H190   H     0.74464   0.03767   0.22336   0.00000  Uiso   1.00
N191   N     0.78403   0.16668   0.24999   0.00000  Uiso   1.00
N192   N     0.88264   0.16666   0.25001   0.00000  Uiso   1.00
O193   O     0.70625   0.10655   0.25000   0.00000  Uiso   1.00
O194   O     0.96042   0.22678   0.25000   0.00000  Uiso   1.00
O195   O     0.96039   0.10654   0.25001   0.00000  Uiso   1.00
O196   O     0.70628   0.22679   0.25000   0.00000  Uiso   1.00
O197   O     0.68519   0.16668   0.31492   0.00000  Uiso   1.00
O198   O     0.98148   0.16666   0.18509   0.00000  Uiso   1.00
O199   O     0.93933   0.16667   0.31492   0.00000  Uiso   1.00
O200   O     0.72733   0.16667   0.18508   0.00000  Uiso   1.00
O201   O     0.99129   0.10121   0.46785   0.00000  Uiso   1.00
H202   H     0.68354   0.08817   0.44379   0.00000  Uiso   1.00
O203   O     0.67459   0.09520   0.04174   0.00000  Uiso   1.00
H204   H     0.69905   0.07816   0.02073   0.00000  Uiso   1.00
O205   O     0.86715   0.11291   0.30355   0.00000  Uiso   1.00
H206   H     0.83945   0.10243   0.32814   0.00000  Uiso   1.00
O207   O     0.79851   0.22212   0.19845   0.00000  Uiso   1.00
H208   H     0.82276   0.24350   0.18433   0.00000  Uiso   1.00
C209   C     0.77432   0.09958   0.29296   0.00000  Uiso   1.00
O210   O     0.73600   0.10143   0.32220   0.00000  Uiso   1.00
O211   O     0.79435   0.06112   0.27893   0.00000  Uiso   1.00
H212   H     0.77328   0.03727   0.29510   0.00000  Uiso   1.00
C213   C     0.89999   0.22283   0.19267   0.00000  Uiso   1.00
O214   O     0.92098   0.21225   0.15512   0.00000  Uiso   1.00
O215   O     0.90377   0.26341   0.20480   0.00000  Uiso   1.00
H216   H     0.92704   0.28055   0.18039   0.00000  Uiso   1.00
C217   C     0.00009   0.42087   0.25009   0.00000  Uiso   1.00
C218   C     0.33323   0.57914   0.24993   0.00000  Uiso   1.00
C219   C     0.19558   0.48645   0.04562   0.00000  Uiso   1.00
C220   C     0.13779   0.48483   0.45655   0.00000  Uiso   1.00
C221   C     0.24267   0.47700   0.02125   0.00000  Uiso   1.00
C222   C     0.09132   0.47362   0.48169   0.00000  Uiso   1.00
C223   C     0.28953   0.35467   0.26461   0.00000  Uiso   1.00
C224   C     0.04374   0.64538   0.23548   0.00000  Uiso   1.00
C225   C     0.28941   0.64528   0.26460   0.00000  Uiso   1.00
C226   C     0.04385   0.35477   0.23545   0.00000  Uiso   1.00
C227   C     0.33316   0.62385   0.24993   0.00000  Uiso   1.00
C228   C     0.00011   0.37618   0.25015   0.00000  Uiso   1.00
C229   C     0.18395   0.47252   0.27614   0.00000  Uiso   1.00
C230   C     0.14924   0.52821   0.22446   0.00000  Uiso   1.00
C231   C     0.13519   0.47067   0.27406   0.00000  Uiso   1.00
C232   C     0.19935   0.52754   0.22355   0.00000  Uiso   1.00
C233   C     0.30531   0.49946   0.33553   0.00000  Uiso   1.00
C234   C     0.02793   0.49910   0.16465   0.00000  Uiso   1.00
C235   C     0.28858   0.49400   0.38370   0.00000  Uiso   1.00
C236   C     0.04445   0.49230   0.11732   0.00000  Uiso   1.00
C237   C     0.30183   0.46454   0.45003   0.00000  Uiso   1.00
C238   C     0.03207   0.45965   0.05444   0.00000  Uiso   1.00
C239   C     0.31923   0.47577   0.40530   0.00000  Uiso   1.00
C240   C     0.01454   0.47140   0.09803   0.00000  Uiso   1.00
C241   C     0.23988   0.50044   0.40729   0.00000  Uiso   1.00
C242   C     0.09281   0.49985   0.09315   0.00000  Uiso   1.00
C243   C     0.22298   0.49157   0.45308   0.00000  Uiso   1.00
C244   C     0.11023   0.48969   0.04852   0.00000  Uiso   1.00
C245   C     0.25638   0.47845   0.47504   0.00000  Uiso   1.00
C246   C     0.07752   0.47439   0.02787   0.00000  Uiso   1.00
C247   C     0.17344   0.49149   0.47734   0.00000  Uiso   1.00
C248   C     0.15972   0.49146   0.02428   0.00000  Uiso   1.00
Cu249  Cu    0.04689   0.50001   0.25000   0.00000  Uiso   1.00
Cu250  Cu    0.28645   0.49999   0.25000   0.00000  Uiso   1.00
H251   H     0.26837   0.46902   0.03869   0.00000  Uiso   1.00
H252   H     0.06624   0.46543   0.46458   0.00000  Uiso   1.00
H253   H     0.11633   0.51429   0.10908   0.00000  Uiso   1.00
H254   H     0.21576   0.51296   0.38994   0.00000  Uiso   1.00
H255   H     0.31248   0.46068   0.11792   0.00000  Uiso   1.00
H256   H     0.02239   0.46761   0.38720   0.00000  Uiso   1.00
H257   H     0.18675   0.48433   0.08125   0.00000  Uiso   1.00
H258   H     0.14642   0.48299   0.42107   0.00000  Uiso   1.00
H259   H     0.25538   0.37078   0.27634   0.00000  Uiso   1.00
H260   H     0.07789   0.62929   0.22373   0.00000  Uiso   1.00
H261   H     0.25524   0.62906   0.27654   0.00000  Uiso   1.00
H262   H     0.07797   0.37100   0.22336   0.00000  Uiso   1.00
N263   N     0.11736   0.50001   0.24999   0.00000  Uiso   1.00
N264   N     0.21597   0.49999   0.25001   0.00000  Uiso   1.00
O265   O     0.03958   0.43989   0.25000   0.00000  Uiso   1.00
O266   O     0.29375   0.56011   0.25000   0.00000  Uiso   1.00
O267   O     0.29372   0.43988   0.25001   0.00000  Uiso   1.00
O268   O     0.03961   0.56012   0.25000   0.00000  Uiso   1.00
O269   O     0.01852   0.50001   0.31492   0.00000  Uiso   1.00
O270   O     0.31481   0.49999   0.18509   0.00000  Uiso   1.00
O271   O     0.27267   0.50000   0.31492   0.00000  Uiso   1.00
O272   O     0.06067   0.50000   0.18508   0.00000  Uiso   1.00
O273   O     0.32462   0.43455   0.46785   0.00000  Uiso   1.00
H274   H     0.01688   0.42150   0.44379   0.00000  Uiso   1.00
O275   O     0.00792   0.42853   0.04174   0.00000  Uiso   1.00
H276   H     0.03238   0.41149   0.02073   0.00000  Uiso   1.00
O277   O     0.20048   0.44625   0.30355   0.00000  Uiso   1.00
H278   H     0.17278   0.43576   0.32814   0.00000  Uiso   1.00
O279   O     0.13184   0.55546   0.19845   0.00000  Uiso   1.00
H280   H     0.15609   0.57683   0.18433   0.00000  Uiso   1.00
C281   C     0.10765   0.43291   0.29296   0.00000  Uiso   1.00
O282   O     0.06933   0.43476   0.32220   0.00000  Uiso   1.00
O283   O     0.12768   0.39445   0.27893   0.00000  Uiso   1.00
H284   H     0.10661   0.37061   0.29510   0.00000  Uiso   1.00
C285   C     0.23332   0.55617   0.19267   0.00000  Uiso   1.00
O286   O     0.25432   0.54558   0.15512   0.00000  Uiso   1.00
O287   O     0.23710   0.59674   0.20480   0.00000  Uiso   1.00
H288   H     0.26037   0.61389   0.18039   0.00000  Uiso   1.00
C289   C     0.33343   0.42087   0.25009   0.00000  Uiso   1.00
C290   C     0.66656   0.57914   0.24993   0.00000  Uiso   1.00
C291   C     0.52891   0.48645   0.04562   0.00000  Uiso   1.00
C292   C     0.47112   0.48483   0.45655   0.00000  Uiso   1.00
C293   C     0.57600   0.47700   0.02125   0.00000  Uiso   1.00
C294   C     0.42465   0.47362   0.48169   0.00000  Uiso   1.00
C295   C     0.62286   0.35467   0.26461   0.00000  Uiso   1.00
C296   C     0.37707   0.64538   0.23548   0.00000  Uiso   1.00
C297   C     0.62274   0.64528   0.26460   0.00000  Uiso   1.00
C298   C     0.37718   0.35477   0.23545   0.00000  Uiso   1.00
C299   C     0.66650   0.62385   0.24993   0.00000  Uiso   1.00
C300   C     0.33345   0.37618   0.25015   0.00000  Uiso   1.00
C301   C     0.51728   0.47252   0.27614   0.00000  Uiso   1.00
C302   C     0.48257   0.52821   0.22446   0.00000  Uiso   1.00
C303   C     0.46852   0.47067   0.27406   0.00000  Uiso   1.00
C304   C     0.53268   0.52754   0.22355   0.00000  Uiso   1.00
C305   C     0.63865   0.49946   0.33553   0.00000  Uiso   1.00
C306   C     0.36127   0.49910   0.16465   0.00000  Uiso   1.00
C307   C     0.62192   0.49400   0.38370   0.00000  Uiso   1.00
C308   C     0.37778   0.49230   0.11732   0.00000  Uiso   1.00
C309   C     0.63516   0.46454   0.45003   0.00000  Uiso   1.00
C310   C     0.36540   0.45965   0.05444   0.00000  Uiso   1.00
C311   C     0.65257   0.47577   0.40530   0.00000  Uiso   1.00
C312   C     0.34787   0.47140   0.09803   0.00000  Uiso   1.00
C313   C     0.57322   0.50044   0.40729   0.00000  Uiso   1.00
C314   C     0.42614   0.49985   0.09315   0.00000  Uiso   1.00
C315   C     0.55631   0.49157   0.45308   0.00000  Uiso   1.00
C316   C     0.44356   0.48969   0.04852   0.00000  Uiso   1.00
C317   C     0.58971   0.47845   0.47504   0.00000  Uiso   1.00
C318   C     0.41085   0.47439   0.02787   0.00000  Uiso   1.00
C319   C     0.50678   0.49149   0.47734   0.00000  Uiso   1.00
C320   C     0.49306   0.49146   0.02428   0.00000  Uiso   1.00
Cu321  Cu    0.38022   0.50001   0.25000   0.00000  Uiso   1.00
Cu322  Cu    0.61978   0.49999   0.25000   0.00000  Uiso   1.00
H323   H     0.60170   0.46902   0.03869   0.00000  Uiso   1.00
H324   H     0.39957   0.46543   0.46458   0.00000  Uiso   1.00
H325   H     0.44967   0.51429   0.10908   0.00000  Uiso   1.00
H326   H     0.54909   0.51296   0.38994   0.00000  Uiso   1.00
H327   H     0.64581   0.46068   0.11792   0.00000  Uiso   1.00
H328   H     0.35573   0.46761   0.38720   0.00000  Uiso   1.00
H329   H     0.52009   0.48433   0.08125   0.00000  Uiso   1.00
H330   H     0.47975   0.48299   0.42107   0.00000  Uiso   1.00
H331   H     0.58871   0.37078   0.27634   0.00000  Uiso   1.00
H332   H     0.41122   0.62929   0.22373   0.00000  Uiso   1.00
H333   H     0.58858   0.62906   0.27654   0.00000  Uiso   1.00
H334   H     0.41130   0.37100   0.22336   0.00000  Uiso   1.00
N335   N     0.45069   0.50001   0.24999   0.00000  Uiso   1.00
N336   N     0.54931   0.49999   0.25001   0.00000  Uiso   1.00
O337   O     0.37291   0.43989   0.25000   0.00000  Uiso   1.00
O338   O     0.62709   0.56011   0.25000   0.00000  Uiso   1.00
O339   O     0.62706   0.43988   0.25001   0.00000  Uiso   1.00
O340   O     0.37294   0.56012   0.25000   0.00000  Uiso   1.00
O341   O     0.35186   0.50001   0.31492   0.00000  Uiso   1.00
O342   O     0.64814   0.49999   0.18509   0.00000  Uiso   1.00
O343   O     0.60600   0.50000   0.31492   0.00000  Uiso   1.00
O344   O     0.39400   0.50000   0.18508   0.00000  Uiso   1.00
O345   O     0.65796   0.43455   0.46785   0.00000  Uiso   1.00
H346   H     0.35021   0.42150   0.44379   0.00000  Uiso   1.00
O347   O     0.34126   0.42853   0.04174   0.00000  Uiso   1.00
H348   H     0.36572   0.41149   0.02073   0.00000  Uiso   1.00
O349   O     0.53382   0.44625   0.30355   0.00000  Uiso   1.00
H350   H     0.50612   0.43576   0.32814   0.00000  Uiso   1.00
O351   O     0.46518   0.55546   0.19845   0.00000  Uiso   1.00
H352   H     0.48943   0.57683   0.18433   0.00000  Uiso   1.00
C353   C     0.44098   0.43291   0.29296   0.00000  Uiso   1.00
O354   O     0.40266   0.43476   0.32220   0.00000  Uiso   1.00
O355   O     0.46102   0.39445   0.27893   0.00000  Uiso   1.00
H356   H     0.43994   0.37061   0.29510   0.00000  Uiso   1.00
C357   C     0.56665   0.55617   0.19267   0.00000  Uiso   1.00
O358   O     0.58765   0.54558   0.15512   0.00000  Uiso   1.00
O359   O     0.57044   0.59674   0.20480   0.00000  Uiso   1.00
H360   H     0.59371   0.61389   0.18039   0.00000  Uiso   1.00
C361   C     0.66676   0.42087   0.25009   0.00000  Uiso   1.00
C362   C     0.99989   0.57914   0.24993   0.00000  Uiso   1.00
C363   C     0.86225   0.48645   0.04562   0.00000  Uiso   1.00
C364   C     0.80446   0.48483   0.45655   0.00000  Uiso   1.00
C365   C     0.90934   0.47700   0.02125   0.00000  Uiso   1.00
C366   C     0.75798   0.47362   0.48169   0.00000  Uiso   1.00
C367   C     0.95620   0.35467   0.26461   0.00000  Uiso   1.00
C368   C     0.71040   0.64538   0.23548   0.00000  Uiso   1.00
C369   C     0.95607   0.64528   0.26460   0.00000  Uiso   1.00
C370   C     0.71051   0.35477   0.23545   0.00000  Uiso   1.00
C371   C     0.99983   0.62385   0.24993   0.00000  Uiso   1.00
C372   C     0.66678   0.37618   0.25015   0.00000  Uiso   1.00
C373   C     0.85061   0.47252   0.27614   0.00000  Uiso   1.00
C374   C     0.81591   0.52821   0.22446   0.00000  Uiso   1.00
C375   C     0.80186   0.47067   0.27406   0.00000  Uiso   1.00
C376   C     0.86602   0.52754   0.22355   0.00000  Uiso   1.00
C377   C     0.97198   0.49946   0.33553   0.00000  Uiso   1.00
C378   C     0.69460   0.49910   0.16465   0.00000  Uiso   1.00
C379   C     0.95525   0.49400   0.38370   0.00000  Uiso   1.00
C380   C     0.71112   0.49230   0.11732   0.00000  Uiso   1.00
C381   C     0.96850   0.46454   0.45003   0.00000  Uiso   1.00
C382   C     0.69873   0.45965   0.05444   0.00000  Uiso   1.00
C383   C     0.98590   0.47577   0.40530   0.00000  Uiso   1.00
C384   C     0.68121   0.47140   0.09803   0.00000  Uiso   1.00
C385   C     0.90655   0.50044   0.40729   0.00000  Uiso   1.00
C386   C     0.75948   0.49985   0.09315   0.00000  Uiso   1.00
C387   C     0.88964   0.49157   0.45308   0.00000  Uiso   1.00
C388   C     0.77689   0.48969   0.04852   0.00000  Uiso   1.00
C389   C     0.92305   0.47845   0.47504   0.00000  Uiso   1.00
C390   C     0.74418   0.47439   0.02787   0.00000  Uiso   1.00
C391   C     0.84011   0.49149   0.47734   0.00000  Uiso   1.00
C392   C     0.82639   0.49146   0.02428   0.00000  Uiso   1.00
Cu393  Cu    0.71355   0.50001   0.25000   0.00000  Uiso   1.00
Cu394  Cu    0.95311   0.49999   0.25000   0.00000  Uiso   1.00
H395   H     0.93504   0.46902   0.03869   0.00000  Uiso   1.00
H396   H     0.73290   0.46543   0.46458   0.00000  Uiso   1.00
H397   H     0.78300   0.51429   0.10908   0.00000  Uiso   1.00
H398   H     0.88243   0.51296   0.38994   0.00000  Uiso   1.00
H399   H     0.97914   0.46068   0.11792   0.00000  Uiso   1.00
H400   H     0.68906   0.46761   0.38720   0.00000  Uiso   1.00
H401   H     0.85342   0.48433   0.08125   0.00000  Uiso   1.00
H402   H     0.81308   0.48299   0.42107   0.00000  Uiso   1.00
H403   H     0.92204   0.37078   0.27634   0.00000  Uiso   1.00
H404   H     0.74456   0.62929   0.22373   0.00000  Uiso   1.00
H405   H     0.92191   0.62906   0.27654   0.00000  Uiso   1.00
H406   H     0.74464   0.37100   0.22336   0.00000  Uiso   1.00
N407   N     0.78403   0.50001   0.24999   0.00000  Uiso   1.00
N408   N     0.88264   0.49999   0.25001   0.00000  Uiso   1.00
O409   O     0.70625   0.43989   0.25000   0.00000  Uiso   1.00
O410   O     0.96042   0.56011   0.25000   0.00000  Uiso   1.00
O411   O     0.96039   0.43988   0.25001   0.00000  Uiso   1.00
O412   O     0.70628   0.56012   0.25000   0.00000  Uiso   1.00
O413   O     0.68519   0.50001   0.31492   0.00000  Uiso   1.00
O414   O     0.98148   0.49999   0.18509   0.00000  Uiso   1.00
O415   O     0.93933   0.50000   0.31492   0.00000  Uiso   1.00
O416   O     0.72733   0.50000   0.18508   0.00000  Uiso   1.00
O417   O     0.99129   0.43455   0.46785   0.00000  Uiso   1.00
H418   H     0.68354   0.42150   0.44379   0.00000  Uiso   1.00
O419   O     0.67459   0.42853   0.04174   0.00000  Uiso   1.00
H420   H     0.69905   0.41149   0.02073   0.00000  Uiso   1.00
O421   O     0.86715   0.44625   0.30355   0.00000  Uiso   1.00
H422   H     0.83945   0.43576   0.32814   0.00000  Uiso   1.00
O423   O     0.79851   0.55546   0.19845   0.00000  Uiso   1.00
H424   H     0.82276   0.57683   0.18433   0.00000  Uiso   1.00
C425   C     0.77432   0.43291   0.29296   0.00000  Uiso   1.00
O426   O     0.73600   0.43476   0.32220   0.00000  Uiso   1.00
O427   O     0.79435   0.39445   0.27893   0.00000  Uiso   1.00
H428   H     0.77328   0.37061   0.29510   0.00000  Uiso   1.00
C429   C     0.89999   0.55617   0.19267   0.00000  Uiso   1.00
O430   O     0.92098   0.54558   0.15512   0.00000  Uiso   1.00
O431   O     0.90377   0.59674   0.20480   0.00000  Uiso   1.00
H432   H     0.92704   0.61389   0.18039   0.00000  Uiso   1.00
C433   C     0.00009   0.75420   0.25009   0.00000  Uiso   1.00
C434   C     0.33323   0.91247   0.24993   0.00000  Uiso   1.00
C435   C     0.19558   0.81978   0.04562   0.00000  Uiso   1.00
C436   C     0.13779   0.81816   0.45655   0.00000  Uiso   1.00
C437   C     0.24267   0.81033   0.02125   0.00000  Uiso   1.00
C438   C     0.09132   0.80695   0.48169   0.00000  Uiso   1.00
C439   C     0.28953   0.68800   0.26461   0.00000  Uiso   1.00
C440   C     0.04374   0.97871   0.23548   0.00000  Uiso   1.00
C441   C     0.28941   0.97861   0.26460   0.00000  Uiso   1.00
C442   C     0.04385   0.68810   0.23545   0.00000  Uiso   1.00
C443   C     0.33316   0.95718   0.24993   0.00000  Uiso   1.00
C444   C     0.00011   0.70952   0.25015   0.00000  Uiso   1.00
C445   C     0.18395   0.80586   0.27614   0.00000  Uiso   1.00
C446   C     0.14924   0.86154   0.22446   0.00000  Uiso   1.00
C447   C     0.13519   0.80401   0.27406   0.00000  Uiso   1.00
C448   C     0.19935   0.86087   0.22355   0.00000  Uiso   1.00
C449   C     0.30531   0.83280   0.33553   0.00000  Uiso   1.00
C450   C     0.02793   0.83244   0.16465   0.00000  Uiso   1.00
C451   C     0.28858   0.82733   0.38370   0.00000  Uiso   1.00
C452   C     0.04445   0.82564   0.11732   0.00000  Uiso   1.00
C453   C     0.30183   0.79788   0.45003   0.00000  Uiso   1.00
C454   C     0.03207   0.79299   0.05444   0.00000  Uiso   1.00
C455   C     0.31923   0.80910   0.40530   0.00000  Uiso   1.00
C456   C     0.01454   0.80473   0.09803   0.00000  Uiso   1.00
C457   C     0.23988   0.83378   0.40729   0.00000  Uiso   1.00
C458   C     0.09281   0.83318   0.09315   0.00000  Uiso   1.00
C459   C     0.22298   0.82490   0.45308   0.00000  Uiso   1.00
C460   C     0.11023   0.82303   0.04852   0.00000  Uiso   1.00
C461   C     0.25638   0.81179   0.47504   0.00000  Uiso   1.00
C462   C     0.07752   0.80772   0.02787   0.00000  Uiso   1.00
C463   C     0.17344   0.82483   0.47734   0.00000  Uiso   1.00
C464   C     0.15972   0.82479   0.02428   0.00000  Uiso   1.00
Cu465  Cu    0.04689   0.83334   0.25000   0.00000  Uiso   1.00
Cu466  Cu    0.28645   0.83333   0.25000   0.00000  Uiso   1.00
H467   H     0.26837   0.80235   0.03869   0.00000  Uiso   1.00
H468   H     0.06624   0.79876   0.46458   0.00000  Uiso   1.00
H469   H     0.11633   0.84763   0.10908   0.00000  Uiso   1.00
H470   H     0.21576   0.84629   0.38994   0.00000  Uiso   1.00
H471   H     0.31248   0.79401   0.11792   0.00000  Uiso   1.00
H472   H     0.02239   0.80094   0.38720   0.00000  Uiso   1.00
H473   H     0.18675   0.81766   0.08125   0.00000  Uiso   1.00
H474   H     0.14642   0.81632   0.42107   0.00000  Uiso   1.00
H475   H     0.25538   0.70412   0.27634   0.00000  Uiso   1.00
H476   H     0.07789   0.96262   0.22373   0.00000  Uiso   1.00
H477   H     0.25524   0.96240   0.27654   0.00000  Uiso   1.00
H478   H     0.07797   0.70433   0.22336   0.00000  Uiso   1.00
N479   N     0.11736   0.83334   0.24999   0.00000  Uiso   1.00
N480   N     0.21597   0.83332   0.25001   0.00000  Uiso   1.00
O481   O     0.03958   0.77322   0.25000   0.00000  Uiso   1.00
O482   O     0.29375   0.89345   0.25000   0.00000  Uiso   1.00
O483   O     0.29372   0.77321   0.25001   0.00000  Uiso   1.00
O484   O     0.03961   0.89346   0.25000   0.00000  Uiso   1.00
O485   O     0.01852   0.83334   0.31492   0.00000  Uiso   1.00
O486   O     0.31481   0.83332   0.18509   0.00000  Uiso   1.00
O487   O     0.27267   0.83333   0.31492   0.00000  Uiso   1.00
O488   O     0.06067   0.83333   0.18508   0.00000  Uiso   1.00
O489   O     0.32462   0.76788   0.46785   0.00000  Uiso   1.00
H490   H     0.01688   0.75483   0.44379   0.00000  Uiso   1.00
O491   O     0.00792   0.76187   0.04174   0.00000  Uiso   1.00
H492   H     0.03238   0.74482   0.02073   0.00000  Uiso   1.00
O493   O     0.20048   0.77958   0.30355   0.00000  Uiso   1.00
H494   H     0.17278   0.76909   0.32814   0.00000  Uiso   1.00
O495   O     0.13184   0.88879   0.19845   0.00000  Uiso   1.00
H496   H     0.15609   0.91017   0.18433   0.00000  Uiso   1.00
C497   C     0.10765   0.76625   0.29296   0.00000  Uiso   1.00
O498   O     0.06933   0.76810   0.32220   0.00000  Uiso   1.00
O499   O     0.12768   0.72779   0.27893   0.00000  Uiso   1.00
H500   H     0.10661   0.70394   0.29510   0.00000  Uiso   1.00
C501   C     0.23332   0.88950   0.19267   0.00000  Uiso   1.00
O502   O     0.25432   0.87891   0.15512   0.00000  Uiso   1.00
O503   O     0.23710   0.93007   0.20480   0.00000  Uiso   1.00
H504   H     0.26037   0.94722   0.18039   0.00000  Uiso   1.00
C505   C     0.33343   0.75420   0.25009   0.00000  Uiso   1.00
C506   C     0.66656   0.91247   0.24993   0.00000  Uiso   1.00
C507   C     0.52891   0.81978   0.04562   0.00000  Uiso   1.00
C508   C     0.47112   0.81816   0.45655   0.00000  Uiso   1.00
C509   C     0.57600   0.81033   0.02125   0.00000  Uiso   1.00
C510   C     0.42465   0.80695   0.48169   0.00000  Uiso   1.00
C511   C     0.62286   0.68800   0.26461   0.00000  Uiso   1.00
C512   C     0.37707   0.97871   0.23548   0.00000  Uiso   1.00
C513   C     0.62274   0.97861   0.26460   0.00000  Uiso   1.00
C514   C     0.37718   0.68810   0.23545   0.00000  Uiso   1.00
C515   C     0.66650   0.95718   0.24993   0.00000  Uiso   1.00
C516   C     0.33345   0.70952   0.25015   0.00000  Uiso   1.00
C517   C     0.51728   0.80586   0.27614   0.00000  Uiso   1.00
C518   C     0.48257   0.86154   0.22446   0.00000  Uiso   1.00
C519   C     0.46852   0.80401   0.27406   0.00000  Uiso   1.00
C520   C     0.53268   0.86087   0.22355   0.00000  Uiso   1.00
C521   C     0.63865   0.83280   0.33553   0.00000  Uiso   1.00
C522   C     0.36127   0.83244   0.16465   0.00000  Uiso   1.00
C523   C     0.62192   0.82733   0.38370   0.00000  Uiso   1.00
C524   C     0.37778   0.82564   0.11732   0.00000  Uiso   1.00
C525   C     0.63516   0.79788   0.45003   0.00000  Uiso   1.00
C526   C     0.36540   0.79299   0.05444   0.00000  Uiso   1.00
C527   C     0.65257   0.80910   0.40530   0.00000  Uiso   1.00
C528   C     0.34787   0.80473   0.09803   0.00000  Uiso   1.00
C529   C     0.57322   0.83378   0.40729   0.00000  Uiso   1.00
C530   C     0.42614   0.83318   0.09315   0.00000  Uiso   1.00
C531   C     0.55631   0.82490   0.45308   0.00000  Uiso   1.00
C532   C     0.44356   0.82303   0.04852   0.00000  Uiso   1.00
C533   C     0.58971   0.81179   0.47504   0.00000  Uiso   1.00
C534   C     0.41085   0.80772   0.02787   0.00000  Uiso   1.00
C535   C     0.50678   0.82483   0.47734   0.00000  Uiso   1.00
C536   C     0.49306   0.82479   0.02428   0.00000  Uiso   1.00
Cu537  Cu    0.38022   0.83334   0.25000   0.00000  Uiso   1.00
Cu538  Cu    0.61978   0.83333   0.25000   0.00000  Uiso   1.00
H539   H     0.60170   0.80235   0.03869   0.00000  Uiso   1.00
H540   H     0.39957   0.79876   0.46458   0.00000  Uiso   1.00
H541   H     0.44967   0.84763   0.10908   0.00000  Uiso   1.00
H542   H     0.54909   0.84629   0.38994   0.00000  Uiso   1.00
H543   H     0.64581   0.79401   0.11792   0.00000  Uiso   1.00
H544   H     0.35573   0.80094   0.38720   0.00000  Uiso   1.00
H545   H     0.52009   0.81766   0.08125   0.00000  Uiso   1.00
H546   H     0.47975   0.81632   0.42107   0.00000  Uiso   1.00
H547   H     0.58871   0.70412   0.27634   0.00000  Uiso   1.00
H548   H     0.41122   0.96262   0.22373   0.00000  Uiso   1.00
H549   H     0.58858   0.96240   0.27654   0.00000  Uiso   1.00
H550   H     0.41130   0.70433   0.22336   0.00000  Uiso   1.00
N551   N     0.45069   0.83334   0.24999   0.00000  Uiso   1.00
N552   N     0.54931   0.83332   0.25001   0.00000  Uiso   1.00
O553   O     0.37291   0.77322   0.25000   0.00000  Uiso   1.00
O554   O     0.62709   0.89345   0.25000   0.00000  Uiso   1.00
O555   O     0.62706   0.77321   0.25001   0.00000  Uiso   1.00
O556   O     0.37294   0.89346   0.25000   0.00000  Uiso   1.00
O557   O     0.35186   0.83334   0.31492   0.00000  Uiso   1.00
O558   O     0.64814   0.83332   0.18509   0.00000  Uiso   1.00
O559   O     0.60600   0.83333   0.31492   0.00000  Uiso   1.00
O560   O     0.39400   0.83333   0.18508   0.00000  Uiso   1.00
O561   O     0.65796   0.76788   0.46785   0.00000  Uiso   1.00
H562   H     0.35021   0.75483   0.44379   0.00000  Uiso   1.00
O563   O     0.34126   0.76187   0.04174   0.00000  Uiso   1.00
H564   H     0.36572   0.74482   0.02073   0.00000  Uiso   1.00
O565   O     0.53382   0.77958   0.30355   0.00000  Uiso   1.00
H566   H     0.50612   0.76909   0.32814   0.00000  Uiso   1.00
O567   O     0.46518   0.88879   0.19845   0.00000  Uiso   1.00
H568   H     0.48943   0.91017   0.18433   0.00000  Uiso   1.00
C569   C     0.44098   0.76625   0.29296   0.00000  Uiso   1.00
O570   O     0.40266   0.76810   0.32220   0.00000  Uiso   1.00
O571   O     0.46102   0.72779   0.27893   0.00000  Uiso   1.00
H572   H     0.43994   0.70394   0.29510   0.00000  Uiso   1.00
C573   C     0.56665   0.88950   0.19267   0.00000  Uiso   1.00
O574   O     0.58765   0.87891   0.15512   0.00000  Uiso   1.00
O575   O     0.57044   0.93007   0.20480   0.00000  Uiso   1.00
H576   H     0.59371   0.94722   0.18039   0.00000  Uiso   1.00
C577   C     0.66676   0.75420   0.25009   0.00000  Uiso   1.00
C578   C     0.99989   0.91247   0.24993   0.00000  Uiso   1.00
C579   C     0.86225   0.81978   0.04562   0.00000  Uiso   1.00
C580   C     0.80446   0.81816   0.45655   0.00000  Uiso   1.00
C581   C     0.90934   0.81033   0.02125   0.00000  Uiso   1.00
C582   C     0.75798   0.80695   0.48169   0.00000  Uiso   1.00
C583   C     0.95620   0.68800   0.26461   0.00000  Uiso   1.00
C584   C     0.71040   0.97871   0.23548   0.00000  Uiso   1.00
C585   C     0.95607   0.97861   0.26460   0.00000  Uiso   1.00
C586   C     0.71051   0.68810   0.23545   0.00000  Uiso   1.00
C587   C     0.99983   0.95718   0.24993   0.00000  Uiso   1.00
C588   C     0.66678   0.70952   0.25015   0.00000  Uiso   1.00
C589   C     0.85061   0.80586   0.27614   0.00000  Uiso   1.00
C590   C     0.81591   0.86154   0.22446   0.00000  Uiso   1.00
C591   C     0.80186   0.80401   0.27406   0.00000  Uiso   1.00
C592   C     0.86602   0.86087   0.22355   0.00000  Uiso   1.00
C593   C     0.97198   0.83280   0.33553   0.00000  Uiso   1.00
C594   C     0.69460   0.83244   0.16465   0.00000  Uiso   1.00
C595   C     0.95525   0.82733   0.38370   0.00000  Uiso   1.00
C596   C     0.71112   0.82564   0.11732   0.00000  Uiso   1.00
C597   C     0.96850   0.79788   0.45003   0.00000  Uiso   1.00
C598   C     0.69873   0.79299   0.05444   0.00000  Uiso   1.00
C599   C     0.98590   0.80910   0.40530   0.00000  Uiso   1.00
C600   C     0.68121   0.80473   0.09803   0.00000  Uiso   1.00
C601   C     0.90655   0.83378   0.40729   0.00000  Uiso   1.00
C602   C     0.75948   0.83318   0.09315   0.00000  Uiso   1.00
C603   C     0.88964   0.82490   0.45308   0.00000  Uiso   1.00
C604   C     0.77689   0.82303   0.04852   0.00000  Uiso   1.00
C605   C     0.92305   0.81179   0.47504   0.00000  Uiso   1.00
C606   C     0.74418   0.80772   0.02787   0.00000  Uiso   1.00
C607   C     0.84011   0.82483   0.47734   0.00000  Uiso   1.00
C608   C     0.82639   0.82479   0.02428   0.00000  Uiso   1.00
Cu609  Cu    0.71355   0.83334   0.25000   0.00000  Uiso   1.00
Cu610  Cu    0.95311   0.83333   0.25000   0.00000  Uiso   1.00
H611   H     0.93504   0.80235   0.03869   0.00000  Uiso   1.00
H612   H     0.73290   0.79876   0.46458   0.00000  Uiso   1.00
H613   H     0.78300   0.84763   0.10908   0.00000  Uiso   1.00
H614   H     0.88243   0.84629   0.38994   0.00000  Uiso   1.00
H615   H     0.97914   0.79401   0.11792   0.00000  Uiso   1.00
H616   H     0.68906   0.80094   0.38720   0.00000  Uiso   1.00
H617   H     0.85342   0.81766   0.08125   0.00000  Uiso   1.00
H618   H     0.81308   0.81632   0.42107   0.00000  Uiso   1.00
H619   H     0.92204   0.70412   0.27634   0.00000  Uiso   1.00
H620   H     0.74456   0.96262   0.22373   0.00000  Uiso   1.00
H621   H     0.92191   0.96240   0.27654   0.00000  Uiso   1.00
H622   H     0.74464   0.70433   0.22336   0.00000  Uiso   1.00
N623   N     0.78403   0.83334   0.24999   0.00000  Uiso   1.00
N624   N     0.88264   0.83332   0.25001   0.00000  Uiso   1.00
O625   O     0.70625   0.77322   0.25000   0.00000  Uiso   1.00
O626   O     0.96042   0.89345   0.25000   0.00000  Uiso   1.00
O627   O     0.96039   0.77321   0.25001   0.00000  Uiso   1.00
O628   O     0.70628   0.89346   0.25000   0.00000  Uiso   1.00
O629   O     0.68519   0.83334   0.31492   0.00000  Uiso   1.00
O630   O     0.98148   0.83332   0.18509   0.00000  Uiso   1.00
O631   O     0.93933   0.83333   0.31492   0.00000  Uiso   1.00
O632   O     0.72733   0.83333   0.18508   0.00000  Uiso   1.00
O633   O     0.99129   0.76788   0.46785   0.00000  Uiso   1.00
H634   H     0.68354   0.75483   0.44379   0.00000  Uiso   1.00
O635   O     0.67459   0.76187   0.04174   0.00000  Uiso   1.00
H636   H     0.69905   0.74482   0.02073   0.00000  Uiso   1.00
O637   O     0.86715   0.77958   0.30355   0.00000  Uiso   1.00
H638   H     0.83945   0.76909   0.32814   0.00000  Uiso   1.00
O639   O     0.79851   0.88879   0.19845   0.00000  Uiso   1.00
H640   H     0.82276   0.91017   0.18433   0.00000  Uiso   1.00
C641   C     0.77432   0.76625   0.29296   0.00000  Uiso   1.00
O642   O     0.73600   0.76810   0.32220   0.00000  Uiso   1.00
O643   O     0.79435   0.72779   0.27893   0.00000  Uiso   1.00
H644   H     0.77328   0.70394   0.29510   0.00000  Uiso   1.00
C645   C     0.89999   0.88950   0.19267   0.00000  Uiso   1.00
O646   O     0.92098   0.87891   0.15512   0.00000  Uiso   1.00
O647   O     0.90377   0.93007   0.20480   0.00000  Uiso   1.00
H648   H     0.92704   0.94722   0.18039   0.00000  Uiso   1.00
C649   C     0.00009   0.08753   0.75009   0.00000  Uiso   1.00
C650   C     0.33323   0.24581   0.74993   0.00000  Uiso   1.00
C651   C     0.19558   0.15312   0.54562   0.00000  Uiso   1.00
C652   C     0.13779   0.15150   0.95655   0.00000  Uiso   1.00
C653   C     0.24267   0.14366   0.52125   0.00000  Uiso   1.00
C654   C     0.09132   0.14029   0.98169   0.00000  Uiso   1.00
C655   C     0.28953   0.02133   0.76461   0.00000  Uiso   1.00
C656   C     0.04374   0.31205   0.73548   0.00000  Uiso   1.00
C657   C     0.28941   0.31194   0.76460   0.00000  Uiso   1.00
C658   C     0.04385   0.02143   0.73545   0.00000  Uiso   1.00
C659   C     0.33316   0.29051   0.74993   0.00000  Uiso   1.00
C660   C     0.00011   0.04285   0.75015   0.00000  Uiso   1.00
C661   C     0.18395   0.13919   0.77614   0.00000  Uiso   1.00
C662   C     0.14924   0.19487   0.72446   0.00000  Uiso   1.00
C663   C     0.13519   0.13734   0.77406   0.00000  Uiso   1.00
C664   C     0.19935   0.19421   0.72355   0.00000  Uiso   1.00
C665   C     0.30531   0.16613   0.83553   0.00000  Uiso   1.00
C666   C     0.02793   0.16577   0.66465   0.00000  Uiso   1.00
C667   C     0.28858   0.16066   0.88370   0.00000  Uiso   1.00
C668   C     0.04445   0.15897   0.61732   0.00000  Uiso   1.00
C669   C     0.30183   0.13121   0.95003   0.00000  Uiso   1.00
C670   C     0.03207   0.12632   0.55444   0.00000  Uiso   1.00
C671   C     0.31923   0.14244   0.90530   0.00000  Uiso   1.00
C672   C     0.01454   0.13806   0.59803   0.00000  Uiso   1.00
C673   C     0.23988   0.16711   0.90729   0.00000  Uiso   1.00
C674   C     0.09281   0.16652   0.59315   0.00000  Uiso   1.00
C675   C     0.22298   0.15824   0.95308   0.00000  Uiso   1.00
C676   C     0.11023   0.15636   0.54852   0.00000  Uiso   1.00
C677   C     0.25638   0.14512   0.97504   0.00000  Uiso   1.00
C678   C     0.07752   0.14106   0.52787   0.00000  Uiso   1.00
C679   C     0.17344   0.15816   0.97734   0.00000  Uiso   1.00
C680   C     0.15972   0.15812   0.52428   0.00000  Uiso   1.00
Cu681  Cu    0.04689   0.16667   0.75000   0.00000  Uiso   1.00
Cu682  Cu    0.28645   0.16666   0.75000   0.00000  Uiso   1.00
H683   H     0.26837   0.13568   0.53869   0.00000  Uiso   1.00
H684   H     0.06624   0.13209   0.96458   0.00000  Uiso   1.00
H685   H     0.11633   0.18096   0.60908   0.00000  Uiso   1.00
H686   H     0.21576   0.17962   0.88994   0.00000  Uiso   1.00
H687   H     0.31248   0.12735   0.61792   0.00000  Uiso   1.00
H688   H     0.02239   0.13427   0.88720   0.00000  Uiso   1.00
H689   H     0.18675   0.15100   0.58125   0.00000  Uiso   1.00
H690   H     0.14642   0.14966   0.92107   0.00000  Uiso   1.00
H691   H     0.25538   0.03745   0.77634   0.00000  Uiso   1.00
H692   H     0.07789   0.29595   0.72373   0.00000  Uiso   1.00
H693   H     0.25524   0.29573   0.77654   0.00000  Uiso   1.00
H694   H     0.07797   0.03767   0.72336   0.00000  Uiso   1.00
N695   N     0.11736   0.16668   0.74999   0.00000  Uiso   1.00
N696   N     0.21597   0.16666   0.75001   0.00000  Uiso   1.00
O697   O     0.03958   0.10655   0.75000   0.00000  Uiso   1.00
O698   O     0.29375   0.22678   0.75000   0.00000  Uiso   1.00
O699   O     0.29372   0.10654   0.75001   0.00000  Uiso   1.00
O700   O     0.03961   0.22679   0.75000   0.00000  Uiso   1.00
O701   O     0.01852   0.16668   0.81492   0.00000  Uiso   1.00
O702   O     0.31481   0.16666   0.68509   0.00000  Uiso   1.00
O703   O     0.27267   0.16667   0.81492   0.00000  Uiso   1.00
O704   O     0.06067   0.16667   0.68508   0.00000  Uiso   1.00
O705   O     0.32462   0.10121   0.96785   0.00000  Uiso   1.00
H706   H     0.01688   0.08817   0.94379   0.00000  Uiso   1.00
O707   O     0.00792   0.09520   0.54174   0.00000  Uiso   1.00
H708   H     0.03238   0.07816   0.52073   0.00000  Uiso   1.00
O709   O     0.20048   0.11291   0.80355   0.00000  Uiso   1.00
H710   H     0.17278   0.10243   0.82814   0.00000  Uiso   1.00
O711   O     0.13184   0.22212   0.69845   0.00000  Uiso   1.00
H712   H     0.15609   0.24350   0.68433   0.00000  Uiso   1.00
C713   C     0.10765   0.09958   0.79296   0.00000  Uiso   1.00
O714   O     0.06933   0.10143   0.82220   0.00000  Uiso   1.00
O715   O     0.12768   0.06112   0.77893   0.00000  Uiso   1.00
H716   H     0.10661   0.03727   0.79510   0.00000  Uiso   1.00
C717   C     0.23332   0.22283   0.69267   0.00000  Uiso   1.00
O718   O     0.25432   0.21225   0.65512   0.00000  Uiso   1.00
O719   O     0.23710   0.26341   0.70480   0.00000  Uiso   1.00
H720   H     0.26037   0.28055   0.68039   0.00000  Uiso   1.00
C721   C     0.33343   0.08753   0.75009   0.00000  Uiso   1.00
C722   C     0.66656   0.24581   0.74993   0.00000  Uiso   1.00
C723   C     0.52891   0.15312   0.54562   0.00000  Uiso   1.00
C724   C     0.47112   0.15150   0.95655   0.00000  Uiso   1.00
C725   C     0.57600   0.14366   0.52125   0.00000  Uiso   1.00
C726   C     0.42465   0.14029   0.98169   0.00000  Uiso   1.00
C727   C     0.62286   0.02133   0.76461   0.00000  Uiso   1.00
C728   C     0.37707   0.31205   0.73548   0.00000  Uiso   1.00
C729   C     0.62274   0.31194   0.76460   0.00000  Uiso   1.00
C730   C     0.37718   0.02143   0.73545   0.00000  Uiso   1.00
C731   C     0.66650   0.29051   0.74993   0.00000  Uiso   1.00
C732   C     0.33345   0.04285   0.75015   0.00000  Uiso   1.00
C733   C     0.51728   0.13919   0.77614   0.00000  Uiso   1.00
C734   C     0.48257   0.19487   0.72446   0.00000  Uiso   1.00
C735   C     0.46852   0.13734   0.77406   0.00000  Uiso   1.00
C736   C     0.53268   0.19421   0.72355   0.00000  Uiso   1.00
C737   C     0.63865   0.16613   0.83553   0.00000  Uiso   1.00
C738   C     0.36127   0.16577   0.66465   0.00000  Uiso   1.00
C739   C     0.62192   0.16066   0.88370   0.00000  Uiso   1.00
C740   C     0.37778   0.15897   0.61732   0.00000  Uiso   1.00
C741   C     0.63516   0.13121   0.95003   0.00000  Uiso   1.00
C742   C     0.36540   0.12632   0.55444   0.00000  Uiso   1.00
C743   C     0.65257   0.14244   0.90530   0.00000  Uiso   1.00
C744   C     0.34787   0.13806   0.59803   0.00000  Uiso   1.00
C745   C     0.57322   0.16711   0.90729   0.00000  Uiso   1.00
C746   C     0.42614   0.16652   0.59315   0.00000  Uiso   1.00
C747   C     0.55631   0.15824   0.95308   0.00000  Uiso   1.00
C748   C     0.44356   0.15636   0.54852   0.00000  Uiso   1.00
C749   C     0.58971   0.14512   0.97504   0.00000  Uiso   1.00
C750   C     0.41085   0.14106   0.52787   0.00000  Uiso   1.00
C751   C     0.50678   0.15816   0.97734   0.00000  Uiso   1.00
C752   C     0.49306   0.15812   0.52428   0.00000  Uiso   1.00
Cu753  Cu    0.38022   0.16667   0.75000   0.00000  Uiso   1.00
Cu754  Cu    0.61978   0.16666   0.75000   0.00000  Uiso   1.00
H755   H     0.60170   0.13568   0.53869   0.00000  Uiso   1.00
H756   H     0.39957   0.13209   0.96458   0.00000  Uiso   1.00
H757   H     0.44967   0.18096   0.60908   0.00000  Uiso   1.00
H758   H     0.54909   0.17962   0.88994   0.00000  Uiso   1.00
H759   H     0.64581   0.12735   0.61792   0.00000  Uiso   1.00
H760   H     0.35573   0.13427   0.88720   0.00000  Uiso   1.00
H761   H     0.52009   0.15100   0.58125   0.00000  Uiso   1.00
H762   H     0.47975   0.14966   0.92107   0.00000  Uiso   1.00
H763   H     0.58871   0.03745   0.77634   0.00000  Uiso   1.00
H764   H     0.41122   0.29595   0.72373   0.00000  Uiso   1.00
H765   H     0.58858   0.29573   0.77654   0.00000  Uiso   1.00
H766   H     0.41130   0.03767   0.72336   0.00000  Uiso   1.00
N767   N     0.45069   0.16668   0.74999   0.00000  Uiso   1.00
N768   N     0.54931   0.16666   0.75001   0.00000  Uiso   1.00
O769   O     0.37291   0.10655   0.75000   0.00000  Uiso   1.00
O770   O     0.62709   0.22678   0.75000   0.00000  Uiso   1.00
O771   O     0.62706   0.10654   0.75001   0.00000  Uiso   1.00
O772   O     0.37294   0.22679   0.75000   0.00000  Uiso   1.00
O773   O     0.35186   0.16668   0.81492   0.00000  Uiso   1.00
O774   O     0.64814   0.16666   0.68509   0.00000  Uiso   1.00
O775   O     0.60600   0.16667   0.81492   0.00000  Uiso   1.00
O776   O     0.39400   0.16667   0.68508   0.00000  Uiso   1.00
O777   O     0.65796   0.10121   0.96785   0.00000  Uiso   1.00
H778   H     0.35021   0.08817   0.94379   0.00000  Uiso   1.00
O779   O     0.34126   0.09520   0.54174   0.00000  Uiso   1.00
H780   H     0.36572   0.07816   0.52073   0.00000  Uiso   1.00
O781   O     0.53382   0.11291   0.80355   0.00000  Uiso   1.00
H782   H     0.50612   0.10243   0.82814   0.00000  Uiso   1.00
O783   O     0.46518   0.22212   0.69845   0.00000  Uiso   1.00
H784   H     0.48943   0.24350   0.68433   0.00000  Uiso   1.00
C785   C     0.44098   0.09958   0.79296   0.00000  Uiso   1.00
O786   O     0.40266   0.10143   0.82220   0.00000  Uiso   1.00
O787   O     0.46102   0.06112   0.77893   0.00000  Uiso   1.00
H788   H     0.43994   0.03727   0.79510   0.00000  Uiso   1.00
C789   C     0.56665   0.22283   0.69267   0.00000  Uiso   1.00
O790   O     0.58765   0.21225   0.65512   0.00000  Uiso   1.00
O791   O     0.57044   0.26341   0.70480   0.00000  Uiso   1.00
H792   H     0.59371   0.28055   0.68039   0.00000  Uiso   1.00
C793   C     0.66676   0.08753   0.75009   0.00000  Uiso   1.00
C794   C     0.99989   0.24581   0.74993   0.00000  Uiso   1.00
C795   C     0.86225   0.15312   0.54562   0.00000  Uiso   1.00
C796   C     0.80446   0.15150   0.95655   0.00000  Uiso   1.00
C797   C     0.90934   0.14366   0.52125   0.00000  Uiso   1.00
C798   C     0.75798   0.14029   0.98169   0.00000  Uiso   1.00
C799   C     0.95620   0.02133   0.76461   0.00000  Uiso   1.00
C800   C     0.71040   0.31205   0.73548   0.00000  Uiso   1.00
C801   C     0.95607   0.31194   0.76460   0.00000  Uiso   1.00
C802   C     0.71051   0.02143   0.73545   0.00000  Uiso   1.00
C803   C     0.99983   0.29051   0.74993   0.00000  Uiso   1.00
C804   C     0.66678   0.04285   0.75015   0.00000  Uiso   1.00
C805   C     0.85061   0.13919   0.77614   0.00000  Uiso   1.00
C806   C     0.81591   0.19487   0.72446   0.00000  Uiso   1.00
C807   C     0.80186   0.13734   0.77406   0.00000  Uiso   1.00
C808   C     0.86602   0.19421   0.72355   0.00000  Uiso   1.00
C809   C     0.97198   0.16613   0.83553   0.00000  Uiso   1.00
C810   C     0.69460   0.16577   0.66465   0.00000  Uiso   1.00
C811   C     0.95525   0.16066   0.88370   0.00000  Uiso   1.00
C812   C     0.71112   0.15897   0.61732   0.00000  Uiso   1.00
C813   C     0.96850   0.13121   0.95003   0.00000  Uiso   1.00
C814   C     0.69873   0.12632   0.55444   0.00000  Uiso   1.00
C815   C     0.98590   0.14244   0.90530   0.00000  Uiso   1.00
C816   C     0.68121   0.13806   0.59803   0.00000  Uiso   1.00
C817   C     0.90655   0.16711   0.90729   0.00000  Uiso   1.00
C818   C     0.75948   0.16652   0.59315   0.00000  Uiso   1.00
C819   C     0.88964   0.15824   0.95308   0.00000  Uiso   1.00
C820   C     0.77689   0.15636   0.54852   0.00000  Uiso   1.00
C821   C     0.92305   0.14512   0.97504   0.00000  Uiso   1.00
C822   C     0.74418   0.14106   0.52787   0.00000  Uiso   1.00
C823   C     0.84011   0.15816   0.97734   0.00000  Uiso   1.00
C824   C     0.82639   0.15812   0.52428   0.00000  Uiso   1.00
Cu825  Cu    0.71355   0.16667   0.75000   0.00000  Uiso   1.00
Cu826  Cu    0.95311   0.16666   0.75000   0.00000  Uiso   1.00
H827   H     0.93504   0.13568   0.53869   0.00000  Uiso   1.00
H828   H     0.73290   0.13209   0.96458   0.00000  Uiso   1.00
H829   H     0.78300   0.18096   0.60908   0.00000  Uiso   1.00
H830   H     0.88243   0.17962   0.88994   0.00000  Uiso   1.00
H831   H     0.97914   0.12735   0.61792   0.00000  Uiso   1.00
H832   H     0.68906   0.13427   0.88720   0.00000  Uiso   1.00
H833   H     0.85342   0.15100   0.58125   0.00000  Uiso   1.00
H834   H     0.81308   0.14966   0.92107   0.00000  Uiso   1.00
H835   H     0.92204   0.03745   0.77634   0.00000  Uiso   1.00
H836   H     0.74456   0.29595   0.72373   0.00000  Uiso   1.00
H837   H     0.92191   0.29573   0.77654   0.00000  Uiso   1.00
H838   H     0.74464   0.03767   0.72336   0.00000  Uiso   1.00
N839   N     0.78403   0.16668   0.74999   0.00000  Uiso   1.00
N840   N     0.88264   0.16666   0.75001   0.00000  Uiso   1.00
O841   O     0.70625   0.10655   0.75000   0.00000  Uiso   1.00
O842   O     0.96042   0.22678   0.75000   0.00000  Uiso   1.00
O843   O     0.96039   0.10654   0.75001   0.00000  Uiso   1.00
O844   O     0.70628   0.22679   0.75000   0.00000  Uiso   1.00
O845   O     0.68519   0.16668   0.81492   0.00000  Uiso   1.00
O846   O     0.98148   0.16666   0.68509   0.00000  Uiso   1.00
O847   O     0.93933   0.16667   0.81492   0.00000  Uiso   1.00
O848   O     0.72733   0.16667   0.68508   0.00000  Uiso   1.00
O849   O     0.99129   0.10121   0.96785   0.00000  Uiso   1.00
H850   H     0.68354   0.08817   0.94379   0.00000  Uiso   1.00
O851   O     0.67459   0.09520   0.54174   0.00000  Uiso   1.00
H852   H     0.69905   0.07816   0.52073   0.00000  Uiso   1.00
O853   O     0.86715   0.11291   0.80355   0.00000  Uiso   1.00
H854   H     0.83945   0.10243   0.82814   0.00000  Uiso   1.00
O855   O     0.79851   0.22212   0.69845   0.00000  Uiso   1.00
H856   H     0.82276   0.24350   0.68433   0.00000  Uiso   1.00
C857   C     0.77432   0.09958   0.79296   0.00000  Uiso   1.00
O858   O     0.73600   0.10143   0.82220   0.00000  Uiso   1.00
O859   O     0.79435   0.06112   0.77893   0.00000  Uiso   1.00
H860   H     0.77328   0.03727   0.79510   0.00000  Uiso   1.00
C861   C     0.89999   0.22283   0.69267   0.00000  Uiso   1.00
O862   O     0.92098   0.21225   0.65512   0.00000  Uiso   1.00
O863   O     0.90377   0.26341   0.70480   0.00000  Uiso   1.00
H864   H     0.92704   0.28055   0.68039   0.00000  Uiso   1.00
C865   C     0.00009   0.42087   0.75009   0.00000  Uiso   1.00
C866   C     0.33323   0.57914   0.74993   0.00000  Uiso   1.00
C867   C     0.19558   0.48645   0.54562   0.00000  Uiso   1.00
C868   C     0.13779   0.48483   0.95655   0.00000  Uiso   1.00
C869   C     0.24267   0.47700   0.52125   0.00000  Uiso   1.00
C870   C     0.09132   0.47362   0.98169   0.00000  Uiso   1.00
C871   C     0.28953   0.35467   0.76461   0.00000  Uiso   1.00
C872   C     0.04374   0.64538   0.73548   0.00000  Uiso   1.00
C873   C     0.28941   0.64528   0.76460   0.00000  Uiso   1.00
C874   C     0.04385   0.35477   0.73545   0.00000  Uiso   1.00
C875   C     0.33316   0.62385   0.74993   0.00000  Uiso   1.00
C876   C     0.00011   0.37618   0.75015   0.00000  Uiso   1.00
C877   C     0.18395   0.47252   0.77614   0.00000  Uiso   1.00
C878   C     0.14924   0.52821   0.72446   0.00000  Uiso   1.00
C879   C     0.13519   0.47067   0.77406   0.00000  Uiso   1.00
C880   C     0.19935   0.52754   0.72355   0.00000  Uiso   1.00
C881   C     0.30531   0.49946   0.83553   0.00000  Uiso   1.00
C882   C     0.02793   0.49910   0.66465   0.00000  Uiso   1.00
C883   C     0.28858   0.49400   0.88370   0.00000  Uiso   1.00
C884   C     0.04445   0.49230   0.61732   0.00000  Uiso   1.00
C885   C     0.30183   0.46454   0.95003   0.00000  Uiso   1.00
C886   C     0.03207   0.45965   0.55444   0.00000  Uiso   1.00
C887   C     0.31923   0.47577   0.90530   0.00000  Uiso   1.00
C888   C     0.01454   0.47140   0.59803   0.00000  Uiso   1.00
C889   C     0.23988   0.50044   0.90729   0.00000  Uiso   1.00
C890   C     0.09281   0.49985   0.59315   0.00000  Uiso   1.00
C891   C     0.22298   0.49157   0.95308   0.00000  Uiso   1.00
C892   C     0.11023   0.48969   0.54852   0.00000  Uiso   1.00
C893   C     0.25638   0.47845   0.97504   0.00000  Uiso   1.00
C894   C     0.07752   0.47439   0.52787   0.00000  Uiso   1.00
C895   C     0.17344   0.49149   0.97734   0.00000  Uiso   1.00
C896   C     0.15972   0.49146   0.52428   0.00000  Uiso   1.00
Cu897  Cu    0.04689   0.50001   0.75000   0.00000  Uiso   1.00
Cu898  Cu    0.28645   0.49999   0.75000   0.00000  Uiso   1.00
H899   H     0.26837   0.46902   0.53869   0.00000  Uiso   1.00
H900   H     0.06624   0.46543   0.96458   0.00000  Uiso   1.00
H901   H     0.11633   0.51429   0.60908   0.00000  Uiso   1.00
H902   H     0.21576   0.51296   0.88994   0.00000  Uiso   1.00
H903   H     0.31248   0.46068   0.61792   0.00000  Uiso   1.00
H904   H     0.02239   0.46761   0.88720   0.00000  Uiso   1.00
H905   H     0.18675   0.48433   0.58125   0.00000  Uiso   1.00
H906   H     0.14642   0.48299   0.92107   0.00000  Uiso   1.00
H907   H     0.25538   0.37078   0.77634   0.00000  Uiso   1.00
H908   H     0.07789   0.62929   0.72373   0.00000  Uiso   1.00
H909   H     0.25524   0.62906   0.77654   0.00000  Uiso   1.00
H910   H     0.07797   0.37100   0.72336   0.00000  Uiso   1.00
N911   N     0.11736   0.50001   0.74999   0.00000  Uiso   1.00
N912   N     0.21597   0.49999   0.75001   0.00000  Uiso   1.00
O913   O     0.03958   0.43989   0.75000   0.00000  Uiso   1.00
O914   O     0.29375   0.56011   0.75000   0.00000  Uiso   1.00
O915   O     0.29372   0.43988   0.75001   0.00000  Uiso   1.00
O916   O     0.03961   0.56012   0.75000   0.00000  Uiso   1.00
O917   O     0.01852   0.50001   0.81492   0.00000  Uiso   1.00
O918   O     0.31481   0.49999   0.68509   0.00000  Uiso   1.00
O919   O     0.27267   0.50000   0.81492   0.00000  Uiso   1.00
O920   O     0.06067   0.50000   0.68508   0.00000  Uiso   1.00
O921   O     0.32462   0.43455   0.96785   0.00000  Uiso   1.00
H922   H     0.01688   0.42150   0.94379   0.00000  Uiso   1.00
O923   O     0.00792   0.42853   0.54174   0.00000  Uiso   1.00
H924   H     0.03238   0.41149   0.52073   0.00000  Uiso   1.00
O925   O     0.20048   0.44625   0.80355   0.00000  Uiso   1.00
H926   H     0.17278   0.43576   0.82814   0.00000  Uiso   1.00
O927   O     0.13184   0.55546   0.69845   0.00000  Uiso   1.00
H928   H     0.15609   0.57683   0.68433   0.00000  Uiso   1.00
C929   C     0.10765   0.43291   0.79296   0.00000  Uiso   1.00
O930   O     0.06933   0.43476   0.82220   0.00000  Uiso   1.00
O931   O     0.12768   0.39445   0.77893   0.00000  Uiso   1.00
H932   H     0.10661   0.37061   0.79510   0.00000  Uiso   1.00
C933   C     0.23332   0.55617   0.69267   0.00000  Uiso   1.00
O934   O     0.25432   0.54558   0.65512   0.00000  Uiso   1.00
O935   O     0.23710   0.59674   0.70480   0.00000  Uiso   1.00
H936   H     0.26037   0.61389   0.68039   0.00000  Uiso   1.00
C937   C     0.33343   0.42087   0.75009   0.00000  Uiso   1.00
C938   C     0.66656   0.57914   0.74993   0.00000  Uiso   1.00
C939   C     0.52891   0.48645   0.54562   0.00000  Uiso   1.00
C940   C     0.47112   0.48483   0.95655   0.00000  Uiso   1.00
C941   C     0.57600   0.47700   0.52125   0.00000  Uiso   1.00
C942   C     0.42465   0.47362   0.98169   0.00000  Uiso   1.00
C943   C     0.62286   0.35467   0.76461   0.00000  Uiso   1.00
C944   C     0.37707   0.64538   0.73548   0.00000  Uiso   1.00
C945   C     0.62274   0.64528   0.76460   0.00000  Uiso   1.00
C946   C     0.37718   0.35477   0.73545   0.00000  Uiso   1.00
C947   C     0.66650   0.62385   0.74993   0.00000  Uiso   1.00
C948   C     0.33345   0.37618   0.75015   0.00000  Uiso   1.00
C949   C     0.51728   0.47252   0.77614   0.00000  Uiso   1.00
C950   C     0.48257   0.52821   0.72446   0.00000  Uiso   1.00
C951   C     0.46852   0.47067   0.77406   0.00000  Uiso   1.00
C952   C     0.53268   0.52754   0.72355   0.00000  Uiso   1.00
C953   C     0.63865   0.49946   0.83553   0.00000  Uiso   1.00
C954   C     0.36127   0.49910   0.66465   0.00000  Uiso   1.00
C955   C     0.62192   0.49400   0.88370   0.00000  Uiso   1.00
C956   C     0.37778   0.49230   0.61732   0.00000  Uiso   1.00
C957   C     0.63516   0.46454   0.95003   0.00000  Uiso   1.00
C958   C     0.36540   0.45965   0.55444   0.00000  Uiso   1.00
C959   C     0.65257   0.47577   0.90530   0.00000  Uiso   1.00
C960   C     0.34787   0.47140   0.59803   0.00000  Uiso   1.00
C961   C     0.57322   0.50044   0.90729   0.00000  Uiso   1.00
C962   C     0.42614   0.49985   0.59315   0.00000  Uiso   1.00
C963   C     0.55631   0.49157   0.95308   0.00000  Uiso   1.00
C964   C     0.44356   0.48969   0.54852   0.00000  Uiso   1.00
C965   C     0.58971   0.47845   0.97504   0.00000  Uiso   1.00
C966   C     0.41085   0.47439   0.52787   0.00000  Uiso   1.00
C967   C     0.50678   0.49149   0.97734   0.00000  Uiso   1.00
C968   C     0.49306   0.49146   0.52428   0.00000  Uiso   1.00
Cu969  Cu    0.38022   0.50001   0.75000   0.00000  Uiso   1.00
Cu970  Cu    0.61978   0.49999   0.75000   0.00000  Uiso   1.00
H971   H     0.60170   0.46902   0.53869   0.00000  Uiso   1.00
H972   H     0.39957   0.46543   0.96458   0.00000  Uiso   1.00
H973   H     0.44967   0.51429   0.60908   0.00000  Uiso   1.00
H974   H     0.54909   0.51296   0.88994   0.00000  Uiso   1.00
H975   H     0.64581   0.46068   0.61792   0.00000  Uiso   1.00
H976   H     0.35573   0.46761   0.88720   0.00000  Uiso   1.00
H977   H     0.52009   0.48433   0.58125   0.00000  Uiso   1.00
H978   H     0.47975   0.48299   0.92107   0.00000  Uiso   1.00
H979   H     0.58871   0.37078   0.77634   0.00000  Uiso   1.00
H980   H     0.41122   0.62929   0.72373   0.00000  Uiso   1.00
H981   H     0.58858   0.62906   0.77654   0.00000  Uiso   1.00
H982   H     0.41130   0.37100   0.72336   0.00000  Uiso   1.00
N983   N     0.45069   0.50001   0.74999   0.00000  Uiso   1.00
N984   N     0.54931   0.49999   0.75001   0.00000  Uiso   1.00
O985   O     0.37291   0.43989   0.75000   0.00000  Uiso   1.00
O986   O     0.62709   0.56011   0.75000   0.00000  Uiso   1.00
O987   O     0.62706   0.43988   0.75001   0.00000  Uiso   1.00
O988   O     0.37294   0.56012   0.75000   0.00000  Uiso   1.00
O989   O     0.35186   0.50001   0.81492   0.00000  Uiso   1.00
O990   O     0.64814   0.49999   0.68509   0.00000  Uiso   1.00
O991   O     0.60600   0.50000   0.81492   0.00000  Uiso   1.00
O992   O     0.39400   0.50000   0.68508   0.00000  Uiso   1.00
O993   O     0.65796   0.43455   0.96785   0.00000  Uiso   1.00
H994   H     0.35021   0.42150   0.94379   0.00000  Uiso   1.00
O995   O     0.34126   0.42853   0.54174   0.00000  Uiso   1.00
H996   H     0.36572   0.41149   0.52073   0.00000  Uiso   1.00
O997   O     0.53382   0.44625   0.80355   0.00000  Uiso   1.00
H998   H     0.50612   0.43576   0.82814   0.00000  Uiso   1.00
O999   O     0.46518   0.55546   0.69845   0.00000  Uiso   1.00
H1000  H     0.48943   0.57683   0.68433   0.00000  Uiso   1.00
C1001  C     0.44098   0.43291   0.79296   0.00000  Uiso   1.00
O1002  O     0.40266   0.43476   0.82220   0.00000  Uiso   1.00
O1003  O     0.46102   0.39445   0.77893   0.00000  Uiso   1.00
H1004  H     0.43994   0.37061   0.79510   0.00000  Uiso   1.00
C1005  C     0.56665   0.55617   0.69267   0.00000  Uiso   1.00
O1006  O     0.58765   0.54558   0.65512   0.00000  Uiso   1.00
O1007  O     0.57044   0.59674   0.70480   0.00000  Uiso   1.00
H1008  H     0.59371   0.61389   0.68039   0.00000  Uiso   1.00
C1009  C     0.66676   0.42087   0.75009   0.00000  Uiso   1.00
C1010  C     0.99989   0.57914   0.74993   0.00000  Uiso   1.00
C1011  C     0.86225   0.48645   0.54562   0.00000  Uiso   1.00
C1012  C     0.80446   0.48483   0.95655   0.00000  Uiso   1.00
C1013  C     0.90934   0.47700   0.52125   0.00000  Uiso   1.00
C1014  C     0.75798   0.47362   0.98169   0.00000  Uiso   1.00
C1015  C     0.95620   0.35467   0.76461   0.00000  Uiso   1.00
C1016  C     0.71040   0.64538   0.73548   0.00000  Uiso   1.00
C1017  C     0.95607   0.64528   0.76460   0.00000  Uiso   1.00
C1018  C     0.71051   0.35477   0.73545   0.00000  Uiso   1.00
C1019  C     0.99983   0.62385   0.74993   0.00000  Uiso   1.00
C1020  C     0.66678   0.37618   0.75015   0.00000  Uiso   1.00
C1021  C     0.85061   0.47252   0.77614   0.00000  Uiso   1.00
C1022  C     0.81591   0.52821   0.72446   0.00000  Uiso   1.00
C1023  C     0.80186   0.47067   0.77406   0.00000  Uiso   1.00
C1024  C     0.86602   0.52754   0.72355   0.00000  Uiso   1.00
C1025  C     0.97198   0.49946   0.83553   0.00000  Uiso   1.00
C1026  C     0.69460   0.49910   0.66465   0.00000  Uiso   1.00
C1027  C     0.95525   0.49400   0.88370   0.00000  Uiso   1.00
C1028  C     0.71112   0.49230   0.61732   0.00000  Uiso   1.00
C1029  C     0.96850   0.46454   0.95003   0.00000  Uiso   1.00
C1030  C     0.69873   0.45965   0.55444   0.00000  Uiso   1.00
C1031  C     0.98590   0.47577   0.90530   0.00000  Uiso   1.00
C1032  C     0.68121   0.47140   0.59803   0.00000  Uiso   1.00
C1033  C     0.90655   0.50044   0.90729   0.00000  Uiso   1.00
C1034  C     0.75948   0.49985   0.59315   0.00000  Uiso   1.00
C1035  C     0.88964   0.49157   0.95308   0.00000  Uiso   1.00
C1036  C     0.77689   0.48969   0.54852   0.00000  Uiso   1.00
C1037  C     0.92305   0.47845   0.97504   0.00000  Uiso   1.00
C1038  C     0.74418   0.47439   0.52787   0.00000  Uiso   1.00
C1039  C     0.84011   0.49149   0.97734   0.00000  Uiso   1.00
C1040  C     0.82639   0.49146   0.52428   0.00000  Uiso   1.00
Cu1041 Cu    0.71355   0.50001   0.75000   0.00000  Uiso   1.00
Cu1042 Cu    0.95311   0.49999   0.75000   0.00000  Uiso   1.00
H1043  H     0.93504   0.46902   0.53869   0.00000  Uiso   1.00
H1044  H     0.73290   0.46543   0.96458   0.00000  Uiso   1.00
H1045  H     0.78300   0.51429   0.60908   0.00000  Uiso   1.00
H1046  H     0.88243   0.51296   0.88994   0.00000  Uiso   1.00
H1047  H     0.97914   0.46068   0.61792   0.00000  Uiso   1.00
H1048  H     0.68906   0.46761   0.88720   0.00000  Uiso   1.00
H1049  H     0.85342   0.48433   0.58125   0.00000  Uiso   1.00
H1050  H     0.81308   0.48299   0.92107   0.00000  Uiso   1.00
H1051  H     0.92204   0.37078   0.77634   0.00000  Uiso   1.00
H1052  H     0.74456   0.62929   0.72373   0.00000  Uiso   1.00
H1053  H     0.92191   0.62906   0.77654   0.00000  Uiso   1.00
H1054  H     0.74464   0.37100   0.72336   0.00000  Uiso   1.00
N1055  N     0.78403   0.50001   0.74999   0.00000  Uiso   1.00
N1056  N     0.88264   0.49999   0.75001   0.00000  Uiso   1.00
O1057  O     0.70625   0.43989   0.75000   0.00000  Uiso   1.00
O1058  O     0.96042   0.56011   0.75000   0.00000  Uiso   1.00
O1059  O     0.96039   0.43988   0.75001   0.00000  Uiso   1.00
O1060  O     0.70628   0.56012   0.75000   0.00000  Uiso   1.00
O1061  O     0.68519   0.50001   0.81492   0.00000  Uiso   1.00
O1062  O     0.98148   0.49999   0.68509   0.00000  Uiso   1.00
O1063  O     0.93933   0.50000   0.81492   0.00000  Uiso   1.00
O1064  O     0.72733   0.50000   0.68508   0.00000  Uiso   1.00
O1065  O     0.99129   0.43455   0.96785   0.00000  Uiso   1.00
H1066  H     0.68354   0.42150   0.94379   0.00000  Uiso   1.00
O1067  O     0.67459   0.42853   0.54174   0.00000  Uiso   1.00
H1068  H     0.69905   0.41149   0.52073   0.00000  Uiso   1.00
O1069  O     0.86715   0.44625   0.80355   0.00000  Uiso   1.00
H1070  H     0.83945   0.43576   0.82814   0.00000  Uiso   1.00
O1071  O     0.79851   0.55546   0.69845   0.00000  Uiso   1.00
H1072  H     0.82276   0.57683   0.68433   0.00000  Uiso   1.00
C1073  C     0.77432   0.43291   0.79296   0.00000  Uiso   1.00
O1074  O     0.73600   0.43476   0.82220   0.00000  Uiso   1.00
O1075  O     0.79435   0.39445   0.77893   0.00000  Uiso   1.00
H1076  H     0.77328   0.37061   0.79510   0.00000  Uiso   1.00
C1077  C     0.89999   0.55617   0.69267   0.00000  Uiso   1.00
O1078  O     0.92098   0.54558   0.65512   0.00000  Uiso   1.00
O1079  O     0.90377   0.59674   0.70480   0.00000  Uiso   1.00
H1080  H     0.92704   0.61389   0.68039   0.00000  Uiso   1.00
C1081  C     0.00009   0.75420   0.75009   0.00000  Uiso   1.00
C1082  C     0.33323   0.91247   0.74993   0.00000  Uiso   1.00
C1083  C     0.19558   0.81978   0.54562   0.00000  Uiso   1.00
C1084  C     0.13779   0.81816   0.95655   0.00000  Uiso   1.00
C1085  C     0.24267   0.81033   0.52125   0.00000  Uiso   1.00
C1086  C     0.09132   0.80695   0.98169   0.00000  Uiso   1.00
C1087  C     0.28953   0.68800   0.76461   0.00000  Uiso   1.00
C1088  C     0.04374   0.97871   0.73548   0.00000  Uiso   1.00
C1089  C     0.28941   0.97861   0.76460   0.00000  Uiso   1.00
C1090  C     0.04385   0.68810   0.73545   0.00000  Uiso   1.00
C1091  C     0.33316   0.95718   0.74993   0.00000  Uiso   1.00
C1092  C     0.00011   0.70952   0.75015   0.00000  Uiso   1.00
C1093  C     0.18395   0.80586   0.77614   0.00000  Uiso   1.00
C1094  C     0.14924   0.86154   0.72446   0.00000  Uiso   1.00
C1095  C     0.13519   0.80401   0.77406   0.00000  Uiso   1.00
C1096  C     0.19935   0.86087   0.72355   0.00000  Uiso   1.00
C1097  C     0.30531   0.83280   0.83553   0.00000  Uiso   1.00
C1098  C     0.02793   0.83244   0.66465   0.00000  Uiso   1.00
C1099  C     0.28858   0.82733   0.88370   0.00000  Uiso   1.00
C1100  C     0.04445   0.82564   0.61732   0.00000  Uiso   1.00
C1101  C     0.30183   0.79788   0.95003   0.00000  Uiso   1.00
C1102  C     0.03207   0.79299   0.55444   0.00000  Uiso   1.00
C1103  C     0.31923   0.80910   0.90530   0.00000  Uiso   1.00
C1104  C     0.01454   0.80473   0.59803   0.00000  Uiso   1.00
C1105  C     0.23988   0.83378   0.90729   0.00000  Uiso   1.00
C1106  C     0.09281   0.83318   0.59315   0.00000  Uiso   1.00
C1107  C     0.22298   0.82490   0.95308   0.00000  Uiso   1.00
C1108  C     0.11023   0.82303   0.54852   0.00000  Uiso   1.00
C1109  C     0.25638   0.81179   0.97504   0.00000  Uiso   1.00
C1110  C     0.07752   0.80772   0.52787   0.00000  Uiso   1.00
C1111  C     0.17344   0.82483   0.97734   0.00000  Uiso   1.00
C1112  C     0.15972   0.82479   0.52428   0.00000  Uiso   1.00
Cu1113 Cu    0.04689   0.83334   0.75000   0.00000  Uiso   1.00
Cu1114 Cu    0.28645   0.83333   0.75000   0.00000  Uiso   1.00
H1115  H     0.26837   0.80235   0.53869   0.00000  Uiso   1.00
H1116  H     0.06624   0.79876   0.96458   0.00000  Uiso   1.00
H1117  H     0.11633   0.84763   0.60908   0.00000  Uiso   1.00
H1118  H     0.21576   0.84629   0.88994   0.00000  Uiso   1.00
H1119  H     0.31248   0.79401   0.61792   0.00000  Uiso   1.00
H1120  H     0.02239   0.80094   0.88720   0.00000  Uiso   1.00
H1121  H     0.18675   0.81766   0.58125   0.00000  Uiso   1.00
H1122  H     0.14642   0.81632   0.92107   0.00000  Uiso   1.00
H1123  H     0.25538   0.70412   0.77634   0.00000  Uiso   1.00
H1124  H     0.07789   0.96262   0.72373   0.00000  Uiso   1.00
H1125  H     0.25524   0.96240   0.77654   0.00000  Uiso   1.00
H1126  H     0.07797   0.70433   0.72336   0.00000  Uiso   1.00
N1127  N     0.11736   0.83334   0.74999   0.00000  Uiso   1.00
N1128  N     0.21597   0.83332   0.75001   0.00000  Uiso   1.00
O1129  O     0.03958   0.77322   0.75000   0.00000  Uiso   1.00
O1130  O     0.29375   0.89345   0.75000   0.00000  Uiso   1.00
O1131  O     0.29372   0.77321   0.75001   0.00000  Uiso   1.00
O1132  O     0.03961   0.89346   0.75000   0.00000  Uiso   1.00
O1133  O     0.01852   0.83334   0.81492   0.00000  Uiso   1.00
O1134  O     0.31481   0.83332   0.68509   0.00000  Uiso   1.00
O1135  O     0.27267   0.83333   0.81492   0.00000  Uiso   1.00
O1136  O     0.06067   0.83333   0.68508   0.00000  Uiso   1.00
O1137  O     0.32462   0.76788   0.96785   0.00000  Uiso   1.00
H1138  H     0.01688   0.75483   0.94379   0.00000  Uiso   1.00
O1139  O     0.00792   0.76187   0.54174   0.00000  Uiso   1.00
H1140  H     0.03238   0.74482   0.52073   0.00000  Uiso   1.00
O1141  O     0.20048   0.77958   0.80355   0.00000  Uiso   1.00
H1142  H     0.17278   0.76909   0.82814   0.00000  Uiso   1.00
O1143  O     0.13184   0.88879   0.69845   0.00000  Uiso   1.00
H1144  H     0.15609   0.91017   0.68433   0.00000  Uiso   1.00
C1145  C     0.10765   0.76625   0.79296   0.00000  Uiso   1.00
O1146  O     0.06933   0.76810   0.82220   0.00000  Uiso   1.00
O1147  O     0.12768   0.72779   0.77893   0.00000  Uiso   1.00
H1148  H     0.10661   0.70394   0.79510   0.00000  Uiso   1.00
C1149  C     0.23332   0.88950   0.69267   0.00000  Uiso   1.00
O1150  O     0.25432   0.87891   0.65512   0.00000  Uiso   1.00
O1151  O     0.23710   0.93007   0.70480   0.00000  Uiso   1.00
H1152  H     0.26037   0.94722   0.68039   0.00000  Uiso   1.00
C1153  C     0.33343   0.75420   0.75009   0.00000  Uiso   1.00
C1154  C     0.66656   0.91247   0.74993   0.00000  Uiso   1.00
C1155  C     0.52891   0.81978   0.54562   0.00000  Uiso   1.00
C1156  C     0.47112   0.81816   0.95655   0.00000  Uiso   1.00
C1157  C     0.57600   0.81033   0.52125   0.00000  Uiso   1.00
C1158  C     0.42465   0.80695   0.98169   0.00000  Uiso   1.00
C1159  C     0.62286   0.68800   0.76461   0.00000  Uiso   1.00
C1160  C     0.37707   0.97871   0.73548   0.00000  Uiso   1.00
C1161  C     0.62274   0.97861   0.76460   0.00000  Uiso   1.00
C1162  C     0.37718   0.68810   0.73545   0.00000  Uiso   1.00
C1163  C     0.66650   0.95718   0.74993   0.00000  Uiso   1.00
C1164  C     0.33345   0.70952   0.75015   0.00000  Uiso   1.00
C1165  C     0.51728   0.80586   0.77614   0.00000  Uiso   1.00
C1166  C     0.48257   0.86154   0.72446   0.00000  Uiso   1.00
C1167  C     0.46852   0.80401   0.77406   0.00000  Uiso   1.00
C1168  C     0.53268   0.86087   0.72355   0.00000  Uiso   1.00
C1169  C     0.63865   0.83280   0.83553   0.00000  Uiso   1.00
C1170  C     0.36127   0.83244   0.66465   0.00000  Uiso   1.00
C1171  C     0.62192   0.82733   0.88370   0.00000  Uiso   1.00
C1172  C     0.37778   0.82564   0.61732   0.00000  Uiso   1.00
C1173  C     0.63516   0.79788   0.95003   0.00000  Uiso   1.00
C1174  C     0.36540   0.79299   0.55444   0.00000  Uiso   1.00
C1175  C     0.65257   0.80910   0.90530   0.00000  Uiso   1.00
C1176  C     0.34787   0.80473   0.59803   0.00000  Uiso   1.00
C1177  C     0.57322   0.83378   0.90729   0.00000  Uiso   1.00
C1178  C     0.42614   0.83318   0.59315   0.00000  Uiso   1.00
C1179  C     0.55631   0.82490   0.95308   0.00000  Uiso   1.00
C1180  C     0.44356   0.82303   0.54852   0.00000  Uiso   1.00
C1181  C     0.58971   0.81179   0.97504   0.00000  Uiso   1.00
C1182  C     0.41085   0.80772   0.52787   0.00000  Uiso   1.00
C1183  C     0.50678   0.82483   0.97734   0.00000  Uiso   1.00
C1184  C     0.49306   0.82479   0.52428   0.00000  Uiso   1.00
Cu1185 Cu    0.38022   0.83334   0.75000   0.00000  Uiso   1.00
Cu1186 Cu    0.61978   0.83333   0.75000   0.00000  Uiso   1.00
H1187  H     0.60170   0.80235   0.53869   0.00000  Uiso   1.00
H1188  H     0.39957   0.79876   0.96458   0.00000  Uiso   1.00
H1189  H     0.44967   0.84763   0.60908   0.00000  Uiso   1.00
H1190  H     0.54909   0.84629   0.88994   0.00000  Uiso   1.00
H1191  H     0.64581   0.79401   0.61792   0.00000  Uiso   1.00
H1192  H     0.35573   0.80094   0.88720   0.00000  Uiso   1.00
H1193  H     0.52009   0.81766   0.58125   0.00000  Uiso   1.00
H1194  H     0.47975   0.81632   0.92107   0.00000  Uiso   1.00
H1195  H     0.58871   0.70412   0.77634   0.00000  Uiso   1.00
H1196  H     0.41122   0.96262   0.72373   0.00000  Uiso   1.00
H1197  H     0.58858   0.96240   0.77654   0.00000  Uiso   1.00
H1198  H     0.41130   0.70433   0.72336   0.00000  Uiso   1.00
N1199  N     0.45069   0.83334   0.74999   0.00000  Uiso   1.00
N1200  N     0.54931   0.83332   0.75001   0.00000  Uiso   1.00
O1201  O     0.37291   0.77322   0.75000   0.00000  Uiso   1.00
O1202  O     0.62709   0.89345   0.75000   0.00000  Uiso   1.00
O1203  O     0.62706   0.77321   0.75001   0.00000  Uiso   1.00
O1204  O     0.37294   0.89346   0.75000   0.00000  Uiso   1.00
O1205  O     0.35186   0.83334   0.81492   0.00000  Uiso   1.00
O1206  O     0.64814   0.83332   0.68509   0.00000  Uiso   1.00
O1207  O     0.60600   0.83333   0.81492   0.00000  Uiso   1.00
O1208  O     0.39400   0.83333   0.68508   0.00000  Uiso   1.00
O1209  O     0.65796   0.76788   0.96785   0.00000  Uiso   1.00
H1210  H     0.35021   0.75483   0.94379   0.00000  Uiso   1.00
O1211  O     0.34126   0.76187   0.54174   0.00000  Uiso   1.00
H1212  H     0.36572   0.74482   0.52073   0.00000  Uiso   1.00
O1213  O     0.53382   0.77958   0.80355   0.00000  Uiso   1.00
H1214  H     0.50612   0.76909   0.82814   0.00000  Uiso   1.00
O1215  O     0.46518   0.88879   0.69845   0.00000  Uiso   1.00
H1216  H     0.48943   0.91017   0.68433   0.00000  Uiso   1.00
C1217  C     0.44098   0.76625   0.79296   0.00000  Uiso   1.00
O1218  O     0.40266   0.76810   0.82220   0.00000  Uiso   1.00
O1219  O     0.46102   0.72779   0.77893   0.00000  Uiso   1.00
H1220  H     0.43994   0.70394   0.79510   0.00000  Uiso   1.00
C1221  C     0.56665   0.88950   0.69267   0.00000  Uiso   1.00
O1222  O     0.58765   0.87891   0.65512   0.00000  Uiso   1.00
O1223  O     0.57044   0.93007   0.70480   0.00000  Uiso   1.00
H1224  H     0.59371   0.94722   0.68039   0.00000  Uiso   1.00
C1225  C     0.66676   0.75420   0.75009   0.00000  Uiso   1.00
C1226  C     0.99989   0.91247   0.74993   0.00000  Uiso   1.00
C1227  C     0.86225   0.81978   0.54562   0.00000  Uiso   1.00
C1228  C     0.80446   0.81816   0.95655   0.00000  Uiso   1.00
C1229  C     0.90934   0.81033   0.52125   0.00000  Uiso   1.00
C1230  C     0.75798   0.80695   0.98169   0.00000  Uiso   1.00
C1231  C     0.95620   0.68800   0.76461   0.00000  Uiso   1.00
C1232  C     0.71040   0.97871   0.73548   0.00000  Uiso   1.00
C1233  C     0.95607   0.97861   0.76460   0.00000  Uiso   1.00
C1234  C     0.71051   0.68810   0.73545   0.00000  Uiso   1.00
C1235  C     0.99983   0.95718   0.74993   0.00000  Uiso   1.00
C1236  C     0.66678   0.70952   0.75015   0.00000  Uiso   1.00
C1237  C     0.85061   0.80586   0.77614   0.00000  Uiso   1.00
C1238  C     0.81591   0.86154   0.72446   0.00000  Uiso   1.00
C1239  C     0.80186   0.80401   0.77406   0.00000  Uiso   1.00
C1240  C     0.86602   0.86087   0.72355   0.00000  Uiso   1.00
C1241  C     0.97198   0.83280   0.83553   0.00000  Uiso   1.00
C1242  C     0.69460   0.83244   0.66465   0.00000  Uiso   1.00
C1243  C     0.95525   0.82733   0.88370   0.00000  Uiso   1.00
C1244  C     0.71112   0.82564   0.61732   0.00000  Uiso   1.00
C1245  C     0.96850   0.79788   0.95003   0.00000  Uiso   1.00
C1246  C     0.69873   0.79299   0.55444   0.00000  Uiso   1.00
C1247  C     0.98590   0.80910   0.90530   0.00000  Uiso   1.00
C1248  C     0.68121   0.80473   0.59803   0.00000  Uiso   1.00
C1249  C     0.90655   0.83378   0.90729   0.00000  Uiso   1.00
C1250  C     0.75948   0.83318   0.59315   0.00000  Uiso   1.00
C1251  C     0.88964   0.82490   0.95308   0.00000  Uiso   1.00
C1252  C     0.77689   0.82303   0.54852   0.00000  Uiso   1.00
C1253  C     0.92305   0.81179   0.97504   0.00000  Uiso   1.00
C1254  C     0.74418   0.80772   0.52787   0.00000  Uiso   1.00
C1255  C     0.84011   0.82483   0.97734   0.00000  Uiso   1.00
C1256  C     0.82639   0.82479   0.52428   0.00000  Uiso   1.00
Cu1257 Cu    0.71355   0.83334   0.75000   0.00000  Uiso   1.00
Cu1258 Cu    0.95311   0.83333   0.75000   0.00000  Uiso   1.00
H1259  H     0.93504   0.80235   0.53869   0.00000  Uiso   1.00
H1260  H     0.73290   0.79876   0.96458   0.00000  Uiso   1.00
H1261  H     0.78300   0.84763   0.60908   0.00000  Uiso   1.00
H1262  H     0.88243   0.84629   0.88994   0.00000  Uiso   1.00
H1263  H     0.97914   0.79401   0.61792   0.00000  Uiso   1.00
H1264  H     0.68906   0.80094   0.88720   0.00000  Uiso   1.00
H1265  H     0.85342   0.81766   0.58125   0.00000  Uiso   1.00
H1266  H     0.81308   0.81632   0.92107   0.00000  Uiso   1.00
H1267  H     0.92204   0.70412   0.77634   0.00000  Uiso   1.00
H1268  H     0.74456   0.96262   0.72373   0.00000  Uiso   1.00
H1269  H     0.92191   0.96240   0.77654   0.00000  Uiso   1.00
H1270  H     0.74464   0.70433   0.72336   0.00000  Uiso   1.00
N1271  N     0.78403   0.83334   0.74999   0.00000  Uiso   1.00
N1272  N     0.88264   0.83332   0.75001   0.00000  Uiso   1.00
O1273  O     0.70625   0.77322   0.75000   0.00000  Uiso   1.00
O1274  O     0.96042   0.89345   0.75000   0.00000  Uiso   1.00
O1275  O     0.96039   0.77321   0.75001   0.00000  Uiso   1.00
O1276  O     0.70628   0.89346   0.75000   0.00000  Uiso   1.00
O1277  O     0.68519   0.83334   0.81492   0.00000  Uiso   1.00
O1278  O     0.98148   0.83332   0.68509   0.00000  Uiso   1.00
O1279  O     0.93933   0.83333   0.81492   0.00000  Uiso   1.00
O1280  O     0.72733   0.83333   0.68508   0.00000  Uiso   1.00
O1281  O     0.99129   0.76788   0.96785   0.00000  Uiso   1.00
H1282  H     0.68354   0.75483   0.94379   0.00000  Uiso   1.00
O1283  O     0.67459   0.76187   0.54174   0.00000  Uiso   1.00
H1284  H     0.69905   0.74482   0.52073   0.00000  Uiso   1.00
O1285  O     0.86715   0.77958   0.80355   0.00000  Uiso   1.00
H1286  H     0.83945   0.76909   0.82814   0.00000  Uiso   1.00
O1287  O     0.79851   0.88879   0.69845   0.00000  Uiso   1.00
H1288  H     0.82276   0.91017   0.68433   0.00000  Uiso   1.00
C1289  C     0.77432   0.76625   0.79296   0.00000  Uiso   1.00
O1290  O     0.73600   0.76810   0.82220   0.00000  Uiso   1.00
O1291  O     0.79435   0.72779   0.77893   0.00000  Uiso   1.00
H1292  H     0.77328   0.70394   0.79510   0.00000  Uiso   1.00
C1293  C     0.89999   0.88950   0.69267   0.00000  Uiso   1.00
O1294  O     0.92098   0.87891   0.65512   0.00000  Uiso   1.00
O1295  O     0.90377   0.93007   0.70480   0.00000  Uiso   1.00
H1296  H     0.92704   0.94722   0.68039   0.00000  Uiso   1.00
loop_
_geom_bond_atom_site_label_1
_geom_bond_atom_site_label_2
_geom_bond_distance
_geom_bond_site_symmetry_2
_ccdc_geom_bond_type
C1     C12     1.448   .     S
C1     O49     1.306   .     A
C1     O195    1.302   1_455 S
C2     O50     1.306   .     A
C2     C11     1.449   .     S
C2     O124    1.302   .     S
C3     C5      1.389   .     A
C3     C32     1.408   .     A
C3     H41     1.081   .     S
C4     C6      1.389   .     A
C4     H42     1.081   .     S
C4     C31     1.407   .     A
C5     H35     1.080   .     S
C5     C677    1.398   1_554 S
C6     H36     1.071   .     S
C6     C678    1.399   .     S
C7     H43     1.083   .     S
C7     C441    1.384   1_545 S
C7     C84     1.402   .     S
C8     H44     1.083   .     S
C8     C226    1.384   .     S
C8     C155    1.402   1_455 S
C9     H45     1.083   .     S
C9     C11     1.399   .     A
C9     C223    1.384   .     S
C10    H46     1.083   .     S
C10    C12     1.399   .     A
C10    C440    1.384   1_545 S
C11    C80     1.402   .     S
C12    C151    1.402   1_455 S
C13    N48     1.359   .     A
C13    C15     1.438   .     A
C13    O61     1.381   .     S
C14    N47     1.365   .     A
C14    O63     1.382   .     S
C14    C16     1.446   .     A
C15    N47     1.391   .     A
C15    C65     1.475   .     S
C16    N48     1.386   .     A
C16    C69     1.472   .     S
C17    O55     1.304   .     A
C17    C19     1.463   .     S
C17    O125    1.311   .     S
C18    O56     1.303   .     A
C18    C20     1.456   .     S
C18    O198    1.308   1_455 S
C19    C23     1.393   .     A
C19    C25     1.403   .     A
C20    C24     1.396   .     A
C20    C26     1.401   .     A
C21    C29     1.397   .     A
C21    O57     1.371   .     S
C21    C23     1.393   .     A
C22    C24     1.387   .     A
C22    O59     1.372   .     S
C22    C30     1.412   .     A
C23    H112    1.076   .     S
C24    H183    1.084   1_455 S
C25    H38     1.082   .     S
C25    C27     1.407   .     A
C26    H37     1.082   .     S
C26    C28     1.402   .     A
C27    C29     1.409   .     A
C27    C31     1.411   .     A
C28    C30     1.409   .     A
C28    C32     1.411   .     A
C29    C653    1.398   .     S
C30    C654    1.399   1_554 S
C31    C680    1.421   .     S
C32    C679    1.421   1_554 S
Cu33   O56     1.977   .     S
Cu33   O52     1.957   .     S
Cu33   O53     1.974   .     S
Cu33   N47     2.045   .     S
Cu33   O49     1.962   .     S
Cu33   Cu178   2.721   1_455 S
Cu34   O51     1.957   .     S
Cu34   O55     1.977   .     S
Cu34   O54     1.974   .     S
Cu34   O50     1.962   .     S
Cu34   N48     2.045   .     S
Cu34   Cu105   2.721   .     S
H39    C96     1.084   .     S
H40    C167    1.076   1_455 S
O51    C73     1.302   .     S
O52    C146    1.302   1_455 S
O53    C161    1.311   1_455 S
O54    C90     1.308   .     S
O57    H130    0.993   .     S
H58    O201    0.993   1_455 S
O59    H60     0.992   .     S
O61    H62     0.990   .     S
O63    H64     0.987   .     S
C65    O66     1.217   .     D
C65    O67     1.398   .     S
O67    H68     1.014   .     S
C69    O71     1.397   .     S
C69    O70     1.222   .     D
O71    H72     1.014   .     S
C73    C84     1.448   .     S
C73    O121    1.306   .     A
C74    O122    1.306   .     A
C74    C83     1.449   .     S
C74    O196    1.302   .     S
C75    C77     1.389   .     A
C75    C104    1.408   .     A
C75    H113    1.081   .     S
C76    C78     1.389   .     A
C76    H114    1.081   .     S
C76    C103    1.407   .     A
C77    H107    1.080   .     S
C77    C749    1.398   1_554 S
C78    H108    1.071   .     S
C78    C750    1.399   .     S
C79    H115    1.083   .     S
C79    C513    1.384   1_545 S
C79    C156    1.402   .     S
C80    H116    1.083   .     S
C80    C298    1.384   .     S
C81    H117    1.083   .     S
C81    C83     1.399   .     A
C81    C295    1.384   .     S
C82    H118    1.083   .     S
C82    C84     1.399   .     A
C82    C512    1.384   1_545 S
C83    C152    1.402   .     S
C85    N120    1.359   .     A
C85    C87     1.438   .     A
C85    O133    1.381   .     S
C86    N119    1.365   .     A
C86    O135    1.382   .     S
C86    C88     1.446   .     A
C87    N119    1.391   .     A
C87    C137    1.475   .     S
C88    N120    1.386   .     A
C88    C141    1.472   .     S
C89    O127    1.304   .     A
C89    C91     1.463   .     S
C89    O197    1.311   .     S
C90    O128    1.303   .     A
C90    C92     1.456   .     S
C91    C95     1.393   .     A
C91    C97     1.403   .     A
C92    C96     1.396   .     A
C92    C98     1.401   .     A
C93    C101    1.397   .     A
C93    O129    1.371   .     S
C93    C95     1.393   .     A
C94    C96     1.387   .     A
C94    O131    1.372   .     S
C94    C102    1.412   .     A
C95    H184    1.076   .     S
C97    H110    1.082   .     S
C97    C99     1.407   .     A
C98    H109    1.082   .     S
C98    C100    1.402   .     A
C99    C101    1.409   .     A
C99    C103    1.411   .     A
C100   C102    1.409   .     A
C100   C104    1.411   .     A
C101   C725    1.398   .     S
C102   C726    1.399   1_554 S
C103   C752    1.421   .     S
C104   C751    1.421   1_554 S
Cu105  O128    1.977   .     S
Cu105  O124    1.957   .     S
Cu105  O125    1.974   .     S
Cu105  N119    2.045   .     S
Cu105  O121    1.962   .     S
Cu106  O123    1.957   .     S
Cu106  O127    1.977   .     S
Cu106  O126    1.974   .     S
Cu106  O122    1.962   .     S
Cu106  N120    2.045   .     S
Cu106  Cu177   2.721   .     S
H111   C168    1.084   .     S
O123   C145    1.302   .     S
O126   C162    1.308   .     S
O129   H202    0.993   .     S
O131   H132    0.992   .     S
O133   H134    0.990   .     S
O135   H136    0.987   .     S
C137   O138    1.217   .     D
C137   O139    1.398   .     S
O139   H140    1.014   .     S
C141   O143    1.397   .     S
C141   O142    1.222   .     D
O143   H144    1.014   .     S
C145   C156    1.448   .     S
C145   O193    1.306   .     A
C146   O194    1.306   .     A
C146   C155    1.449   .     S
C146   O52     1.302   1_655 S
C147   C149    1.389   .     A
C147   C176    1.408   .     A
C147   H185    1.081   .     S
C148   C150    1.389   .     A
C148   H186    1.081   .     S
C148   C175    1.407   .     A
C149   H179    1.080   .     S
C149   C821    1.398   1_554 S
C150   H180    1.071   .     S
C150   C822    1.399   .     S
C151   H187    1.083   .     S
C151   C585    1.384   1_545 S
C151   C12     1.402   1_655 S
C152   H188    1.083   .     S
C152   C370    1.384   .     S
C153   H189    1.083   .     S
C153   C155    1.399   .     A
C153   C367    1.384   .     S
C154   H190    1.083   .     S
C154   C156    1.399   .     A
C154   C584    1.384   1_545 S
C155   C8      1.402   1_655 S
C157   N192    1.359   .     A
C157   C159    1.438   .     A
C157   O205    1.381   .     S
C158   N191    1.365   .     A
C158   O207    1.382   .     S
C158   C160    1.446   .     A
C159   N191    1.391   .     A
C159   C209    1.475   .     S
C160   N192    1.386   .     A
C160   C213    1.472   .     S
C161   O199    1.304   .     A
C161   C163    1.463   .     S
C161   O53     1.311   1_655 S
C162   O200    1.303   .     A
C162   C164    1.456   .     S
C163   C167    1.393   .     A
C163   C169    1.403   .     A
C164   C168    1.396   .     A
C164   C170    1.401   .     A
C165   C173    1.397   .     A
C165   O201    1.371   .     S
C165   C167    1.393   .     A
C166   C168    1.387   .     A
C166   O203    1.372   .     S
C166   C174    1.412   .     A
C167   H40     1.076   1_655 S
C169   H182    1.082   .     S
C169   C171    1.407   .     A
C170   H181    1.082   .     S
C170   C172    1.402   .     A
C171   C173    1.409   .     A
C171   C175    1.411   .     A
C172   C174    1.409   .     A
C172   C176    1.411   .     A
C173   C797    1.398   .     S
C174   C798    1.399   1_554 S
C175   C824    1.421   .     S
C176   C823    1.421   1_554 S
Cu177  O200    1.977   .     S
Cu177  O196    1.957   .     S
Cu177  O197    1.974   .     S
Cu177  N191    2.045   .     S
Cu177  O193    1.962   .     S
Cu178  O195    1.957   .     S
Cu178  O199    1.977   .     S
Cu178  O198    1.974   .     S
Cu178  O194    1.962   .     S
Cu178  N192    2.045   .     S
Cu178  Cu33    2.721   1_655 S
H183   C24     1.084   1_655 S
O195   C1      1.302   1_655 S
O198   C18     1.308   1_655 S
O201   H58     0.993   1_655 S
O203   H204    0.992   .     S
O205   H206    0.990   .     S
O207   H208    0.987   .     S
C209   O210    1.217   .     D
C209   O211    1.398   .     S
O211   H212    1.014   .     S
C213   O215    1.397   .     S
C213   O214    1.222   .     D
O215   H216    1.014   .     S
C217   C228    1.448   .     S
C217   O265    1.306   .     A
C217   O411    1.302   1_455 S
C218   O266    1.306   .     A
C218   C227    1.449   .     S
C218   O340    1.302   .     S
C219   C221    1.389   .     A
C219   C248    1.408   .     A
C219   H257    1.081   .     S
C220   C222    1.389   .     A
C220   H258    1.081   .     S
C220   C247    1.407   .     A
C221   H251    1.080   .     S
C221   C893    1.398   1_554 S
C222   H252    1.071   .     S
C222   C894    1.399   .     S
C223   H259    1.083   .     S
C223   C300    1.402   .     S
C224   H260    1.083   .     S
C224   C442    1.384   .     S
C224   C371    1.402   1_455 S
C225   H261    1.083   .     S
C225   C227    1.399   .     A
C225   C439    1.384   .     S
C226   H262    1.083   .     S
C226   C228    1.399   .     A
C227   C296    1.402   .     S
C228   C367    1.402   1_455 S
C229   N264    1.359   .     A
C229   C231    1.438   .     A
C229   O277    1.381   .     S
C230   N263    1.365   .     A
C230   O279    1.382   .     S
C230   C232    1.446   .     A
C231   N263    1.391   .     A
C231   C281    1.475   .     S
C232   N264    1.386   .     A
C232   C285    1.472   .     S
C233   O271    1.304   .     A
C233   C235    1.463   .     S
C233   O341    1.311   .     S
C234   O272    1.303   .     A
C234   C236    1.456   .     S
C234   O414    1.308   1_455 S
C235   C239    1.393   .     A
C235   C241    1.403   .     A
C236   C240    1.396   .     A
C236   C242    1.401   .     A
C237   C245    1.397   .     A
C237   O273    1.371   .     S
C237   C239    1.393   .     A
C238   C240    1.387   .     A
C238   O275    1.372   .     S
C238   C246    1.412   .     A
C239   H328    1.076   .     S
C240   H399    1.084   1_455 S
C241   H254    1.082   .     S
C241   C243    1.407   .     A
C242   H253    1.082   .     S
C242   C244    1.402   .     A
C243   C245    1.409   .     A
C243   C247    1.411   .     A
C244   C246    1.409   .     A
C244   C248    1.411   .     A
C245   C869    1.398   .     S
C246   C870    1.399   1_554 S
C247   C896    1.421   .     S
C248   C895    1.421   1_554 S
Cu249  O272    1.977   .     S
Cu249  O268    1.957   .     S
Cu249  O269    1.974   .     S
Cu249  N263    2.045   .     S
Cu249  O265    1.962   .     S
Cu249  Cu394   2.721   1_455 S
Cu250  O267    1.957   .     S
Cu250  O271    1.977   .     S
Cu250  O270    1.974   .     S
Cu250  O266    1.962   .     S
Cu250  N264    2.045   .     S
Cu250  Cu321   2.721   .     S
H255   C312    1.084   .     S
H256   C383    1.076   1_455 S
O267   C289    1.302   .     S
O268   C362    1.302   1_455 S
O269   C377    1.311   1_455 S
O270   C306    1.308   .     S
O273   H346    0.993   .     S
H274   O417    0.993   1_455 S
O275   H276    0.992   .     S
O277   H278    0.990   .     S
O279   H280    0.987   .     S
C281   O282    1.217   .     D
C281   O283    1.398   .     S
O283   H284    1.014   .     S
C285   O287    1.397   .     S
C285   O286    1.222   .     D
O287   H288    1.014   .     S
C289   C300    1.448   .     S
C289   O337    1.306   .     A
C290   O338    1.306   .     A
C290   C299    1.449   .     S
C290   O412    1.302   .     S
C291   C293    1.389   .     A
C291   C320    1.408   .     A
C291   H329    1.081   .     S
C292   C294    1.389   .     A
C292   H330    1.081   .     S
C292   C319    1.407   .     A
C293   H323    1.080   .     S
C293   C965    1.398   1_554 S
C294   H324    1.071   .     S
C294   C966    1.399   .     S
C295   H331    1.083   .     S
C295   C372    1.402   .     S
C296   H332    1.083   .     S
C296   C514    1.384   .     S
C297   H333    1.083   .     S
C297   C299    1.399   .     A
C297   C511    1.384   .     S
C298   H334    1.083   .     S
C298   C300    1.399   .     A
C299   C368    1.402   .     S
C301   N336    1.359   .     A
C301   C303    1.438   .     A
C301   O349    1.381   .     S
C302   N335    1.365   .     A
C302   O351    1.382   .     S
C302   C304    1.446   .     A
C303   N335    1.391   .     A
C303   C353    1.475   .     S
C304   N336    1.386   .     A
C304   C357    1.472   .     S
C305   O343    1.304   .     A
C305   C307    1.463   .     S
C305   O413    1.311   .     S
C306   O344    1.303   .     A
C306   C308    1.456   .     S
C307   C311    1.393   .     A
C307   C313    1.403   .     A
C308   C312    1.396   .     A
C308   C314    1.401   .     A
C309   C317    1.397   .     A
C309   O345    1.371   .     S
C309   C311    1.393   .     A
C310   C312    1.387   .     A
C310   O347    1.372   .     S
C310   C318    1.412   .     A
C311   H400    1.076   .     S
C313   H326    1.082   .     S
C313   C315    1.407   .     A
C314   H325    1.082   .     S
C314   C316    1.402   .     A
C315   C317    1.409   .     A
C315   C319    1.411   .     A
C316   C318    1.409   .     A
C316   C320    1.411   .     A
C317   C941    1.398   .     S
C318   C942    1.399   1_554 S
C319   C968    1.421   .     S
C320   C967    1.421   1_554 S
Cu321  O344    1.977   .     S
Cu321  O340    1.957   .     S
Cu321  O341    1.974   .     S
Cu321  N335    2.045   .     S
Cu321  O337    1.962   .     S
Cu322  O339    1.957   .     S
Cu322  O343    1.977   .     S
Cu322  O342    1.974   .     S
Cu322  O338    1.962   .     S
Cu322  N336    2.045   .     S
Cu322  Cu393   2.721   .     S
H327   C384    1.084   .     S
O339   C361    1.302   .     S
O342   C378    1.308   .     S
O345   H418    0.993   .     S
O347   H348    0.992   .     S
O349   H350    0.990   .     S
O351   H352    0.987   .     S
C353   O354    1.217   .     D
C353   O355    1.398   .     S
O355   H356    1.014   .     S
C357   O359    1.397   .     S
C357   O358    1.222   .     D
O359   H360    1.014   .     S
C361   C372    1.448   .     S
C361   O409    1.306   .     A
C362   O410    1.306   .     A
C362   C371    1.449   .     S
C362   O268    1.302   1_655 S
C363   C365    1.389   .     A
C363   C392    1.408   .     A
C363   H401    1.081   .     S
C364   C366    1.389   .     A
C364   H402    1.081   .     S
C364   C391    1.407   .     A
C365   H395    1.080   .     S
C365   C1037   1.398   1_554 S
C366   H396    1.071   .     S
C366   C1038   1.399   .     S
C367   H403    1.083   .     S
C367   C228    1.402   1_655 S
C368   H404    1.083   .     S
C368   C586    1.384   .     S
C369   H405    1.083   .     S
C369   C371    1.399   .     A
C369   C583    1.384   .     S
C370   H406    1.083   .     S
C370   C372    1.399   .     A
C371   C224    1.402   1_655 S
C373   N408    1.359   .     A
C373   C375    1.438   .     A
C373   O421    1.381   .     S
C374   N407    1.365   .     A
C374   O423    1.382   .     S
C374   C376    1.446   .     A
C375   N407    1.391   .     A
C375   C425    1.475   .     S
C376   N408    1.386   .     A
C376   C429    1.472   .     S
C377   O415    1.304   .     A
C377   C379    1.463   .     S
C377   O269    1.311   1_655 S
C378   O416    1.303   .     A
C378   C380    1.456   .     S
C379   C383    1.393   .     A
C379   C385    1.403   .     A
C380   C384    1.396   .     A
C380   C386    1.401   .     A
C381   C389    1.397   .     A
C381   O417    1.371   .     S
C381   C383    1.393   .     A
C382   C384    1.387   .     A
C382   O419    1.372   .     S
C382   C390    1.412   .     A
C383   H256    1.076   1_655 S
C385   H398    1.082   .     S
C385   C387    1.407   .     A
C386   H397    1.082   .     S
C386   C388    1.402   .     A
C387   C389    1.409   .     A
C387   C391    1.411   .     A
C388   C390    1.409   .     A
C388   C392    1.411   .     A
C389   C1013   1.398   .     S
C390   C1014   1.399   1_554 S
C391   C1040   1.421   .     S
C392   C1039   1.421   1_554 S
Cu393  O416    1.977   .     S
Cu393  O412    1.957   .     S
Cu393  O413    1.974   .     S
Cu393  N407    2.045   .     S
Cu393  O409    1.962   .     S
Cu394  O411    1.957   .     S
Cu394  O415    1.977   .     S
Cu394  O414    1.974   .     S
Cu394  O410    1.962   .     S
Cu394  N408    2.045   .     S
Cu394  Cu249   2.721   1_655 S
H399   C240    1.084   1_655 S
O411   C217    1.302   1_655 S
O414   C234    1.308   1_655 S
O417   H274    0.993   1_655 S
O419   H420    0.992   .     S
O421   H422    0.990   .     S
O423   H424    0.987   .     S
C425   O426    1.217   .     D
C425   O427    1.398   .     S
O427   H428    1.014   .     S
C429   O431    1.397   .     S
C429   O430    1.222   .     D
O431   H432    1.014   .     S
C433   C444    1.448   .     S
C433   O481    1.306   .     A
C433   O627    1.302   1_455 S
C434   O482    1.306   .     A
C434   C443    1.449   .     S
C434   O556    1.302   .     S
C435   C437    1.389   .     A
C435   C464    1.408   .     A
C435   H473    1.081   .     S
C436   C438    1.389   .     A
C436   H474    1.081   .     S
C436   C463    1.407   .     A
C437   H467    1.080   .     S
C437   C1109   1.398   1_554 S
C438   H468    1.071   .     S
C438   C1110   1.399   .     S
C439   H475    1.083   .     S
C439   C516    1.402   .     S
C440   H476    1.083   .     S
C440   C10     1.384   1_565 S
C440   C587    1.402   1_455 S
C441   H477    1.083   .     S
C441   C443    1.399   .     A
C441   C7      1.384   1_565 S
C442   H478    1.083   .     S
C442   C444    1.399   .     A
C443   C512    1.402   .     S
C444   C583    1.402   1_455 S
C445   N480    1.359   .     A
C445   C447    1.438   .     A
C445   O493    1.381   .     S
C446   N479    1.365   .     A
C446   O495    1.382   .     S
C446   C448    1.446   .     A
C447   N479    1.391   .     A
C447   C497    1.475   .     S
C448   N480    1.386   .     A
C448   C501    1.472   .     S
C449   O487    1.304   .     A
C449   C451    1.463   .     S
C449   O557    1.311   .     S
C450   O488    1.303   .     A
C450   C452    1.456   .     S
C450   O630    1.308   1_455 S
C451   C455    1.393   .     A
C451   C457    1.403   .     A
C452   C456    1.396   .     A
C452   C458    1.401   .     A
C453   C461    1.397   .     A
C453   O489    1.371   .     S
C453   C455    1.393   .     A
C454   C456    1.387   .     A
C454   O491    1.372   .     S
C454   C462    1.412   .     A
C455   H544    1.076   .     S
C456   H615    1.084   1_455 S
C457   H470    1.082   .     S
C457   C459    1.407   .     A
C458   H469    1.082   .     S
C458   C460    1.402   .     A
C459   C461    1.409   .     A
C459   C463    1.411   .     A
C460   C462    1.409   .     A
C460   C464    1.411   .     A
C461   C1085   1.398   .     S
C462   C1086   1.399   1_554 S
C463   C1112   1.421   .     S
C464   C1111   1.421   1_554 S
Cu465  O488    1.977   .     S
Cu465  O484    1.957   .     S
Cu465  O485    1.974   .     S
Cu465  N479    2.045   .     S
Cu465  O481    1.962   .     S
Cu465  Cu610   2.721   1_455 S
Cu466  O483    1.957   .     S
Cu466  O487    1.977   .     S
Cu466  O486    1.974   .     S
Cu466  O482    1.962   .     S
Cu466  N480    2.045   .     S
Cu466  Cu537   2.721   .     S
H471   C528    1.084   .     S
H472   C599    1.076   1_455 S
O483   C505    1.302   .     S
O484   C578    1.302   1_455 S
O485   C593    1.311   1_455 S
O486   C522    1.308   .     S
O489   H562    0.993   .     S
H490   O633    0.993   1_455 S
O491   H492    0.992   .     S
O493   H494    0.990   .     S
O495   H496    0.987   .     S
C497   O498    1.217   .     D
C497   O499    1.398   .     S
O499   H500    1.014   .     S
C501   O503    1.397   .     S
C501   O502    1.222   .     D
O503   H504    1.014   .     S
C505   C516    1.448   .     S
C505   O553    1.306   .     A
C506   O554    1.306   .     A
C506   C515    1.449   .     S
C506   O628    1.302   .     S
C507   C509    1.389   .     A
C507   C536    1.408   .     A
C507   H545    1.081   .     S
C508   C510    1.389   .     A
C508   H546    1.081   .     S
C508   C535    1.407   .     A
C509   H539    1.080   .     S
C509   C1181   1.398   1_554 S
C510   H540    1.071   .     S
C510   C1182   1.399   .     S
C511   H547    1.083   .     S
C511   C588    1.402   .     S
C512   H548    1.083   .     S
C512   C82     1.384   1_565 S
C513   H549    1.083   .     S
C513   C515    1.399   .     A
C513   C79     1.384   1_565 S
C514   H550    1.083   .     S
C514   C516    1.399   .     A
C515   C584    1.402   .     S
C517   N552    1.359   .     A
C517   C519    1.438   .     A
C517   O565    1.381   .     S
C518   N551    1.365   .     A
C518   O567    1.382   .     S
C518   C520    1.446   .     A
C519   N551    1.391   .     A
C519   C569    1.475   .     S
C520   N552    1.386   .     A
C520   C573    1.472   .     S
C521   O559    1.304   .     A
C521   C523    1.463   .     S
C521   O629    1.311   .     S
C522   O560    1.303   .     A
C522   C524    1.456   .     S
C523   C527    1.393   .     A
C523   C529    1.403   .     A
C524   C528    1.396   .     A
C524   C530    1.401   .     A
C525   C533    1.397   .     A
C525   O561    1.371   .     S
C525   C527    1.393   .     A
C526   C528    1.387   .     A
C526   O563    1.372   .     S
C526   C534    1.412   .     A
C527   H616    1.076   .     S
C529   H542    1.082   .     S
C529   C531    1.407   .     A
C530   H541    1.082   .     S
C530   C532    1.402   .     A
C531   C533    1.409   .     A
C531   C535    1.411   .     A
C532   C534    1.409   .     A
C532   C536    1.411   .     A
C533   C1157   1.398   .     S
C534   C1158   1.399   1_554 S
C535   C1184   1.421   .     S
C536   C1183   1.421   1_554 S
Cu537  O560    1.977   .     S
Cu537  O556    1.957   .     S
Cu537  O557    1.974   .     S
Cu537  N551    2.045   .     S
Cu537  O553    1.962   .     S
Cu538  O555    1.957   .     S
Cu538  O559    1.977   .     S
Cu538  O558    1.974   .     S
Cu538  O554    1.962   .     S
Cu538  N552    2.045   .     S
Cu538  Cu609   2.721   .     S
H543   C600    1.084   .     S
O555   C577    1.302   .     S
O558   C594    1.308   .     S
O561   H634    0.993   .     S
O563   H564    0.992   .     S
O565   H566    0.990   .     S
O567   H568    0.987   .     S
C569   O570    1.217   .     D
C569   O571    1.398   .     S
O571   H572    1.014   .     S
C573   O575    1.397   .     S
C573   O574    1.222   .     D
O575   H576    1.014   .     S
C577   C588    1.448   .     S
C577   O625    1.306   .     A
C578   O626    1.306   .     A
C578   C587    1.449   .     S
C578   O484    1.302   1_655 S
C579   C581    1.389   .     A
C579   C608    1.408   .     A
C579   H617    1.081   .     S
C580   C582    1.389   .     A
C580   H618    1.081   .     S
C580   C607    1.407   .     A
C581   H611    1.080   .     S
C581   C1253   1.398   1_554 S
C582   H612    1.071   .     S
C582   C1254   1.399   .     S
C583   H619    1.083   .     S
C583   C444    1.402   1_655 S
C584   H620    1.083   .     S
C584   C154    1.384   1_565 S
C585   H621    1.083   .     S
C585   C587    1.399   .     A
C585   C151    1.384   1_565 S
C586   H622    1.083   .     S
C586   C588    1.399   .     A
C587   C440    1.402   1_655 S
C589   N624    1.359   .     A
C589   C591    1.438   .     A
C589   O637    1.381   .     S
C590   N623    1.365   .     A
C590   O639    1.382   .     S
C590   C592    1.446   .     A
C591   N623    1.391   .     A
C591   C641    1.475   .     S
C592   N624    1.386   .     A
C592   C645    1.472   .     S
C593   O631    1.304   .     A
C593   C595    1.463   .     S
C593   O485    1.311   1_655 S
C594   O632    1.303   .     A
C594   C596    1.456   .     S
C595   C599    1.393   .     A
C595   C601    1.403   .     A
C596   C600    1.396   .     A
C596   C602    1.401   .     A
C597   C605    1.397   .     A
C597   O633    1.371   .     S
C597   C599    1.393   .     A
C598   C600    1.387   .     A
C598   O635    1.372   .     S
C598   C606    1.412   .     A
C599   H472    1.076   1_655 S
C601   H614    1.082   .     S
C601   C603    1.407   .     A
C602   H613    1.082   .     S
C602   C604    1.402   .     A
C603   C605    1.409   .     A
C603   C607    1.411   .     A
C604   C606    1.409   .     A
C604   C608    1.411   .     A
C605   C1229   1.398   .     S
C606   C1230   1.399   1_554 S
C607   C1256   1.421   .     S
C608   C1255   1.421   1_554 S
Cu609  O632    1.977   .     S
Cu609  O628    1.957   .     S
Cu609  O629    1.974   .     S
Cu609  N623    2.045   .     S
Cu609  O625    1.962   .     S
Cu610  O627    1.957   .     S
Cu610  O631    1.977   .     S
Cu610  O630    1.974   .     S
Cu610  O626    1.962   .     S
Cu610  N624    2.045   .     S
Cu610  Cu465   2.721   1_655 S
H615   C456    1.084   1_655 S
O627   C433    1.302   1_655 S
O630   C450    1.308   1_655 S
O633   H490    0.993   1_655 S
O635   H636    0.992   .     S
O637   H638    0.990   .     S
O639   H640    0.987   .     S
C641   O642    1.217   .     D
C641   O643    1.398   .     S
O643   H644    1.014   .     S
C645   O647    1.397   .     S
C645   O646    1.222   .     D
O647   H648    1.014   .     S
C649   C660    1.448   .     S
C649   O697    1.306   .     A
C649   O843    1.302   1_455 S
C650   O698    1.306   .     A
C650   C659    1.449   .     S
C650   O772    1.302   .     S
C651   C653    1.389   .     A
C651   C680    1.408   .     A
C651   H689    1.081   .     S
C652   C654    1.389   .     A
C652   H690    1.081   .     S
C652   C679    1.407   .     A
C653   H683    1.080   .     S
C654   H684    1.071   .     S
C654   C30     1.399   1_556 S
C655   H691    1.083   .     S
C655   C1089   1.384   1_545 S
C655   C732    1.402   .     S
C656   H692    1.083   .     S
C656   C874    1.384   .     S
C656   C803    1.402   1_455 S
C657   H693    1.083   .     S
C657   C659    1.399   .     A
C657   C871    1.384   .     S
C658   H694    1.083   .     S
C658   C660    1.399   .     A
C658   C1088   1.384   1_545 S
C659   C728    1.402   .     S
C660   C799    1.402   1_455 S
C661   N696    1.359   .     A
C661   C663    1.438   .     A
C661   O709    1.381   .     S
C662   N695    1.365   .     A
C662   O711    1.382   .     S
C662   C664    1.446   .     A
C663   N695    1.391   .     A
C663   C713    1.475   .     S
C664   N696    1.386   .     A
C664   C717    1.472   .     S
C665   O703    1.304   .     A
C665   C667    1.463   .     S
C665   O773    1.311   .     S
C666   O704    1.303   .     A
C666   C668    1.456   .     S
C666   O846    1.308   1_455 S
C667   C671    1.393   .     A
C667   C673    1.403   .     A
C668   C672    1.396   .     A
C668   C674    1.401   .     A
C669   C677    1.397   .     A
C669   O705    1.371   .     S
C669   C671    1.393   .     A
C670   C672    1.387   .     A
C670   O707    1.372   .     S
C670   C678    1.412   .     A
C671   H760    1.076   .     S
C672   H831    1.084   1_455 S
C673   H686    1.082   .     S
C673   C675    1.407   .     A
C674   H685    1.082   .     S
C674   C676    1.402   .     A
C675   C677    1.409   .     A
C675   C679    1.411   .     A
C676   C678    1.409   .     A
C676   C680    1.411   .     A
C677   C5      1.398   1_556 S
C679   C32     1.421   1_556 S
Cu681  O704    1.977   .     S
Cu681  O700    1.957   .     S
Cu681  O701    1.974   .     S
Cu681  N695    2.045   .     S
Cu681  O697    1.962   .     S
Cu681  Cu826   2.721   1_455 S
Cu682  O699    1.957   .     S
Cu682  O703    1.977   .     S
Cu682  O702    1.974   .     S
Cu682  O698    1.962   .     S
Cu682  N696    2.045   .     S
Cu682  Cu753   2.721   .     S
H687   C744    1.084   .     S
H688   C815    1.076   1_455 S
O699   C721    1.302   .     S
O700   C794    1.302   1_455 S
O701   C809    1.311   1_455 S
O702   C738    1.308   .     S
O705   H778    0.993   .     S
H706   O849    0.993   1_455 S
O707   H708    0.992   .     S
O709   H710    0.990   .     S
O711   H712    0.987   .     S
C713   O714    1.217   .     D
C713   O715    1.398   .     S
O715   H716    1.014   .     S
C717   O719    1.397   .     S
C717   O718    1.222   .     D
O719   H720    1.014   .     S
C721   C732    1.448   .     S
C721   O769    1.306   .     A
C722   O770    1.306   .     A
C722   C731    1.449   .     S
C722   O844    1.302   .     S
C723   C725    1.389   .     A
C723   C752    1.408   .     A
C723   H761    1.081   .     S
C724   C726    1.389   .     A
C724   H762    1.081   .     S
C724   C751    1.407   .     A
C725   H755    1.080   .     S
C726   H756    1.071   .     S
C726   C102    1.399   1_556 S
C727   H763    1.083   .     S
C727   C1161   1.384   1_545 S
C727   C804    1.402   .     S
C728   H764    1.083   .     S
C728   C946    1.384   .     S
C729   H765    1.083   .     S
C729   C731    1.399   .     A
C729   C943    1.384   .     S
C730   H766    1.083   .     S
C730   C732    1.399   .     A
C730   C1160   1.384   1_545 S
C731   C800    1.402   .     S
C733   N768    1.359   .     A
C733   C735    1.438   .     A
C733   O781    1.381   .     S
C734   N767    1.365   .     A
C734   O783    1.382   .     S
C734   C736    1.446   .     A
C735   N767    1.391   .     A
C735   C785    1.475   .     S
C736   N768    1.386   .     A
C736   C789    1.472   .     S
C737   O775    1.304   .     A
C737   C739    1.463   .     S
C737   O845    1.311   .     S
C738   O776    1.303   .     A
C738   C740    1.456   .     S
C739   C743    1.393   .     A
C739   C745    1.403   .     A
C740   C744    1.396   .     A
C740   C746    1.401   .     A
C741   C749    1.397   .     A
C741   O777    1.371   .     S
C741   C743    1.393   .     A
C742   C744    1.387   .     A
C742   O779    1.372   .     S
C742   C750    1.412   .     A
C743   H832    1.076   .     S
C745   H758    1.082   .     S
C745   C747    1.407   .     A
C746   H757    1.082   .     S
C746   C748    1.402   .     A
C747   C749    1.409   .     A
C747   C751    1.411   .     A
C748   C750    1.409   .     A
C748   C752    1.411   .     A
C749   C77     1.398   1_556 S
C751   C104    1.421   1_556 S
Cu753  O776    1.977   .     S
Cu753  O772    1.957   .     S
Cu753  O773    1.974   .     S
Cu753  N767    2.045   .     S
Cu753  O769    1.962   .     S
Cu754  O771    1.957   .     S
Cu754  O775    1.977   .     S
Cu754  O774    1.974   .     S
Cu754  O770    1.962   .     S
Cu754  N768    2.045   .     S
Cu754  Cu825   2.721   .     S
H759   C816    1.084   .     S
O771   C793    1.302   .     S
O774   C810    1.308   .     S
O777   H850    0.993   .     S
O779   H780    0.992   .     S
O781   H782    0.990   .     S
O783   H784    0.987   .     S
C785   O786    1.217   .     D
C785   O787    1.398   .     S
O787   H788    1.014   .     S
C789   O791    1.397   .     S
C789   O790    1.222   .     D
O791   H792    1.014   .     S
C793   C804    1.448   .     S
C793   O841    1.306   .     A
C794   O842    1.306   .     A
C794   C803    1.449   .     S
C794   O700    1.302   1_655 S
C795   C797    1.389   .     A
C795   C824    1.408   .     A
C795   H833    1.081   .     S
C796   C798    1.389   .     A
C796   H834    1.081   .     S
C796   C823    1.407   .     A
C797   H827    1.080   .     S
C798   H828    1.071   .     S
C798   C174    1.399   1_556 S
C799   H835    1.083   .     S
C799   C1233   1.384   1_545 S
C799   C660    1.402   1_655 S
C800   H836    1.083   .     S
C800   C1018   1.384   .     S
C801   H837    1.083   .     S
C801   C803    1.399   .     A
C801   C1015   1.384   .     S
C802   H838    1.083   .     S
C802   C804    1.399   .     A
C802   C1232   1.384   1_545 S
C803   C656    1.402   1_655 S
C805   N840    1.359   .     A
C805   C807    1.438   .     A
C805   O853    1.381   .     S
C806   N839    1.365   .     A
C806   O855    1.382   .     S
C806   C808    1.446   .     A
C807   N839    1.391   .     A
C807   C857    1.475   .     S
C808   N840    1.386   .     A
C808   C861    1.472   .     S
C809   O847    1.304   .     A
C809   C811    1.463   .     S
C809   O701    1.311   1_655 S
C810   O848    1.303   .     A
C810   C812    1.456   .     S
C811   C815    1.393   .     A
C811   C817    1.403   .     A
C812   C816    1.396   .     A
C812   C818    1.401   .     A
C813   C821    1.397   .     A
C813   O849    1.371   .     S
C813   C815    1.393   .     A
C814   C816    1.387   .     A
C814   O851    1.372   .     S
C814   C822    1.412   .     A
C815   H688    1.076   1_655 S
C817   H830    1.082   .     S
C817   C819    1.407   .     A
C818   H829    1.082   .     S
C818   C820    1.402   .     A
C819   C821    1.409   .     A
C819   C823    1.411   .     A
C820   C822    1.409   .     A
C820   C824    1.411   .     A
C821   C149    1.398   1_556 S
C823   C176    1.421   1_556 S
Cu825  O848    1.977   .     S
Cu825  O844    1.957   .     S
Cu825  O845    1.974   .     S
Cu825  N839    2.045   .     S
Cu825  O841    1.962   .     S
Cu826  O843    1.957   .     S
Cu826  O847    1.977   .     S
Cu826  O846    1.974   .     S
Cu826  O842    1.962   .     S
Cu826  N840    2.045   .     S
Cu826  Cu681   2.721   1_655 S
H831   C672    1.084   1_655 S
O843   C649    1.302   1_655 S
O846   C666    1.308   1_655 S
O849   H706    0.993   1_655 S
O851   H852    0.992   .     S
O853   H854    0.990   .     S
O855   H856    0.987   .     S
C857   O858    1.217   .     D
C857   O859    1.398   .     S
O859   H860    1.014   .     S
C861   O863    1.397   .     S
C861   O862    1.222   .     D
O863   H864    1.014   .     S
C865   C876    1.448   .     S
C865   O913    1.306   .     A
C865   O1059   1.302   1_455 S
C866   O914    1.306   .     A
C866   C875    1.449   .     S
C866   O988    1.302   .     S
C867   C869    1.389   .     A
C867   C896    1.408   .     A
C867   H905    1.081   .     S
C868   C870    1.389   .     A
C868   H906    1.081   .     S
C868   C895    1.407   .     A
C869   H899    1.080   .     S
C870   H900    1.071   .     S
C870   C246    1.399   1_556 S
C871   H907    1.083   .     S
C871   C948    1.402   .     S
C872   H908    1.083   .     S
C872   C1090   1.384   .     S
C872   C1019   1.402   1_455 S
C873   H909    1.083   .     S
C873   C875    1.399   .     A
C873   C1087   1.384   .     S
C874   H910    1.083   .     S
C874   C876    1.399   .     A
C875   C944    1.402   .     S
C876   C1015   1.402   1_455 S
C877   N912    1.359   .     A
C877   C879    1.438   .     A
C877   O925    1.381   .     S
C878   N911    1.365   .     A
C878   O927    1.382   .     S
C878   C880    1.446   .     A
C879   N911    1.391   .     A
C879   C929    1.475   .     S
C880   N912    1.386   .     A
C880   C933    1.472   .     S
C881   O919    1.304   .     A
C881   C883    1.463   .     S
C881   O989    1.311   .     S
C882   O920    1.303   .     A
C882   C884    1.456   .     S
C882   O1062   1.308   1_455 S
C883   C887    1.393   .     A
C883   C889    1.403   .     A
C884   C888    1.396   .     A
C884   C890    1.401   .     A
C885   C893    1.397   .     A
C885   O921    1.371   .     S
C885   C887    1.393   .     A
C886   C888    1.387   .     A
C886   O923    1.372   .     S
C886   C894    1.412   .     A
C887   H976    1.076   .     S
C888   H1047   1.084   1_455 S
C889   H902    1.082   .     S
C889   C891    1.407   .     A
C890   H901    1.082   .     S
C890   C892    1.402   .     A
C891   C893    1.409   .     A
C891   C895    1.411   .     A
C892   C894    1.409   .     A
C892   C896    1.411   .     A
C893   C221    1.398   1_556 S
C895   C248    1.421   1_556 S
Cu897  O920    1.977   .     S
Cu897  O916    1.957   .     S
Cu897  O917    1.974   .     S
Cu897  N911    2.045   .     S
Cu897  O913    1.962   .     S
Cu897  Cu1042  2.721   1_455 S
Cu898  O915    1.957   .     S
Cu898  O919    1.977   .     S
Cu898  O918    1.974   .     S
Cu898  O914    1.962   .     S
Cu898  N912    2.045   .     S
Cu898  Cu969   2.721   .     S
H903   C960    1.084   .     S
H904   C1031   1.076   1_455 S
O915   C937    1.302   .     S
O916   C1010   1.302   1_455 S
O917   C1025   1.311   1_455 S
O918   C954    1.308   .     S
O921   H994    0.993   .     S
H922   O1065   0.993   1_455 S
O923   H924    0.992   .     S
O925   H926    0.990   .     S
O927   H928    0.987   .     S
C929   O930    1.217   .     D
C929   O931    1.398   .     S
O931   H932    1.014   .     S
C933   O935    1.397   .     S
C933   O934    1.222   .     D
O935   H936    1.014   .     S
C937   C948    1.448   .     S
C937   O985    1.306   .     A
C938   O986    1.306   .     A
C938   C947    1.449   .     S
C938   O1060   1.302   .     S
C939   C941    1.389   .     A
C939   C968    1.408   .     A
C939   H977    1.081   .     S
C940   C942    1.389   .     A
C940   H978    1.081   .     S
C940   C967    1.407   .     A
C941   H971    1.080   .     S
C942   H972    1.071   .     S
C942   C318    1.399   1_556 S
C943   H979    1.083   .     S
C943   C1020   1.402   .     S
C944   H980    1.083   .     S
C944   C1162   1.384   .     S
C945   H981    1.083   .     S
C945   C947    1.399   .     A
C945   C1159   1.384   .     S
C946   H982    1.083   .     S
C946   C948    1.399   .     A
C947   C1016   1.402   .     S
C949   N984    1.359   .     A
C949   C951    1.438   .     A
C949   O997    1.381   .     S
C950   N983    1.365   .     A
C950   O999    1.382   .     S
C950   C952    1.446   .     A
C951   N983    1.391   .     A
C951   C1001   1.475   .     S
C952   N984    1.386   .     A
C952   C1005   1.472   .     S
C953   O991    1.304   .     A
C953   C955    1.463   .     S
C953   O1061   1.311   .     S
C954   O992    1.303   .     A
C954   C956    1.456   .     S
C955   C959    1.393   .     A
C955   C961    1.403   .     A
C956   C960    1.396   .     A
C956   C962    1.401   .     A
C957   C965    1.397   .     A
C957   O993    1.371   .     S
C957   C959    1.393   .     A
C958   C960    1.387   .     A
C958   O995    1.372   .     S
C958   C966    1.412   .     A
C959   H1048   1.076   .     S
C961   H974    1.082   .     S
C961   C963    1.407   .     A
C962   H973    1.082   .     S
C962   C964    1.402   .     A
C963   C965    1.409   .     A
C963   C967    1.411   .     A
C964   C966    1.409   .     A
C964   C968    1.411   .     A
C965   C293    1.398   1_556 S
C967   C320    1.421   1_556 S
Cu969  O992    1.977   .     S
Cu969  O988    1.957   .     S
Cu969  O989    1.974   .     S
Cu969  N983    2.045   .     S
Cu969  O985    1.962   .     S
Cu970  O987    1.957   .     S
Cu970  O991    1.977   .     S
Cu970  O990    1.974   .     S
Cu970  O986    1.962   .     S
Cu970  N984    2.045   .     S
Cu970  Cu1041  2.721   .     S
H975   C1032   1.084   .     S
O987   C1009   1.302   .     S
O990   C1026   1.308   .     S
O993   H1066   0.993   .     S
O995   H996    0.992   .     S
O997   H998    0.990   .     S
O999   H1000   0.987   .     S
C1001  O1002   1.217   .     D
C1001  O1003   1.398   .     S
O1003  H1004   1.014   .     S
C1005  O1007   1.397   .     S
C1005  O1006   1.222   .     D
O1007  H1008   1.014   .     S
C1009  C1020   1.448   .     S
C1009  O1057   1.306   .     A
C1010  O1058   1.306   .     A
C1010  C1019   1.449   .     S
C1010  O916    1.302   1_655 S
C1011  C1013   1.389   .     A
C1011  C1040   1.408   .     A
C1011  H1049   1.081   .     S
C1012  C1014   1.389   .     A
C1012  H1050   1.081   .     S
C1012  C1039   1.407   .     A
C1013  H1043   1.080   .     S
C1014  H1044   1.071   .     S
C1014  C390    1.399   1_556 S
C1015  H1051   1.083   .     S
C1015  C876    1.402   1_655 S
C1016  H1052   1.083   .     S
C1016  C1234   1.384   .     S
C1017  H1053   1.083   .     S
C1017  C1019   1.399   .     A
C1017  C1231   1.384   .     S
C1018  H1054   1.083   .     S
C1018  C1020   1.399   .     A
C1019  C872    1.402   1_655 S
C1021  N1056   1.359   .     A
C1021  C1023   1.438   .     A
C1021  O1069   1.381   .     S
C1022  N1055   1.365   .     A
C1022  O1071   1.382   .     S
C1022  C1024   1.446   .     A
C1023  N1055   1.391   .     A
C1023  C1073   1.475   .     S
C1024  N1056   1.386   .     A
C1024  C1077   1.472   .     S
C1025  O1063   1.304   .     A
C1025  C1027   1.463   .     S
C1025  O917    1.311   1_655 S
C1026  O1064   1.303   .     A
C1026  C1028   1.456   .     S
C1027  C1031   1.393   .     A
C1027  C1033   1.403   .     A
C1028  C1032   1.396   .     A
C1028  C1034   1.401   .     A
C1029  C1037   1.397   .     A
C1029  O1065   1.371   .     S
C1029  C1031   1.393   .     A
C1030  C1032   1.387   .     A
C1030  O1067   1.372   .     S
C1030  C1038   1.412   .     A
C1031  H904    1.076   1_655 S
C1033  H1046   1.082   .     S
C1033  C1035   1.407   .     A
C1034  H1045   1.082   .     S
C1034  C1036   1.402   .     A
C1035  C1037   1.409   .     A
C1035  C1039   1.411   .     A
C1036  C1038   1.409   .     A
C1036  C1040   1.411   .     A
C1037  C365    1.398   1_556 S
C1039  C392    1.421   1_556 S
Cu1041 O1064   1.977   .     S
Cu1041 O1060   1.957   .     S
Cu1041 O1061   1.974   .     S
Cu1041 N1055   2.045   .     S
Cu1041 O1057   1.962   .     S
Cu1042 O1059   1.957   .     S
Cu1042 O1063   1.977   .     S
Cu1042 O1062   1.974   .     S
Cu1042 O1058   1.962   .     S
Cu1042 N1056   2.045   .     S
Cu1042 Cu897   2.721   1_655 S
H1047  C888    1.084   1_655 S
O1059  C865    1.302   1_655 S
O1062  C882    1.308   1_655 S
O1065  H922    0.993   1_655 S
O1067  H1068   0.992   .     S
O1069  H1070   0.990   .     S
O1071  H1072   0.987   .     S
C1073  O1074   1.217   .     D
C1073  O1075   1.398   .     S
O1075  H1076   1.014   .     S
C1077  O1079   1.397   .     S
C1077  O1078   1.222   .     D
O1079  H1080   1.014   .     S
C1081  C1092   1.448   .     S
C1081  O1129   1.306   .     A
C1081  O1275   1.302   1_455 S
C1082  O1130   1.306   .     A
C1082  C1091   1.449   .     S
C1082  O1204   1.302   .     S
C1083  C1085   1.389   .     A
C1083  C1112   1.408   .     A
C1083  H1121   1.081   .     S
C1084  C1086   1.389   .     A
C1084  H1122   1.081   .     S
C1084  C1111   1.407   .     A
C1085  H1115   1.080   .     S
C1086  H1116   1.071   .     S
C1086  C462    1.399   1_556 S
C1087  H1123   1.083   .     S
C1087  C1164   1.402   .     S
C1088  H1124   1.083   .     S
C1088  C658    1.384   1_565 S
C1088  C1235   1.402   1_455 S
C1089  H1125   1.083   .     S
C1089  C1091   1.399   .     A
C1089  C655    1.384   1_565 S
C1090  H1126   1.083   .     S
C1090  C1092   1.399   .     A
C1091  C1160   1.402   .     S
C1092  C1231   1.402   1_455 S
C1093  N1128   1.359   .     A
C1093  C1095   1.438   .     A
C1093  O1141   1.381   .     S
C1094  N1127   1.365   .     A
C1094  O1143   1.382   .     S
C1094  C1096   1.446   .     A
C1095  N1127   1.391   .     A
C1095  C1145   1.475   .     S
C1096  N1128   1.386   .     A
C1096  C1149   1.472   .     S
C1097  O1135   1.304   .     A
C1097  C1099   1.463   .     S
C1097  O1205   1.311   .     S
C1098  O1136   1.303   .     A
C1098  C1100   1.456   .     S
C1098  O1278   1.308   1_455 S
C1099  C1103   1.393   .     A
C1099  C1105   1.403   .     A
C1100  C1104   1.396   .     A
C1100  C1106   1.401   .     A
C1101  C1109   1.397   .     A
C1101  O1137   1.371   .     S
C1101  C1103   1.393   .     A
C1102  C1104   1.387   .     A
C1102  O1139   1.372   .     S
C1102  C1110   1.412   .     A
C1103  H1192   1.076   .     S
C1104  H1263   1.084   1_455 S
C1105  H1118   1.082   .     S
C1105  C1107   1.407   .     A
C1106  H1117   1.082   .     S
C1106  C1108   1.402   .     A
C1107  C1109   1.409   .     A
C1107  C1111   1.411   .     A
C1108  C1110   1.409   .     A
C1108  C1112   1.411   .     A
C1109  C437    1.398   1_556 S
C1111  C464    1.421   1_556 S
Cu1113 O1136   1.977   .     S
Cu1113 O1132   1.957   .     S
Cu1113 O1133   1.974   .     S
Cu1113 N1127   2.045   .     S
Cu1113 O1129   1.962   .     S
Cu1113 Cu1258  2.721   1_455 S
Cu1114 O1131   1.957   .     S
Cu1114 O1135   1.977   .     S
Cu1114 O1134   1.974   .     S
Cu1114 O1130   1.962   .     S
Cu1114 N1128   2.045   .     S
Cu1114 Cu1185  2.721   .     S
H1119  C1176   1.084   .     S
H1120  C1247   1.076   1_455 S
O1131  C1153   1.302   .     S
O1132  C1226   1.302   1_455 S
O1133  C1241   1.311   1_455 S
O1134  C1170   1.308   .     S
O1137  H1210   0.993   .     S
H1138  O1281   0.993   1_455 S
O1139  H1140   0.992   .     S
O1141  H1142   0.990   .     S
O1143  H1144   0.987   .     S
C1145  O1146   1.217   .     D
C1145  O1147   1.398   .     S
O1147  H1148   1.014   .     S
C1149  O1151   1.397   .     S
C1149  O1150   1.222   .     D
O1151  H1152   1.014   .     S
C1153  C1164   1.448   .     S
C1153  O1201   1.306   .     A
C1154  O1202   1.306   .     A
C1154  C1163   1.449   .     S
C1154  O1276   1.302   .     S
C1155  C1157   1.389   .     A
C1155  C1184   1.408   .     A
C1155  H1193   1.081   .     S
C1156  C1158   1.389   .     A
C1156  H1194   1.081   .     S
C1156  C1183   1.407   .     A
C1157  H1187   1.080   .     S
C1158  H1188   1.071   .     S
C1158  C534    1.399   1_556 S
C1159  H1195   1.083   .     S
C1159  C1236   1.402   .     S
C1160  H1196   1.083   .     S
C1160  C730    1.384   1_565 S
C1161  H1197   1.083   .     S
C1161  C1163   1.399   .     A
C1161  C727    1.384   1_565 S
C1162  H1198   1.083   .     S
C1162  C1164   1.399   .     A
C1163  C1232   1.402   .     S
C1165  N1200   1.359   .     A
C1165  C1167   1.438   .     A
C1165  O1213   1.381   .     S
C1166  N1199   1.365   .     A
C1166  O1215   1.382   .     S
C1166  C1168   1.446   .     A
C1167  N1199   1.391   .     A
C1167  C1217   1.475   .     S
C1168  N1200   1.386   .     A
C1168  C1221   1.472   .     S
C1169  O1207   1.304   .     A
C1169  C1171   1.463   .     S
C1169  O1277   1.311   .     S
C1170  O1208   1.303   .     A
C1170  C1172   1.456   .     S
C1171  C1175   1.393   .     A
C1171  C1177   1.403   .     A
C1172  C1176   1.396   .     A
C1172  C1178   1.401   .     A
C1173  C1181   1.397   .     A
C1173  O1209   1.371   .     S
C1173  C1175   1.393   .     A
C1174  C1176   1.387   .     A
C1174  O1211   1.372   .     S
C1174  C1182   1.412   .     A
C1175  H1264   1.076   .     S
C1177  H1190   1.082   .     S
C1177  C1179   1.407   .     A
C1178  H1189   1.082   .     S
C1178  C1180   1.402   .     A
C1179  C1181   1.409   .     A
C1179  C1183   1.411   .     A
C1180  C1182   1.409   .     A
C1180  C1184   1.411   .     A
C1181  C509    1.398   1_556 S
C1183  C536    1.421   1_556 S
Cu1185 O1208   1.977   .     S
Cu1185 O1204   1.957   .     S
Cu1185 O1205   1.974   .     S
Cu1185 N1199   2.045   .     S
Cu1185 O1201   1.962   .     S
Cu1186 O1203   1.957   .     S
Cu1186 O1207   1.977   .     S
Cu1186 O1206   1.974   .     S
Cu1186 O1202   1.962   .     S
Cu1186 N1200   2.045   .     S
Cu1186 Cu1257  2.721   .     S
H1191  C1248   1.084   .     S
O1203  C1225   1.302   .     S
O1206  C1242   1.308   .     S
O1209  H1282   0.993   .     S
O1211  H1212   0.992   .     S
O1213  H1214   0.990   .     S
O1215  H1216   0.987   .     S
C1217  O1218   1.217   .     D
C1217  O1219   1.398   .     S
O1219  H1220   1.014   .     S
C1221  O1223   1.397   .     S
C1221  O1222   1.222   .     D
O1223  H1224   1.014   .     S
C1225  C1236   1.448   .     S
C1225  O1273   1.306   .     A
C1226  O1274   1.306   .     A
C1226  C1235   1.449   .     S
C1226  O1132   1.302   1_655 S
C1227  C1229   1.389   .     A
C1227  C1256   1.408   .     A
C1227  H1265   1.081   .     S
C1228  C1230   1.389   .     A
C1228  H1266   1.081   .     S
C1228  C1255   1.407   .     A
C1229  H1259   1.080   .     S
C1230  H1260   1.071   .     S
C1230  C606    1.399   1_556 S
C1231  H1267   1.083   .     S
C1231  C1092   1.402   1_655 S
C1232  H1268   1.083   .     S
C1232  C802    1.384   1_565 S
C1233  H1269   1.083   .     S
C1233  C1235   1.399   .     A
C1233  C799    1.384   1_565 S
C1234  H1270   1.083   .     S
C1234  C1236   1.399   .     A
C1235  C1088   1.402   1_655 S
C1237  N1272   1.359   .     A
C1237  C1239   1.438   .     A
C1237  O1285   1.381   .     S
C1238  N1271   1.365   .     A
C1238  O1287   1.382   .     S
C1238  C1240   1.446   .     A
C1239  N1271   1.391   .     A
C1239  C1289   1.475   .     S
C1240  N1272   1.386   .     A
C1240  C1293   1.472   .     S
C1241  O1279   1.304   .     A
C1241  C1243   1.463   .     S
C1241  O1133   1.311   1_655 S
C1242  O1280   1.303   .     A
C1242  C1244   1.456   .     S
C1243  C1247   1.393   .     A
C1243  C1249   1.403   .     A
C1244  C1248   1.396   .     A
C1244  C1250   1.401   .     A
C1245  C1253   1.397   .     A
C1245  O1281   1.371   .     S
C1245  C1247   1.393   .     A
C1246  C1248   1.387   .     A
C1246  O1283   1.372   .     S
C1246  C1254   1.412   .     A
C1247  H1120   1.076   1_655 S
C1249  H1262   1.082   .     S
C1249  C1251   1.407   .     A
C1250  H1261   1.082   .     S
C1250  C1252   1.402   .     A
C1251  C1253   1.409   .     A
C1251  C1255   1.411   .     A
C1252  C1254   1.409   .     A
C1252  C1256   1.411   .     A
C1253  C581    1.398   1_556 S
C1255  C608    1.421   1_556 S
Cu1257 O1280   1.977   .     S
Cu1257 O1276   1.957   .     S
Cu1257 O1277   1.974   .     S
Cu1257 N1271   2.045   .     S
Cu1257 O1273   1.962   .     S
Cu1258 O1275   1.957   .     S
Cu1258 O1279   1.977   .     S
Cu1258 O1278   1.974   .     S
Cu1258 O1274   1.962   .     S
Cu1258 N1272   2.045   .     S
Cu1258 Cu1113  2.721   1_655 S
H1263  C1104   1.084   1_655 S
O1275  C1081   1.302   1_655 S
O1278  C1098   1.308   1_655 S
O1281  H1138   0.993   1_655 S
O1283  H1284   0.992   .     S
O1285  H1286   0.990   .     S
O1287  H1288   0.987   .     S
C1289  O1290   1.217   .     D
C1289  O1291   1.398   .     S
O1291  H1292   1.014   .     S
C1293  O1295   1.397   .     S
C1293  O1294   1.222   .     D
O1295  H1296   1.014   .     S
