data_str_m2_o10_o17_pcu_sym.139
_audit_creation_date              2020-01-03
_audit_creation_method            'Materials Studio'
_symmetry_space_group_name_H-M    'P1'
_symmetry_Int_Tables_number       1
_symmetry_cell_setting            triclinic
loop_
_symmetry_equiv_pos_as_xyz
  x,y,z
_cell_length_a                    30.1610
_cell_length_b                    26.3768
_cell_length_c                    23.0957
_cell_angle_alpha                 103.6962
_cell_angle_beta                  95.1620
_cell_angle_gamma                 95.8594
loop_
_atom_site_label
_atom_site_type_symbol
_atom_site_fract_x
_atom_site_fract_y
_atom_site_fract_z
_atom_site_U_iso_or_equiv
_atom_site_adp_type
_atom_site_occupancy
C1     C     0.24855   0.06676   0.15100   0.00000  Uiso   1.00
C2     C     0.25209   0.26664   0.18233   0.00000  Uiso   1.00
C3     C     0.00753   0.07246   0.11840   0.00000  Uiso   1.00
C4     C     0.49230   0.26237   0.21042   0.00000  Uiso   1.00
C5     C     0.24814   0.01049   0.14284   0.00000  Uiso   1.00
C6     C     0.25319   0.32300   0.19048   0.00000  Uiso   1.00
C7     C     0.16459   0.16175   0.16597   0.00000  Uiso   1.00
C8     C     0.33537   0.17005   0.16669   0.00000  Uiso   1.00
C9     C     0.41381   0.21939   0.18749   0.00000  Uiso   1.00
C10    C     0.08589   0.11370   0.14772   0.00000  Uiso   1.00
C11    C     0.38386   0.17214   0.16394   0.00000  Uiso   1.00
C12    C     0.11604   0.16112   0.16617   0.00000  Uiso   1.00
C13    C     0.39955   0.12603   0.13339   0.00000  Uiso   1.00
C14    C     0.10024   0.20972   0.18546   0.00000  Uiso   1.00
C15    C     0.44579   0.12377   0.13450   0.00000  Uiso   1.00
C16    C     0.05405   0.21244   0.18546   0.00000  Uiso   1.00
C17    C     0.47646   0.16945   0.16018   0.00000  Uiso   1.00
C18    C     0.02330   0.16650   0.16182   0.00000  Uiso   1.00
C19    C     0.46060   0.21766   0.18543   0.00000  Uiso   1.00
C20    C     0.03914   0.11723   0.14202   0.00000  Uiso   1.00
C21    C     0.46206   0.07594   0.11284   0.00000  Uiso   1.00
C22    C     0.03789   0.26002   0.20920   0.00000  Uiso   1.00
Cu23   Cu    0.25501   0.17246   0.22813   0.00000  Uiso   1.00
Cu24   Cu    0.24500   0.16087   0.10521   0.00000  Uiso   1.00
H25    H     0.44001   0.03986   0.09356   0.00000  Uiso   1.00
H26    H     0.06018   0.29598   0.22844   0.00000  Uiso   1.00
H27    H     0.01692   0.03388   0.10321   0.00000  Uiso   1.00
H28    H     0.48279   0.29999   0.23186   0.00000  Uiso   1.00
H29    H     0.24359   0.31936   0.09717   0.00000  Uiso   1.00
H30    H     0.25774   0.01413   0.23614   0.00000  Uiso   1.00
N31    N     0.23745   0.15214   0.01284   0.00000  Uiso   1.00
N32    N     0.26256   0.18119   0.32049   0.00000  Uiso   1.00
O33    O     0.25326   0.09538   0.20659   0.00000  Uiso   1.00
O34    O     0.24675   0.23796   0.12674   0.00000  Uiso   1.00
O35    O     0.24480   0.08559   0.10279   0.00000  Uiso   1.00
O36    O     0.25520   0.24774   0.23055   0.00000  Uiso   1.00
O37    O     0.18936   0.17155   0.21857   0.00000  Uiso   1.00
O38    O     0.31065   0.16179   0.11476   0.00000  Uiso   1.00
O39    O     0.18090   0.16176   0.11477   0.00000  Uiso   1.00
O40    O     0.31910   0.17157   0.21857   0.00000  Uiso   1.00
C41    C     0.39676   0.26972   0.21987   0.00000  Uiso   1.00
C42    C     0.40026   0.31530   0.18911   0.00000  Uiso   1.00
C43    C     0.40321   0.03450   0.23583   0.00000  Uiso   1.00
H44    H     0.37346   0.03528   0.26103   0.00000  Uiso   1.00
H45    H     0.40422   0.06735   0.21372   0.00000  Uiso   1.00
H46    H     0.43419   0.04076   0.26786   0.00000  Uiso   1.00
H47    H     0.42970   0.31544   0.16359   0.00000  Uiso   1.00
H48    H     0.36948   0.31144   0.15737   0.00000  Uiso   1.00
H49    H     0.36123   0.26271   0.22561   0.00000  Uiso   1.00
H50    H     0.41580   0.28240   0.26513   0.00000  Uiso   1.00
C51    C     0.10264   0.06039   0.14486   0.00000  Uiso   1.00
C52    C     0.09878   0.02364   0.08173   0.00000  Uiso   1.00
C53    C     0.08160   0.29958   0.07841   0.00000  Uiso   1.00
H54    H     0.10788   0.28116   0.09954   0.00000  Uiso   1.00
H55    H     0.05078   0.29577   0.10061   0.00000  Uiso   1.00
H56    H     0.07394   0.27745   0.03063   0.00000  Uiso   1.00
H57    H     0.07697   0.03803   0.04938   0.00000  Uiso   1.00
H58    H     0.13292   0.02286   0.06833   0.00000  Uiso   1.00
H59    H     0.13842   0.06593   0.16375   0.00000  Uiso   1.00
H60    H     0.08320   0.04095   0.17401   0.00000  Uiso   1.00
Br61   Br    0.35696   0.06511   0.09207   0.00000  Uiso   1.00
Br62   Br    0.14351   0.27190   0.21310   0.00000  Uiso   1.00
C63    C     0.19505   0.12615   0.31296   0.00000  Uiso   1.00
C64    C     0.17807   0.07651   0.33105   0.00000  Uiso   1.00
C65    C     0.13213   0.05441   0.29663   0.00000  Uiso   1.00
H66    H     0.10726   0.08244   0.30806   0.00000  Uiso   1.00
H67    H     0.13538   0.04643   0.24874   0.00000  Uiso   1.00
H68    H     0.12007   0.01631   0.30522   0.00000  Uiso   1.00
H69    H     0.20170   0.04674   0.32063   0.00000  Uiso   1.00
H70    H     0.17454   0.08446   0.04544   0.00000  Uiso   1.00
H71    H     0.16977   0.15432   0.31829   0.00000  Uiso   1.00
H72    H     0.19902   0.11039   0.26615   0.00000  Uiso   1.00
C73    C     0.30550   0.20518   0.02084   0.00000  Uiso   1.00
C74    C     0.32604   0.25441   0.00487   0.00000  Uiso   1.00
C75    C     0.37646   0.26361   0.02519   0.00000  Uiso   1.00
H76    H     0.38347   0.25986   0.07164   0.00000  Uiso   1.00
H77    H     0.39339   0.23338   0.32967   0.00000  Uiso   1.00
H78    H     0.39062   0.30338   0.02277   0.00000  Uiso   1.00
H79    H     0.32069   0.25101   0.29048   0.00000  Uiso   1.00
H80    H     0.31014   0.28907   0.02697   0.00000  Uiso   1.00
H81    H     0.30130   0.22192   0.06737   0.00000  Uiso   1.00
H82    H     0.32902   0.17494   0.01602   0.00000  Uiso   1.00
C83    C     0.74855   0.06676   0.15100   0.00000  Uiso   1.00
C84    C     0.75209   0.26664   0.18233   0.00000  Uiso   1.00
C85    C     0.50753   0.07246   0.11840   0.00000  Uiso   1.00
C86    C     0.99230   0.26237   0.21042   0.00000  Uiso   1.00
C87    C     0.74814   0.01049   0.14284   0.00000  Uiso   1.00
C88    C     0.75319   0.32300   0.19048   0.00000  Uiso   1.00
C89    C     0.66459   0.16175   0.16597   0.00000  Uiso   1.00
C90    C     0.83537   0.17005   0.16669   0.00000  Uiso   1.00
C91    C     0.91381   0.21939   0.18749   0.00000  Uiso   1.00
C92    C     0.58589   0.11370   0.14772   0.00000  Uiso   1.00
C93    C     0.88386   0.17214   0.16394   0.00000  Uiso   1.00
C94    C     0.61604   0.16112   0.16617   0.00000  Uiso   1.00
C95    C     0.89955   0.12603   0.13339   0.00000  Uiso   1.00
C96    C     0.60024   0.20972   0.18546   0.00000  Uiso   1.00
C97    C     0.94579   0.12377   0.13450   0.00000  Uiso   1.00
C98    C     0.55405   0.21244   0.18546   0.00000  Uiso   1.00
C99    C     0.97646   0.16945   0.16018   0.00000  Uiso   1.00
C100   C     0.52330   0.16650   0.16182   0.00000  Uiso   1.00
C101   C     0.96060   0.21766   0.18543   0.00000  Uiso   1.00
C102   C     0.53914   0.11723   0.14202   0.00000  Uiso   1.00
C103   C     0.96206   0.07594   0.11284   0.00000  Uiso   1.00
C104   C     0.53789   0.26002   0.20920   0.00000  Uiso   1.00
Cu105  Cu    0.75501   0.17246   0.22813   0.00000  Uiso   1.00
Cu106  Cu    0.74500   0.16087   0.10521   0.00000  Uiso   1.00
H107   H     0.94001   0.03986   0.09356   0.00000  Uiso   1.00
H108   H     0.56018   0.29598   0.22844   0.00000  Uiso   1.00
H109   H     0.51692   0.03388   0.10321   0.00000  Uiso   1.00
H110   H     0.98279   0.29999   0.23186   0.00000  Uiso   1.00
H111   H     0.74359   0.31936   0.09717   0.00000  Uiso   1.00
H112   H     0.75774   0.01413   0.23614   0.00000  Uiso   1.00
N113   N     0.73745   0.15214   0.01284   0.00000  Uiso   1.00
N114   N     0.76256   0.18119   0.32049   0.00000  Uiso   1.00
O115   O     0.75326   0.09538   0.20659   0.00000  Uiso   1.00
O116   O     0.74675   0.23796   0.12674   0.00000  Uiso   1.00
O117   O     0.74480   0.08559   0.10279   0.00000  Uiso   1.00
O118   O     0.75520   0.24774   0.23055   0.00000  Uiso   1.00
O119   O     0.68936   0.17155   0.21857   0.00000  Uiso   1.00
O120   O     0.81065   0.16179   0.11476   0.00000  Uiso   1.00
O121   O     0.68090   0.16176   0.11477   0.00000  Uiso   1.00
O122   O     0.81910   0.17157   0.21857   0.00000  Uiso   1.00
C123   C     0.89676   0.26972   0.21987   0.00000  Uiso   1.00
C124   C     0.90026   0.31530   0.18911   0.00000  Uiso   1.00
C125   C     0.90321   0.03450   0.23583   0.00000  Uiso   1.00
H126   H     0.87346   0.03528   0.26103   0.00000  Uiso   1.00
H127   H     0.90422   0.06735   0.21372   0.00000  Uiso   1.00
H128   H     0.93419   0.04076   0.26786   0.00000  Uiso   1.00
H129   H     0.92970   0.31544   0.16359   0.00000  Uiso   1.00
H130   H     0.86948   0.31144   0.15737   0.00000  Uiso   1.00
H131   H     0.86123   0.26271   0.22561   0.00000  Uiso   1.00
H132   H     0.91580   0.28240   0.26513   0.00000  Uiso   1.00
C133   C     0.60264   0.06039   0.14486   0.00000  Uiso   1.00
C134   C     0.59878   0.02364   0.08173   0.00000  Uiso   1.00
C135   C     0.58160   0.29958   0.07841   0.00000  Uiso   1.00
H136   H     0.60788   0.28116   0.09954   0.00000  Uiso   1.00
H137   H     0.55078   0.29577   0.10061   0.00000  Uiso   1.00
H138   H     0.57394   0.27745   0.03063   0.00000  Uiso   1.00
H139   H     0.57697   0.03803   0.04938   0.00000  Uiso   1.00
H140   H     0.63292   0.02286   0.06833   0.00000  Uiso   1.00
H141   H     0.63842   0.06593   0.16375   0.00000  Uiso   1.00
H142   H     0.58320   0.04095   0.17401   0.00000  Uiso   1.00
Br143  Br    0.85696   0.06511   0.09207   0.00000  Uiso   1.00
Br144  Br    0.64351   0.27190   0.21310   0.00000  Uiso   1.00
C145   C     0.69505   0.12615   0.31296   0.00000  Uiso   1.00
C146   C     0.67807   0.07651   0.33105   0.00000  Uiso   1.00
C147   C     0.63213   0.05441   0.29663   0.00000  Uiso   1.00
H148   H     0.60726   0.08244   0.30806   0.00000  Uiso   1.00
H149   H     0.63538   0.04643   0.24874   0.00000  Uiso   1.00
H150   H     0.62007   0.01631   0.30522   0.00000  Uiso   1.00
H151   H     0.70170   0.04674   0.32063   0.00000  Uiso   1.00
H152   H     0.67454   0.08446   0.04544   0.00000  Uiso   1.00
H153   H     0.66977   0.15432   0.31829   0.00000  Uiso   1.00
H154   H     0.69902   0.11039   0.26615   0.00000  Uiso   1.00
C155   C     0.80550   0.20518   0.02084   0.00000  Uiso   1.00
C156   C     0.82604   0.25441   0.00487   0.00000  Uiso   1.00
C157   C     0.87646   0.26361   0.02519   0.00000  Uiso   1.00
H158   H     0.88347   0.25986   0.07164   0.00000  Uiso   1.00
H159   H     0.89339   0.23338   0.32967   0.00000  Uiso   1.00
H160   H     0.89062   0.30338   0.02277   0.00000  Uiso   1.00
H161   H     0.82069   0.25101   0.29048   0.00000  Uiso   1.00
H162   H     0.81014   0.28907   0.02697   0.00000  Uiso   1.00
H163   H     0.80130   0.22192   0.06737   0.00000  Uiso   1.00
H164   H     0.82902   0.17494   0.01602   0.00000  Uiso   1.00
C165   C     0.24855   0.40009   0.15100   0.00000  Uiso   1.00
C166   C     0.25209   0.59997   0.18233   0.00000  Uiso   1.00
C167   C     0.00753   0.40579   0.11840   0.00000  Uiso   1.00
C168   C     0.49230   0.59571   0.21042   0.00000  Uiso   1.00
C169   C     0.24814   0.34382   0.14284   0.00000  Uiso   1.00
C170   C     0.25319   0.65634   0.19048   0.00000  Uiso   1.00
C171   C     0.16459   0.49509   0.16597   0.00000  Uiso   1.00
C172   C     0.33537   0.50338   0.16669   0.00000  Uiso   1.00
C173   C     0.41381   0.55272   0.18749   0.00000  Uiso   1.00
C174   C     0.08589   0.44704   0.14772   0.00000  Uiso   1.00
C175   C     0.38386   0.50547   0.16394   0.00000  Uiso   1.00
C176   C     0.11604   0.49445   0.16617   0.00000  Uiso   1.00
C177   C     0.39955   0.45937   0.13339   0.00000  Uiso   1.00
C178   C     0.10024   0.54306   0.18546   0.00000  Uiso   1.00
C179   C     0.44579   0.45710   0.13450   0.00000  Uiso   1.00
C180   C     0.05405   0.54577   0.18546   0.00000  Uiso   1.00
C181   C     0.47646   0.50278   0.16018   0.00000  Uiso   1.00
C182   C     0.02330   0.49983   0.16182   0.00000  Uiso   1.00
C183   C     0.46060   0.55099   0.18543   0.00000  Uiso   1.00
C184   C     0.03914   0.45056   0.14202   0.00000  Uiso   1.00
C185   C     0.46206   0.40927   0.11284   0.00000  Uiso   1.00
C186   C     0.03789   0.59335   0.20920   0.00000  Uiso   1.00
Cu187  Cu    0.25501   0.50579   0.22813   0.00000  Uiso   1.00
Cu188  Cu    0.24500   0.49421   0.10521   0.00000  Uiso   1.00
H189   H     0.44001   0.37319   0.09356   0.00000  Uiso   1.00
H190   H     0.06018   0.62932   0.22844   0.00000  Uiso   1.00
H191   H     0.01692   0.36721   0.10321   0.00000  Uiso   1.00
H192   H     0.48279   0.63333   0.23186   0.00000  Uiso   1.00
H193   H     0.24359   0.65270   0.09717   0.00000  Uiso   1.00
H194   H     0.25774   0.34747   0.23614   0.00000  Uiso   1.00
N195   N     0.23745   0.48547   0.01284   0.00000  Uiso   1.00
N196   N     0.26256   0.51453   0.32049   0.00000  Uiso   1.00
O197   O     0.25326   0.42871   0.20659   0.00000  Uiso   1.00
O198   O     0.24675   0.57129   0.12674   0.00000  Uiso   1.00
O199   O     0.24480   0.41892   0.10279   0.00000  Uiso   1.00
O200   O     0.25520   0.58108   0.23055   0.00000  Uiso   1.00
O201   O     0.18936   0.50488   0.21857   0.00000  Uiso   1.00
O202   O     0.31065   0.49512   0.11476   0.00000  Uiso   1.00
O203   O     0.18090   0.49510   0.11477   0.00000  Uiso   1.00
O204   O     0.31910   0.50490   0.21857   0.00000  Uiso   1.00
C205   C     0.39676   0.60305   0.21987   0.00000  Uiso   1.00
C206   C     0.40026   0.64864   0.18911   0.00000  Uiso   1.00
C207   C     0.40321   0.36784   0.23583   0.00000  Uiso   1.00
H208   H     0.37346   0.36861   0.26103   0.00000  Uiso   1.00
H209   H     0.40422   0.40068   0.21372   0.00000  Uiso   1.00
H210   H     0.43419   0.37410   0.26786   0.00000  Uiso   1.00
H211   H     0.42970   0.64878   0.16359   0.00000  Uiso   1.00
H212   H     0.36948   0.64477   0.15737   0.00000  Uiso   1.00
H213   H     0.36123   0.59605   0.22561   0.00000  Uiso   1.00
H214   H     0.41580   0.61574   0.26513   0.00000  Uiso   1.00
C215   C     0.10264   0.39372   0.14486   0.00000  Uiso   1.00
C216   C     0.09878   0.35697   0.08173   0.00000  Uiso   1.00
C217   C     0.08160   0.63291   0.07841   0.00000  Uiso   1.00
H218   H     0.10788   0.61449   0.09954   0.00000  Uiso   1.00
H219   H     0.05078   0.62911   0.10061   0.00000  Uiso   1.00
H220   H     0.07394   0.61079   0.03063   0.00000  Uiso   1.00
H221   H     0.07697   0.37136   0.04938   0.00000  Uiso   1.00
H222   H     0.13292   0.35620   0.06833   0.00000  Uiso   1.00
H223   H     0.13842   0.39927   0.16375   0.00000  Uiso   1.00
H224   H     0.08320   0.37429   0.17401   0.00000  Uiso   1.00
Br225  Br    0.35696   0.39845   0.09207   0.00000  Uiso   1.00
Br226  Br    0.14351   0.60523   0.21310   0.00000  Uiso   1.00
C227   C     0.19505   0.45948   0.31296   0.00000  Uiso   1.00
C228   C     0.17807   0.40985   0.33105   0.00000  Uiso   1.00
C229   C     0.13213   0.38774   0.29663   0.00000  Uiso   1.00
H230   H     0.10726   0.41578   0.30806   0.00000  Uiso   1.00
H231   H     0.13538   0.37976   0.24874   0.00000  Uiso   1.00
H232   H     0.12007   0.34965   0.30522   0.00000  Uiso   1.00
H233   H     0.20170   0.38008   0.32063   0.00000  Uiso   1.00
H234   H     0.17454   0.41779   0.04544   0.00000  Uiso   1.00
H235   H     0.16977   0.48765   0.31829   0.00000  Uiso   1.00
H236   H     0.19902   0.44372   0.26615   0.00000  Uiso   1.00
C237   C     0.30550   0.53851   0.02084   0.00000  Uiso   1.00
C238   C     0.32604   0.58775   0.00487   0.00000  Uiso   1.00
C239   C     0.37646   0.59695   0.02519   0.00000  Uiso   1.00
H240   H     0.38347   0.59319   0.07164   0.00000  Uiso   1.00
H241   H     0.39339   0.56671   0.32967   0.00000  Uiso   1.00
H242   H     0.39062   0.63671   0.02277   0.00000  Uiso   1.00
H243   H     0.32069   0.58434   0.29048   0.00000  Uiso   1.00
H244   H     0.31014   0.62240   0.02697   0.00000  Uiso   1.00
H245   H     0.30130   0.55525   0.06737   0.00000  Uiso   1.00
H246   H     0.32902   0.50828   0.01602   0.00000  Uiso   1.00
C247   C     0.74855   0.40009   0.15100   0.00000  Uiso   1.00
C248   C     0.75209   0.59997   0.18233   0.00000  Uiso   1.00
C249   C     0.50753   0.40579   0.11840   0.00000  Uiso   1.00
C250   C     0.99230   0.59571   0.21042   0.00000  Uiso   1.00
C251   C     0.74814   0.34382   0.14284   0.00000  Uiso   1.00
C252   C     0.75319   0.65634   0.19048   0.00000  Uiso   1.00
C253   C     0.66459   0.49509   0.16597   0.00000  Uiso   1.00
C254   C     0.83537   0.50338   0.16669   0.00000  Uiso   1.00
C255   C     0.91381   0.55272   0.18749   0.00000  Uiso   1.00
C256   C     0.58589   0.44704   0.14772   0.00000  Uiso   1.00
C257   C     0.88386   0.50547   0.16394   0.00000  Uiso   1.00
C258   C     0.61604   0.49445   0.16617   0.00000  Uiso   1.00
C259   C     0.89955   0.45937   0.13339   0.00000  Uiso   1.00
C260   C     0.60024   0.54306   0.18546   0.00000  Uiso   1.00
C261   C     0.94579   0.45710   0.13450   0.00000  Uiso   1.00
C262   C     0.55405   0.54577   0.18546   0.00000  Uiso   1.00
C263   C     0.97646   0.50278   0.16018   0.00000  Uiso   1.00
C264   C     0.52330   0.49983   0.16182   0.00000  Uiso   1.00
C265   C     0.96060   0.55099   0.18543   0.00000  Uiso   1.00
C266   C     0.53914   0.45056   0.14202   0.00000  Uiso   1.00
C267   C     0.96206   0.40927   0.11284   0.00000  Uiso   1.00
C268   C     0.53789   0.59335   0.20920   0.00000  Uiso   1.00
Cu269  Cu    0.75501   0.50579   0.22813   0.00000  Uiso   1.00
Cu270  Cu    0.74500   0.49421   0.10521   0.00000  Uiso   1.00
H271   H     0.94001   0.37319   0.09356   0.00000  Uiso   1.00
H272   H     0.56018   0.62932   0.22844   0.00000  Uiso   1.00
H273   H     0.51692   0.36721   0.10321   0.00000  Uiso   1.00
H274   H     0.98279   0.63333   0.23186   0.00000  Uiso   1.00
H275   H     0.74359   0.65270   0.09717   0.00000  Uiso   1.00
H276   H     0.75774   0.34747   0.23614   0.00000  Uiso   1.00
N277   N     0.73745   0.48547   0.01284   0.00000  Uiso   1.00
N278   N     0.76256   0.51453   0.32049   0.00000  Uiso   1.00
O279   O     0.75326   0.42871   0.20659   0.00000  Uiso   1.00
O280   O     0.74675   0.57129   0.12674   0.00000  Uiso   1.00
O281   O     0.74480   0.41892   0.10279   0.00000  Uiso   1.00
O282   O     0.75520   0.58108   0.23055   0.00000  Uiso   1.00
O283   O     0.68936   0.50488   0.21857   0.00000  Uiso   1.00
O284   O     0.81065   0.49512   0.11476   0.00000  Uiso   1.00
O285   O     0.68090   0.49510   0.11477   0.00000  Uiso   1.00
O286   O     0.81910   0.50490   0.21857   0.00000  Uiso   1.00
C287   C     0.89676   0.60305   0.21987   0.00000  Uiso   1.00
C288   C     0.90026   0.64864   0.18911   0.00000  Uiso   1.00
C289   C     0.90321   0.36784   0.23583   0.00000  Uiso   1.00
H290   H     0.87346   0.36861   0.26103   0.00000  Uiso   1.00
H291   H     0.90422   0.40068   0.21372   0.00000  Uiso   1.00
H292   H     0.93419   0.37410   0.26786   0.00000  Uiso   1.00
H293   H     0.92970   0.64878   0.16359   0.00000  Uiso   1.00
H294   H     0.86948   0.64477   0.15737   0.00000  Uiso   1.00
H295   H     0.86123   0.59605   0.22561   0.00000  Uiso   1.00
H296   H     0.91580   0.61574   0.26513   0.00000  Uiso   1.00
C297   C     0.60264   0.39372   0.14486   0.00000  Uiso   1.00
C298   C     0.59878   0.35697   0.08173   0.00000  Uiso   1.00
C299   C     0.58160   0.63291   0.07841   0.00000  Uiso   1.00
H300   H     0.60788   0.61449   0.09954   0.00000  Uiso   1.00
H301   H     0.55078   0.62911   0.10061   0.00000  Uiso   1.00
H302   H     0.57394   0.61079   0.03063   0.00000  Uiso   1.00
H303   H     0.57697   0.37136   0.04938   0.00000  Uiso   1.00
H304   H     0.63292   0.35620   0.06833   0.00000  Uiso   1.00
H305   H     0.63842   0.39927   0.16375   0.00000  Uiso   1.00
H306   H     0.58320   0.37429   0.17401   0.00000  Uiso   1.00
Br307  Br    0.85696   0.39845   0.09207   0.00000  Uiso   1.00
Br308  Br    0.64351   0.60523   0.21310   0.00000  Uiso   1.00
C309   C     0.69505   0.45948   0.31296   0.00000  Uiso   1.00
C310   C     0.67807   0.40985   0.33105   0.00000  Uiso   1.00
C311   C     0.63213   0.38774   0.29663   0.00000  Uiso   1.00
H312   H     0.60726   0.41578   0.30806   0.00000  Uiso   1.00
H313   H     0.63538   0.37976   0.24874   0.00000  Uiso   1.00
H314   H     0.62007   0.34965   0.30522   0.00000  Uiso   1.00
H315   H     0.70170   0.38008   0.32063   0.00000  Uiso   1.00
H316   H     0.67454   0.41779   0.04544   0.00000  Uiso   1.00
H317   H     0.66977   0.48765   0.31829   0.00000  Uiso   1.00
H318   H     0.69902   0.44372   0.26615   0.00000  Uiso   1.00
C319   C     0.80550   0.53851   0.02084   0.00000  Uiso   1.00
C320   C     0.82604   0.58775   0.00487   0.00000  Uiso   1.00
C321   C     0.87646   0.59695   0.02519   0.00000  Uiso   1.00
H322   H     0.88347   0.59319   0.07164   0.00000  Uiso   1.00
H323   H     0.89339   0.56671   0.32967   0.00000  Uiso   1.00
H324   H     0.89062   0.63671   0.02277   0.00000  Uiso   1.00
H325   H     0.82069   0.58434   0.29048   0.00000  Uiso   1.00
H326   H     0.81014   0.62240   0.02697   0.00000  Uiso   1.00
H327   H     0.80130   0.55525   0.06737   0.00000  Uiso   1.00
H328   H     0.82902   0.50828   0.01602   0.00000  Uiso   1.00
C329   C     0.24855   0.73343   0.15100   0.00000  Uiso   1.00
C330   C     0.25209   0.93330   0.18233   0.00000  Uiso   1.00
C331   C     0.00753   0.73913   0.11840   0.00000  Uiso   1.00
C332   C     0.49230   0.92904   0.21042   0.00000  Uiso   1.00
C333   C     0.24814   0.67716   0.14284   0.00000  Uiso   1.00
C334   C     0.25319   0.98967   0.19048   0.00000  Uiso   1.00
C335   C     0.16459   0.82842   0.16597   0.00000  Uiso   1.00
C336   C     0.33537   0.83671   0.16669   0.00000  Uiso   1.00
C337   C     0.41381   0.88605   0.18749   0.00000  Uiso   1.00
C338   C     0.08589   0.78037   0.14772   0.00000  Uiso   1.00
C339   C     0.38386   0.83881   0.16394   0.00000  Uiso   1.00
C340   C     0.11604   0.82778   0.16617   0.00000  Uiso   1.00
C341   C     0.39955   0.79270   0.13339   0.00000  Uiso   1.00
C342   C     0.10024   0.87639   0.18546   0.00000  Uiso   1.00
C343   C     0.44579   0.79044   0.13450   0.00000  Uiso   1.00
C344   C     0.05405   0.87910   0.18546   0.00000  Uiso   1.00
C345   C     0.47646   0.83611   0.16018   0.00000  Uiso   1.00
C346   C     0.02330   0.83317   0.16182   0.00000  Uiso   1.00
C347   C     0.46060   0.88433   0.18543   0.00000  Uiso   1.00
C348   C     0.03914   0.78389   0.14202   0.00000  Uiso   1.00
C349   C     0.46206   0.74261   0.11284   0.00000  Uiso   1.00
C350   C     0.03789   0.92669   0.20920   0.00000  Uiso   1.00
Cu351  Cu    0.25501   0.83913   0.22813   0.00000  Uiso   1.00
Cu352  Cu    0.24500   0.82754   0.10521   0.00000  Uiso   1.00
H353   H     0.44001   0.70652   0.09356   0.00000  Uiso   1.00
H354   H     0.06018   0.96265   0.22844   0.00000  Uiso   1.00
H355   H     0.01692   0.70054   0.10321   0.00000  Uiso   1.00
H356   H     0.48279   0.96666   0.23186   0.00000  Uiso   1.00
H357   H     0.24359   0.98603   0.09717   0.00000  Uiso   1.00
H358   H     0.25774   0.68080   0.23614   0.00000  Uiso   1.00
N359   N     0.23745   0.81881   0.01284   0.00000  Uiso   1.00
N360   N     0.26256   0.84786   0.32049   0.00000  Uiso   1.00
O361   O     0.25326   0.76204   0.20659   0.00000  Uiso   1.00
O362   O     0.24675   0.90462   0.12674   0.00000  Uiso   1.00
O363   O     0.24480   0.75226   0.10279   0.00000  Uiso   1.00
O364   O     0.25520   0.91441   0.23055   0.00000  Uiso   1.00
O365   O     0.18936   0.83821   0.21857   0.00000  Uiso   1.00
O366   O     0.31065   0.82845   0.11476   0.00000  Uiso   1.00
O367   O     0.18090   0.82843   0.11477   0.00000  Uiso   1.00
O368   O     0.31910   0.83824   0.21857   0.00000  Uiso   1.00
C369   C     0.39676   0.93639   0.21987   0.00000  Uiso   1.00
C370   C     0.40026   0.98197   0.18911   0.00000  Uiso   1.00
C371   C     0.40321   0.70117   0.23583   0.00000  Uiso   1.00
H372   H     0.37346   0.70194   0.26103   0.00000  Uiso   1.00
H373   H     0.40422   0.73402   0.21372   0.00000  Uiso   1.00
H374   H     0.43419   0.70743   0.26786   0.00000  Uiso   1.00
H375   H     0.42970   0.98211   0.16359   0.00000  Uiso   1.00
H376   H     0.36948   0.97810   0.15737   0.00000  Uiso   1.00
H377   H     0.36123   0.92938   0.22561   0.00000  Uiso   1.00
H378   H     0.41580   0.94907   0.26513   0.00000  Uiso   1.00
C379   C     0.10264   0.72705   0.14486   0.00000  Uiso   1.00
C380   C     0.09878   0.69031   0.08173   0.00000  Uiso   1.00
C381   C     0.08160   0.96624   0.07841   0.00000  Uiso   1.00
H382   H     0.10788   0.94782   0.09954   0.00000  Uiso   1.00
H383   H     0.05078   0.96244   0.10061   0.00000  Uiso   1.00
H384   H     0.07394   0.94412   0.03063   0.00000  Uiso   1.00
H385   H     0.07697   0.70469   0.04938   0.00000  Uiso   1.00
H386   H     0.13292   0.68953   0.06833   0.00000  Uiso   1.00
H387   H     0.13842   0.73260   0.16375   0.00000  Uiso   1.00
H388   H     0.08320   0.70762   0.17401   0.00000  Uiso   1.00
Br389  Br    0.35696   0.73178   0.09207   0.00000  Uiso   1.00
Br390  Br    0.14351   0.93856   0.21310   0.00000  Uiso   1.00
C391   C     0.19505   0.79282   0.31296   0.00000  Uiso   1.00
C392   C     0.17807   0.74318   0.33105   0.00000  Uiso   1.00
C393   C     0.13213   0.72108   0.29663   0.00000  Uiso   1.00
H394   H     0.10726   0.74911   0.30806   0.00000  Uiso   1.00
H395   H     0.13538   0.71310   0.24874   0.00000  Uiso   1.00
H396   H     0.12007   0.68298   0.30522   0.00000  Uiso   1.00
H397   H     0.20170   0.71341   0.32063   0.00000  Uiso   1.00
H398   H     0.17454   0.75112   0.04544   0.00000  Uiso   1.00
H399   H     0.16977   0.82099   0.31829   0.00000  Uiso   1.00
H400   H     0.19902   0.77706   0.26615   0.00000  Uiso   1.00
C401   C     0.30550   0.87185   0.02084   0.00000  Uiso   1.00
C402   C     0.32604   0.92108   0.00487   0.00000  Uiso   1.00
C403   C     0.37646   0.93028   0.02519   0.00000  Uiso   1.00
H404   H     0.38347   0.92652   0.07164   0.00000  Uiso   1.00
H405   H     0.39339   0.90005   0.32967   0.00000  Uiso   1.00
H406   H     0.39062   0.97004   0.02277   0.00000  Uiso   1.00
H407   H     0.32069   0.91768   0.29048   0.00000  Uiso   1.00
H408   H     0.31014   0.95573   0.02697   0.00000  Uiso   1.00
H409   H     0.30130   0.88858   0.06737   0.00000  Uiso   1.00
H410   H     0.32902   0.84161   0.01602   0.00000  Uiso   1.00
C411   C     0.74855   0.73343   0.15100   0.00000  Uiso   1.00
C412   C     0.75209   0.93330   0.18233   0.00000  Uiso   1.00
C413   C     0.50753   0.73913   0.11840   0.00000  Uiso   1.00
C414   C     0.99230   0.92904   0.21042   0.00000  Uiso   1.00
C415   C     0.74814   0.67716   0.14284   0.00000  Uiso   1.00
C416   C     0.75319   0.98967   0.19048   0.00000  Uiso   1.00
C417   C     0.66459   0.82842   0.16597   0.00000  Uiso   1.00
C418   C     0.83537   0.83671   0.16669   0.00000  Uiso   1.00
C419   C     0.91381   0.88605   0.18749   0.00000  Uiso   1.00
C420   C     0.58589   0.78037   0.14772   0.00000  Uiso   1.00
C421   C     0.88386   0.83881   0.16394   0.00000  Uiso   1.00
C422   C     0.61604   0.82778   0.16617   0.00000  Uiso   1.00
C423   C     0.89955   0.79270   0.13339   0.00000  Uiso   1.00
C424   C     0.60024   0.87639   0.18546   0.00000  Uiso   1.00
C425   C     0.94579   0.79044   0.13450   0.00000  Uiso   1.00
C426   C     0.55405   0.87910   0.18546   0.00000  Uiso   1.00
C427   C     0.97646   0.83611   0.16018   0.00000  Uiso   1.00
C428   C     0.52330   0.83317   0.16182   0.00000  Uiso   1.00
C429   C     0.96060   0.88433   0.18543   0.00000  Uiso   1.00
C430   C     0.53914   0.78389   0.14202   0.00000  Uiso   1.00
C431   C     0.96206   0.74261   0.11284   0.00000  Uiso   1.00
C432   C     0.53789   0.92669   0.20920   0.00000  Uiso   1.00
Cu433  Cu    0.75501   0.83913   0.22813   0.00000  Uiso   1.00
Cu434  Cu    0.74500   0.82754   0.10521   0.00000  Uiso   1.00
H435   H     0.94001   0.70652   0.09356   0.00000  Uiso   1.00
H436   H     0.56018   0.96265   0.22844   0.00000  Uiso   1.00
H437   H     0.51692   0.70054   0.10321   0.00000  Uiso   1.00
H438   H     0.98279   0.96666   0.23186   0.00000  Uiso   1.00
H439   H     0.74359   0.98603   0.09717   0.00000  Uiso   1.00
H440   H     0.75774   0.68080   0.23614   0.00000  Uiso   1.00
N441   N     0.73745   0.81881   0.01284   0.00000  Uiso   1.00
N442   N     0.76256   0.84786   0.32049   0.00000  Uiso   1.00
O443   O     0.75326   0.76204   0.20659   0.00000  Uiso   1.00
O444   O     0.74675   0.90462   0.12674   0.00000  Uiso   1.00
O445   O     0.74480   0.75226   0.10279   0.00000  Uiso   1.00
O446   O     0.75520   0.91441   0.23055   0.00000  Uiso   1.00
O447   O     0.68936   0.83821   0.21857   0.00000  Uiso   1.00
O448   O     0.81065   0.82845   0.11476   0.00000  Uiso   1.00
O449   O     0.68090   0.82843   0.11477   0.00000  Uiso   1.00
O450   O     0.81910   0.83824   0.21857   0.00000  Uiso   1.00
C451   C     0.89676   0.93639   0.21987   0.00000  Uiso   1.00
C452   C     0.90026   0.98197   0.18911   0.00000  Uiso   1.00
C453   C     0.90321   0.70117   0.23583   0.00000  Uiso   1.00
H454   H     0.87346   0.70194   0.26103   0.00000  Uiso   1.00
H455   H     0.90422   0.73402   0.21372   0.00000  Uiso   1.00
H456   H     0.93419   0.70743   0.26786   0.00000  Uiso   1.00
H457   H     0.92970   0.98211   0.16359   0.00000  Uiso   1.00
H458   H     0.86948   0.97810   0.15737   0.00000  Uiso   1.00
H459   H     0.86123   0.92938   0.22561   0.00000  Uiso   1.00
H460   H     0.91580   0.94907   0.26513   0.00000  Uiso   1.00
C461   C     0.60264   0.72705   0.14486   0.00000  Uiso   1.00
C462   C     0.59878   0.69031   0.08173   0.00000  Uiso   1.00
C463   C     0.58160   0.96624   0.07841   0.00000  Uiso   1.00
H464   H     0.60788   0.94782   0.09954   0.00000  Uiso   1.00
H465   H     0.55078   0.96244   0.10061   0.00000  Uiso   1.00
H466   H     0.57394   0.94412   0.03063   0.00000  Uiso   1.00
H467   H     0.57697   0.70469   0.04938   0.00000  Uiso   1.00
H468   H     0.63292   0.68953   0.06833   0.00000  Uiso   1.00
H469   H     0.63842   0.73260   0.16375   0.00000  Uiso   1.00
H470   H     0.58320   0.70762   0.17401   0.00000  Uiso   1.00
Br471  Br    0.85696   0.73178   0.09207   0.00000  Uiso   1.00
Br472  Br    0.64351   0.93856   0.21310   0.00000  Uiso   1.00
C473   C     0.69505   0.79282   0.31296   0.00000  Uiso   1.00
C474   C     0.67807   0.74318   0.33105   0.00000  Uiso   1.00
C475   C     0.63213   0.72108   0.29663   0.00000  Uiso   1.00
H476   H     0.60726   0.74911   0.30806   0.00000  Uiso   1.00
H477   H     0.63538   0.71310   0.24874   0.00000  Uiso   1.00
H478   H     0.62007   0.68298   0.30522   0.00000  Uiso   1.00
H479   H     0.70170   0.71341   0.32063   0.00000  Uiso   1.00
H480   H     0.67454   0.75112   0.04544   0.00000  Uiso   1.00
H481   H     0.66977   0.82099   0.31829   0.00000  Uiso   1.00
H482   H     0.69902   0.77706   0.26615   0.00000  Uiso   1.00
C483   C     0.80550   0.87185   0.02084   0.00000  Uiso   1.00
C484   C     0.82604   0.92108   0.00487   0.00000  Uiso   1.00
C485   C     0.87646   0.93028   0.02519   0.00000  Uiso   1.00
H486   H     0.88347   0.92652   0.07164   0.00000  Uiso   1.00
H487   H     0.89339   0.90005   0.32967   0.00000  Uiso   1.00
H488   H     0.89062   0.97004   0.02277   0.00000  Uiso   1.00
H489   H     0.82069   0.91768   0.29048   0.00000  Uiso   1.00
H490   H     0.81014   0.95573   0.02697   0.00000  Uiso   1.00
H491   H     0.80130   0.88858   0.06737   0.00000  Uiso   1.00
H492   H     0.82902   0.84161   0.01602   0.00000  Uiso   1.00
C493   C     0.24855   0.06676   0.48434   0.00000  Uiso   1.00
C494   C     0.25209   0.26664   0.51566   0.00000  Uiso   1.00
C495   C     0.00753   0.07246   0.45174   0.00000  Uiso   1.00
C496   C     0.49230   0.26237   0.54375   0.00000  Uiso   1.00
C497   C     0.24814   0.01049   0.47617   0.00000  Uiso   1.00
C498   C     0.25319   0.32300   0.52381   0.00000  Uiso   1.00
C499   C     0.16459   0.16175   0.49930   0.00000  Uiso   1.00
C500   C     0.33537   0.17005   0.50003   0.00000  Uiso   1.00
C501   C     0.41381   0.21939   0.52082   0.00000  Uiso   1.00
C502   C     0.08589   0.11370   0.48105   0.00000  Uiso   1.00
C503   C     0.38386   0.17214   0.49727   0.00000  Uiso   1.00
C504   C     0.11604   0.16112   0.49950   0.00000  Uiso   1.00
C505   C     0.39955   0.12603   0.46672   0.00000  Uiso   1.00
C506   C     0.10024   0.20972   0.51879   0.00000  Uiso   1.00
C507   C     0.44579   0.12377   0.46783   0.00000  Uiso   1.00
C508   C     0.05405   0.21244   0.51879   0.00000  Uiso   1.00
C509   C     0.47646   0.16945   0.49351   0.00000  Uiso   1.00
C510   C     0.02330   0.16650   0.49515   0.00000  Uiso   1.00
C511   C     0.46060   0.21766   0.51877   0.00000  Uiso   1.00
C512   C     0.03914   0.11723   0.47535   0.00000  Uiso   1.00
C513   C     0.46206   0.07594   0.44617   0.00000  Uiso   1.00
C514   C     0.03789   0.26002   0.54254   0.00000  Uiso   1.00
Cu515  Cu    0.25501   0.17246   0.56146   0.00000  Uiso   1.00
Cu516  Cu    0.24500   0.16087   0.43854   0.00000  Uiso   1.00
H517   H     0.44001   0.03986   0.42690   0.00000  Uiso   1.00
H518   H     0.06018   0.29598   0.56177   0.00000  Uiso   1.00
H519   H     0.01692   0.03388   0.43655   0.00000  Uiso   1.00
H520   H     0.48279   0.29999   0.56519   0.00000  Uiso   1.00
H521   H     0.24359   0.31936   0.43051   0.00000  Uiso   1.00
H522   H     0.25774   0.01413   0.56947   0.00000  Uiso   1.00
N523   N     0.23745   0.15214   0.34617   0.00000  Uiso   1.00
N524   N     0.26256   0.18119   0.65383   0.00000  Uiso   1.00
O525   O     0.25326   0.09538   0.53992   0.00000  Uiso   1.00
O526   O     0.24675   0.23796   0.46008   0.00000  Uiso   1.00
O527   O     0.24480   0.08559   0.43612   0.00000  Uiso   1.00
O528   O     0.25520   0.24774   0.56388   0.00000  Uiso   1.00
O529   O     0.18936   0.17155   0.55191   0.00000  Uiso   1.00
O530   O     0.31065   0.16179   0.44809   0.00000  Uiso   1.00
O531   O     0.18090   0.16176   0.44810   0.00000  Uiso   1.00
O532   O     0.31910   0.17157   0.55190   0.00000  Uiso   1.00
C533   C     0.39676   0.26972   0.55321   0.00000  Uiso   1.00
C534   C     0.40026   0.31530   0.52244   0.00000  Uiso   1.00
C535   C     0.40321   0.03450   0.56916   0.00000  Uiso   1.00
H536   H     0.37346   0.03528   0.59436   0.00000  Uiso   1.00
H537   H     0.40422   0.06735   0.54706   0.00000  Uiso   1.00
H538   H     0.43419   0.04076   0.60120   0.00000  Uiso   1.00
H539   H     0.42970   0.31544   0.49693   0.00000  Uiso   1.00
H540   H     0.36948   0.31144   0.49071   0.00000  Uiso   1.00
H541   H     0.36123   0.26271   0.55894   0.00000  Uiso   1.00
H542   H     0.41580   0.28240   0.59846   0.00000  Uiso   1.00
C543   C     0.10264   0.06039   0.47819   0.00000  Uiso   1.00
C544   C     0.09878   0.02364   0.41506   0.00000  Uiso   1.00
C545   C     0.08160   0.29958   0.41175   0.00000  Uiso   1.00
H546   H     0.10788   0.28116   0.43287   0.00000  Uiso   1.00
H547   H     0.05078   0.29577   0.43395   0.00000  Uiso   1.00
H548   H     0.07394   0.27745   0.36396   0.00000  Uiso   1.00
H549   H     0.07697   0.03803   0.38271   0.00000  Uiso   1.00
H550   H     0.13292   0.02286   0.40166   0.00000  Uiso   1.00
H551   H     0.13842   0.06593   0.49708   0.00000  Uiso   1.00
H552   H     0.08320   0.04095   0.50735   0.00000  Uiso   1.00
Br553  Br    0.35696   0.06511   0.42541   0.00000  Uiso   1.00
Br554  Br    0.14351   0.27190   0.54644   0.00000  Uiso   1.00
C555   C     0.19505   0.12615   0.64629   0.00000  Uiso   1.00
C556   C     0.17807   0.07651   0.66438   0.00000  Uiso   1.00
C557   C     0.13213   0.05441   0.62997   0.00000  Uiso   1.00
H558   H     0.10726   0.08244   0.64139   0.00000  Uiso   1.00
H559   H     0.13538   0.04643   0.58207   0.00000  Uiso   1.00
H560   H     0.12007   0.01631   0.63856   0.00000  Uiso   1.00
H561   H     0.20170   0.04674   0.65397   0.00000  Uiso   1.00
H562   H     0.17454   0.08446   0.37877   0.00000  Uiso   1.00
H563   H     0.16977   0.15432   0.65162   0.00000  Uiso   1.00
H564   H     0.19902   0.11039   0.59949   0.00000  Uiso   1.00
C565   C     0.30550   0.20518   0.35418   0.00000  Uiso   1.00
C566   C     0.32604   0.25441   0.33820   0.00000  Uiso   1.00
C567   C     0.37646   0.26361   0.35852   0.00000  Uiso   1.00
H568   H     0.38347   0.25986   0.40498   0.00000  Uiso   1.00
H569   H     0.39339   0.23338   0.66301   0.00000  Uiso   1.00
H570   H     0.39062   0.30338   0.35611   0.00000  Uiso   1.00
H571   H     0.32069   0.25101   0.62381   0.00000  Uiso   1.00
H572   H     0.31014   0.28907   0.36030   0.00000  Uiso   1.00
H573   H     0.30130   0.22192   0.40070   0.00000  Uiso   1.00
H574   H     0.32902   0.17494   0.34935   0.00000  Uiso   1.00
C575   C     0.74855   0.06676   0.48434   0.00000  Uiso   1.00
C576   C     0.75209   0.26664   0.51566   0.00000  Uiso   1.00
C577   C     0.50753   0.07246   0.45174   0.00000  Uiso   1.00
C578   C     0.99230   0.26237   0.54375   0.00000  Uiso   1.00
C579   C     0.74814   0.01049   0.47617   0.00000  Uiso   1.00
C580   C     0.75319   0.32300   0.52381   0.00000  Uiso   1.00
C581   C     0.66459   0.16175   0.49930   0.00000  Uiso   1.00
C582   C     0.83537   0.17005   0.50003   0.00000  Uiso   1.00
C583   C     0.91381   0.21939   0.52082   0.00000  Uiso   1.00
C584   C     0.58589   0.11370   0.48105   0.00000  Uiso   1.00
C585   C     0.88386   0.17214   0.49727   0.00000  Uiso   1.00
C586   C     0.61604   0.16112   0.49950   0.00000  Uiso   1.00
C587   C     0.89955   0.12603   0.46672   0.00000  Uiso   1.00
C588   C     0.60024   0.20972   0.51879   0.00000  Uiso   1.00
C589   C     0.94579   0.12377   0.46783   0.00000  Uiso   1.00
C590   C     0.55405   0.21244   0.51879   0.00000  Uiso   1.00
C591   C     0.97646   0.16945   0.49351   0.00000  Uiso   1.00
C592   C     0.52330   0.16650   0.49515   0.00000  Uiso   1.00
C593   C     0.96060   0.21766   0.51877   0.00000  Uiso   1.00
C594   C     0.53914   0.11723   0.47535   0.00000  Uiso   1.00
C595   C     0.96206   0.07594   0.44617   0.00000  Uiso   1.00
C596   C     0.53789   0.26002   0.54254   0.00000  Uiso   1.00
Cu597  Cu    0.75501   0.17246   0.56146   0.00000  Uiso   1.00
Cu598  Cu    0.74500   0.16087   0.43854   0.00000  Uiso   1.00
H599   H     0.94001   0.03986   0.42690   0.00000  Uiso   1.00
H600   H     0.56018   0.29598   0.56177   0.00000  Uiso   1.00
H601   H     0.51692   0.03388   0.43655   0.00000  Uiso   1.00
H602   H     0.98279   0.29999   0.56519   0.00000  Uiso   1.00
H603   H     0.74359   0.31936   0.43051   0.00000  Uiso   1.00
H604   H     0.75774   0.01413   0.56947   0.00000  Uiso   1.00
N605   N     0.73745   0.15214   0.34617   0.00000  Uiso   1.00
N606   N     0.76256   0.18119   0.65383   0.00000  Uiso   1.00
O607   O     0.75326   0.09538   0.53992   0.00000  Uiso   1.00
O608   O     0.74675   0.23796   0.46008   0.00000  Uiso   1.00
O609   O     0.74480   0.08559   0.43612   0.00000  Uiso   1.00
O610   O     0.75520   0.24774   0.56388   0.00000  Uiso   1.00
O611   O     0.68936   0.17155   0.55191   0.00000  Uiso   1.00
O612   O     0.81065   0.16179   0.44809   0.00000  Uiso   1.00
O613   O     0.68090   0.16176   0.44810   0.00000  Uiso   1.00
O614   O     0.81910   0.17157   0.55190   0.00000  Uiso   1.00
C615   C     0.89676   0.26972   0.55321   0.00000  Uiso   1.00
C616   C     0.90026   0.31530   0.52244   0.00000  Uiso   1.00
C617   C     0.90321   0.03450   0.56916   0.00000  Uiso   1.00
H618   H     0.87346   0.03528   0.59436   0.00000  Uiso   1.00
H619   H     0.90422   0.06735   0.54706   0.00000  Uiso   1.00
H620   H     0.93419   0.04076   0.60120   0.00000  Uiso   1.00
H621   H     0.92970   0.31544   0.49693   0.00000  Uiso   1.00
H622   H     0.86948   0.31144   0.49071   0.00000  Uiso   1.00
H623   H     0.86123   0.26271   0.55894   0.00000  Uiso   1.00
H624   H     0.91580   0.28240   0.59846   0.00000  Uiso   1.00
C625   C     0.60264   0.06039   0.47819   0.00000  Uiso   1.00
C626   C     0.59878   0.02364   0.41506   0.00000  Uiso   1.00
C627   C     0.58160   0.29958   0.41175   0.00000  Uiso   1.00
H628   H     0.60788   0.28116   0.43287   0.00000  Uiso   1.00
H629   H     0.55078   0.29577   0.43395   0.00000  Uiso   1.00
H630   H     0.57394   0.27745   0.36396   0.00000  Uiso   1.00
H631   H     0.57697   0.03803   0.38271   0.00000  Uiso   1.00
H632   H     0.63292   0.02286   0.40166   0.00000  Uiso   1.00
H633   H     0.63842   0.06593   0.49708   0.00000  Uiso   1.00
H634   H     0.58320   0.04095   0.50735   0.00000  Uiso   1.00
Br635  Br    0.85696   0.06511   0.42541   0.00000  Uiso   1.00
Br636  Br    0.64351   0.27190   0.54644   0.00000  Uiso   1.00
C637   C     0.69505   0.12615   0.64629   0.00000  Uiso   1.00
C638   C     0.67807   0.07651   0.66438   0.00000  Uiso   1.00
C639   C     0.63213   0.05441   0.62997   0.00000  Uiso   1.00
H640   H     0.60726   0.08244   0.64139   0.00000  Uiso   1.00
H641   H     0.63538   0.04643   0.58207   0.00000  Uiso   1.00
H642   H     0.62007   0.01631   0.63856   0.00000  Uiso   1.00
H643   H     0.70170   0.04674   0.65397   0.00000  Uiso   1.00
H644   H     0.67454   0.08446   0.37877   0.00000  Uiso   1.00
H645   H     0.66977   0.15432   0.65162   0.00000  Uiso   1.00
H646   H     0.69902   0.11039   0.59949   0.00000  Uiso   1.00
C647   C     0.80550   0.20518   0.35418   0.00000  Uiso   1.00
C648   C     0.82604   0.25441   0.33820   0.00000  Uiso   1.00
C649   C     0.87646   0.26361   0.35852   0.00000  Uiso   1.00
H650   H     0.88347   0.25986   0.40498   0.00000  Uiso   1.00
H651   H     0.89339   0.23338   0.66301   0.00000  Uiso   1.00
H652   H     0.89062   0.30338   0.35611   0.00000  Uiso   1.00
H653   H     0.82069   0.25101   0.62381   0.00000  Uiso   1.00
H654   H     0.81014   0.28907   0.36030   0.00000  Uiso   1.00
H655   H     0.80130   0.22192   0.40070   0.00000  Uiso   1.00
H656   H     0.82902   0.17494   0.34935   0.00000  Uiso   1.00
C657   C     0.24855   0.40009   0.48434   0.00000  Uiso   1.00
C658   C     0.25209   0.59997   0.51566   0.00000  Uiso   1.00
C659   C     0.00753   0.40579   0.45174   0.00000  Uiso   1.00
C660   C     0.49230   0.59571   0.54375   0.00000  Uiso   1.00
C661   C     0.24814   0.34382   0.47617   0.00000  Uiso   1.00
C662   C     0.25319   0.65634   0.52381   0.00000  Uiso   1.00
C663   C     0.16459   0.49509   0.49930   0.00000  Uiso   1.00
C664   C     0.33537   0.50338   0.50003   0.00000  Uiso   1.00
C665   C     0.41381   0.55272   0.52082   0.00000  Uiso   1.00
C666   C     0.08589   0.44704   0.48105   0.00000  Uiso   1.00
C667   C     0.38386   0.50547   0.49727   0.00000  Uiso   1.00
C668   C     0.11604   0.49445   0.49950   0.00000  Uiso   1.00
C669   C     0.39955   0.45937   0.46672   0.00000  Uiso   1.00
C670   C     0.10024   0.54306   0.51879   0.00000  Uiso   1.00
C671   C     0.44579   0.45710   0.46783   0.00000  Uiso   1.00
C672   C     0.05405   0.54577   0.51879   0.00000  Uiso   1.00
C673   C     0.47646   0.50278   0.49351   0.00000  Uiso   1.00
C674   C     0.02330   0.49983   0.49515   0.00000  Uiso   1.00
C675   C     0.46060   0.55099   0.51877   0.00000  Uiso   1.00
C676   C     0.03914   0.45056   0.47535   0.00000  Uiso   1.00
C677   C     0.46206   0.40927   0.44617   0.00000  Uiso   1.00
C678   C     0.03789   0.59335   0.54254   0.00000  Uiso   1.00
Cu679  Cu    0.25501   0.50579   0.56146   0.00000  Uiso   1.00
Cu680  Cu    0.24500   0.49421   0.43854   0.00000  Uiso   1.00
H681   H     0.44001   0.37319   0.42690   0.00000  Uiso   1.00
H682   H     0.06018   0.62932   0.56177   0.00000  Uiso   1.00
H683   H     0.01692   0.36721   0.43655   0.00000  Uiso   1.00
H684   H     0.48279   0.63333   0.56519   0.00000  Uiso   1.00
H685   H     0.24359   0.65270   0.43051   0.00000  Uiso   1.00
H686   H     0.25774   0.34747   0.56947   0.00000  Uiso   1.00
N687   N     0.23745   0.48547   0.34617   0.00000  Uiso   1.00
N688   N     0.26256   0.51453   0.65383   0.00000  Uiso   1.00
O689   O     0.25326   0.42871   0.53992   0.00000  Uiso   1.00
O690   O     0.24675   0.57129   0.46008   0.00000  Uiso   1.00
O691   O     0.24480   0.41892   0.43612   0.00000  Uiso   1.00
O692   O     0.25520   0.58108   0.56388   0.00000  Uiso   1.00
O693   O     0.18936   0.50488   0.55191   0.00000  Uiso   1.00
O694   O     0.31065   0.49512   0.44809   0.00000  Uiso   1.00
O695   O     0.18090   0.49510   0.44810   0.00000  Uiso   1.00
O696   O     0.31910   0.50490   0.55190   0.00000  Uiso   1.00
C697   C     0.39676   0.60305   0.55321   0.00000  Uiso   1.00
C698   C     0.40026   0.64864   0.52244   0.00000  Uiso   1.00
C699   C     0.40321   0.36784   0.56916   0.00000  Uiso   1.00
H700   H     0.37346   0.36861   0.59436   0.00000  Uiso   1.00
H701   H     0.40422   0.40068   0.54706   0.00000  Uiso   1.00
H702   H     0.43419   0.37410   0.60120   0.00000  Uiso   1.00
H703   H     0.42970   0.64878   0.49693   0.00000  Uiso   1.00
H704   H     0.36948   0.64477   0.49071   0.00000  Uiso   1.00
H705   H     0.36123   0.59605   0.55894   0.00000  Uiso   1.00
H706   H     0.41580   0.61574   0.59846   0.00000  Uiso   1.00
C707   C     0.10264   0.39372   0.47819   0.00000  Uiso   1.00
C708   C     0.09878   0.35697   0.41506   0.00000  Uiso   1.00
C709   C     0.08160   0.63291   0.41175   0.00000  Uiso   1.00
H710   H     0.10788   0.61449   0.43287   0.00000  Uiso   1.00
H711   H     0.05078   0.62911   0.43395   0.00000  Uiso   1.00
H712   H     0.07394   0.61079   0.36396   0.00000  Uiso   1.00
H713   H     0.07697   0.37136   0.38271   0.00000  Uiso   1.00
H714   H     0.13292   0.35620   0.40166   0.00000  Uiso   1.00
H715   H     0.13842   0.39927   0.49708   0.00000  Uiso   1.00
H716   H     0.08320   0.37429   0.50735   0.00000  Uiso   1.00
Br717  Br    0.35696   0.39845   0.42541   0.00000  Uiso   1.00
Br718  Br    0.14351   0.60523   0.54644   0.00000  Uiso   1.00
C719   C     0.19505   0.45948   0.64629   0.00000  Uiso   1.00
C720   C     0.17807   0.40985   0.66438   0.00000  Uiso   1.00
C721   C     0.13213   0.38774   0.62997   0.00000  Uiso   1.00
H722   H     0.10726   0.41578   0.64139   0.00000  Uiso   1.00
H723   H     0.13538   0.37976   0.58207   0.00000  Uiso   1.00
H724   H     0.12007   0.34965   0.63856   0.00000  Uiso   1.00
H725   H     0.20170   0.38008   0.65397   0.00000  Uiso   1.00
H726   H     0.17454   0.41779   0.37877   0.00000  Uiso   1.00
H727   H     0.16977   0.48765   0.65162   0.00000  Uiso   1.00
H728   H     0.19902   0.44372   0.59949   0.00000  Uiso   1.00
C729   C     0.30550   0.53851   0.35418   0.00000  Uiso   1.00
C730   C     0.32604   0.58775   0.33820   0.00000  Uiso   1.00
C731   C     0.37646   0.59695   0.35852   0.00000  Uiso   1.00
H732   H     0.38347   0.59319   0.40498   0.00000  Uiso   1.00
H733   H     0.39339   0.56671   0.66301   0.00000  Uiso   1.00
H734   H     0.39062   0.63671   0.35611   0.00000  Uiso   1.00
H735   H     0.32069   0.58434   0.62381   0.00000  Uiso   1.00
H736   H     0.31014   0.62240   0.36030   0.00000  Uiso   1.00
H737   H     0.30130   0.55525   0.40070   0.00000  Uiso   1.00
H738   H     0.32902   0.50828   0.34935   0.00000  Uiso   1.00
C739   C     0.74855   0.40009   0.48434   0.00000  Uiso   1.00
C740   C     0.75209   0.59997   0.51566   0.00000  Uiso   1.00
C741   C     0.50753   0.40579   0.45174   0.00000  Uiso   1.00
C742   C     0.99230   0.59571   0.54375   0.00000  Uiso   1.00
C743   C     0.74814   0.34382   0.47617   0.00000  Uiso   1.00
C744   C     0.75319   0.65634   0.52381   0.00000  Uiso   1.00
C745   C     0.66459   0.49509   0.49930   0.00000  Uiso   1.00
C746   C     0.83537   0.50338   0.50003   0.00000  Uiso   1.00
C747   C     0.91381   0.55272   0.52082   0.00000  Uiso   1.00
C748   C     0.58589   0.44704   0.48105   0.00000  Uiso   1.00
C749   C     0.88386   0.50547   0.49727   0.00000  Uiso   1.00
C750   C     0.61604   0.49445   0.49950   0.00000  Uiso   1.00
C751   C     0.89955   0.45937   0.46672   0.00000  Uiso   1.00
C752   C     0.60024   0.54306   0.51879   0.00000  Uiso   1.00
C753   C     0.94579   0.45710   0.46783   0.00000  Uiso   1.00
C754   C     0.55405   0.54577   0.51879   0.00000  Uiso   1.00
C755   C     0.97646   0.50278   0.49351   0.00000  Uiso   1.00
C756   C     0.52330   0.49983   0.49515   0.00000  Uiso   1.00
C757   C     0.96060   0.55099   0.51877   0.00000  Uiso   1.00
C758   C     0.53914   0.45056   0.47535   0.00000  Uiso   1.00
C759   C     0.96206   0.40927   0.44617   0.00000  Uiso   1.00
C760   C     0.53789   0.59335   0.54254   0.00000  Uiso   1.00
Cu761  Cu    0.75501   0.50579   0.56146   0.00000  Uiso   1.00
Cu762  Cu    0.74500   0.49421   0.43854   0.00000  Uiso   1.00
H763   H     0.94001   0.37319   0.42690   0.00000  Uiso   1.00
H764   H     0.56018   0.62932   0.56177   0.00000  Uiso   1.00
H765   H     0.51692   0.36721   0.43655   0.00000  Uiso   1.00
H766   H     0.98279   0.63333   0.56519   0.00000  Uiso   1.00
H767   H     0.74359   0.65270   0.43051   0.00000  Uiso   1.00
H768   H     0.75774   0.34747   0.56947   0.00000  Uiso   1.00
N769   N     0.73745   0.48547   0.34617   0.00000  Uiso   1.00
N770   N     0.76256   0.51453   0.65383   0.00000  Uiso   1.00
O771   O     0.75326   0.42871   0.53992   0.00000  Uiso   1.00
O772   O     0.74675   0.57129   0.46008   0.00000  Uiso   1.00
O773   O     0.74480   0.41892   0.43612   0.00000  Uiso   1.00
O774   O     0.75520   0.58108   0.56388   0.00000  Uiso   1.00
O775   O     0.68936   0.50488   0.55191   0.00000  Uiso   1.00
O776   O     0.81065   0.49512   0.44809   0.00000  Uiso   1.00
O777   O     0.68090   0.49510   0.44810   0.00000  Uiso   1.00
O778   O     0.81910   0.50490   0.55190   0.00000  Uiso   1.00
C779   C     0.89676   0.60305   0.55321   0.00000  Uiso   1.00
C780   C     0.90026   0.64864   0.52244   0.00000  Uiso   1.00
C781   C     0.90321   0.36784   0.56916   0.00000  Uiso   1.00
H782   H     0.87346   0.36861   0.59436   0.00000  Uiso   1.00
H783   H     0.90422   0.40068   0.54706   0.00000  Uiso   1.00
H784   H     0.93419   0.37410   0.60120   0.00000  Uiso   1.00
H785   H     0.92970   0.64878   0.49693   0.00000  Uiso   1.00
H786   H     0.86948   0.64477   0.49071   0.00000  Uiso   1.00
H787   H     0.86123   0.59605   0.55894   0.00000  Uiso   1.00
H788   H     0.91580   0.61574   0.59846   0.00000  Uiso   1.00
C789   C     0.60264   0.39372   0.47819   0.00000  Uiso   1.00
C790   C     0.59878   0.35697   0.41506   0.00000  Uiso   1.00
C791   C     0.58160   0.63291   0.41175   0.00000  Uiso   1.00
H792   H     0.60788   0.61449   0.43287   0.00000  Uiso   1.00
H793   H     0.55078   0.62911   0.43395   0.00000  Uiso   1.00
H794   H     0.57394   0.61079   0.36396   0.00000  Uiso   1.00
H795   H     0.57697   0.37136   0.38271   0.00000  Uiso   1.00
H796   H     0.63292   0.35620   0.40166   0.00000  Uiso   1.00
H797   H     0.63842   0.39927   0.49708   0.00000  Uiso   1.00
H798   H     0.58320   0.37429   0.50735   0.00000  Uiso   1.00
Br799  Br    0.85696   0.39845   0.42541   0.00000  Uiso   1.00
Br800  Br    0.64351   0.60523   0.54644   0.00000  Uiso   1.00
C801   C     0.69505   0.45948   0.64629   0.00000  Uiso   1.00
C802   C     0.67807   0.40985   0.66438   0.00000  Uiso   1.00
C803   C     0.63213   0.38774   0.62997   0.00000  Uiso   1.00
H804   H     0.60726   0.41578   0.64139   0.00000  Uiso   1.00
H805   H     0.63538   0.37976   0.58207   0.00000  Uiso   1.00
H806   H     0.62007   0.34965   0.63856   0.00000  Uiso   1.00
H807   H     0.70170   0.38008   0.65397   0.00000  Uiso   1.00
H808   H     0.67454   0.41779   0.37877   0.00000  Uiso   1.00
H809   H     0.66977   0.48765   0.65162   0.00000  Uiso   1.00
H810   H     0.69902   0.44372   0.59949   0.00000  Uiso   1.00
C811   C     0.80550   0.53851   0.35418   0.00000  Uiso   1.00
C812   C     0.82604   0.58775   0.33820   0.00000  Uiso   1.00
C813   C     0.87646   0.59695   0.35852   0.00000  Uiso   1.00
H814   H     0.88347   0.59319   0.40498   0.00000  Uiso   1.00
H815   H     0.89339   0.56671   0.66301   0.00000  Uiso   1.00
H816   H     0.89062   0.63671   0.35611   0.00000  Uiso   1.00
H817   H     0.82069   0.58434   0.62381   0.00000  Uiso   1.00
H818   H     0.81014   0.62240   0.36030   0.00000  Uiso   1.00
H819   H     0.80130   0.55525   0.40070   0.00000  Uiso   1.00
H820   H     0.82902   0.50828   0.34935   0.00000  Uiso   1.00
C821   C     0.24855   0.73343   0.48434   0.00000  Uiso   1.00
C822   C     0.25209   0.93330   0.51566   0.00000  Uiso   1.00
C823   C     0.00753   0.73913   0.45174   0.00000  Uiso   1.00
C824   C     0.49230   0.92904   0.54375   0.00000  Uiso   1.00
C825   C     0.24814   0.67716   0.47617   0.00000  Uiso   1.00
C826   C     0.25319   0.98967   0.52381   0.00000  Uiso   1.00
C827   C     0.16459   0.82842   0.49930   0.00000  Uiso   1.00
C828   C     0.33537   0.83671   0.50003   0.00000  Uiso   1.00
C829   C     0.41381   0.88605   0.52082   0.00000  Uiso   1.00
C830   C     0.08589   0.78037   0.48105   0.00000  Uiso   1.00
C831   C     0.38386   0.83881   0.49727   0.00000  Uiso   1.00
C832   C     0.11604   0.82778   0.49950   0.00000  Uiso   1.00
C833   C     0.39955   0.79270   0.46672   0.00000  Uiso   1.00
C834   C     0.10024   0.87639   0.51879   0.00000  Uiso   1.00
C835   C     0.44579   0.79044   0.46783   0.00000  Uiso   1.00
C836   C     0.05405   0.87910   0.51879   0.00000  Uiso   1.00
C837   C     0.47646   0.83611   0.49351   0.00000  Uiso   1.00
C838   C     0.02330   0.83317   0.49515   0.00000  Uiso   1.00
C839   C     0.46060   0.88433   0.51877   0.00000  Uiso   1.00
C840   C     0.03914   0.78389   0.47535   0.00000  Uiso   1.00
C841   C     0.46206   0.74261   0.44617   0.00000  Uiso   1.00
C842   C     0.03789   0.92669   0.54254   0.00000  Uiso   1.00
Cu843  Cu    0.25501   0.83913   0.56146   0.00000  Uiso   1.00
Cu844  Cu    0.24500   0.82754   0.43854   0.00000  Uiso   1.00
H845   H     0.44001   0.70652   0.42690   0.00000  Uiso   1.00
H846   H     0.06018   0.96265   0.56177   0.00000  Uiso   1.00
H847   H     0.01692   0.70054   0.43655   0.00000  Uiso   1.00
H848   H     0.48279   0.96666   0.56519   0.00000  Uiso   1.00
H849   H     0.24359   0.98603   0.43051   0.00000  Uiso   1.00
H850   H     0.25774   0.68080   0.56947   0.00000  Uiso   1.00
N851   N     0.23745   0.81881   0.34617   0.00000  Uiso   1.00
N852   N     0.26256   0.84786   0.65383   0.00000  Uiso   1.00
O853   O     0.25326   0.76204   0.53992   0.00000  Uiso   1.00
O854   O     0.24675   0.90462   0.46008   0.00000  Uiso   1.00
O855   O     0.24480   0.75226   0.43612   0.00000  Uiso   1.00
O856   O     0.25520   0.91441   0.56388   0.00000  Uiso   1.00
O857   O     0.18936   0.83821   0.55191   0.00000  Uiso   1.00
O858   O     0.31065   0.82845   0.44809   0.00000  Uiso   1.00
O859   O     0.18090   0.82843   0.44810   0.00000  Uiso   1.00
O860   O     0.31910   0.83824   0.55190   0.00000  Uiso   1.00
C861   C     0.39676   0.93639   0.55321   0.00000  Uiso   1.00
C862   C     0.40026   0.98197   0.52244   0.00000  Uiso   1.00
C863   C     0.40321   0.70117   0.56916   0.00000  Uiso   1.00
H864   H     0.37346   0.70194   0.59436   0.00000  Uiso   1.00
H865   H     0.40422   0.73402   0.54706   0.00000  Uiso   1.00
H866   H     0.43419   0.70743   0.60120   0.00000  Uiso   1.00
H867   H     0.42970   0.98211   0.49693   0.00000  Uiso   1.00
H868   H     0.36948   0.97810   0.49071   0.00000  Uiso   1.00
H869   H     0.36123   0.92938   0.55894   0.00000  Uiso   1.00
H870   H     0.41580   0.94907   0.59846   0.00000  Uiso   1.00
C871   C     0.10264   0.72705   0.47819   0.00000  Uiso   1.00
C872   C     0.09878   0.69031   0.41506   0.00000  Uiso   1.00
C873   C     0.08160   0.96624   0.41175   0.00000  Uiso   1.00
H874   H     0.10788   0.94782   0.43287   0.00000  Uiso   1.00
H875   H     0.05078   0.96244   0.43395   0.00000  Uiso   1.00
H876   H     0.07394   0.94412   0.36396   0.00000  Uiso   1.00
H877   H     0.07697   0.70469   0.38271   0.00000  Uiso   1.00
H878   H     0.13292   0.68953   0.40166   0.00000  Uiso   1.00
H879   H     0.13842   0.73260   0.49708   0.00000  Uiso   1.00
H880   H     0.08320   0.70762   0.50735   0.00000  Uiso   1.00
Br881  Br    0.35696   0.73178   0.42541   0.00000  Uiso   1.00
Br882  Br    0.14351   0.93856   0.54644   0.00000  Uiso   1.00
C883   C     0.19505   0.79282   0.64629   0.00000  Uiso   1.00
C884   C     0.17807   0.74318   0.66438   0.00000  Uiso   1.00
C885   C     0.13213   0.72108   0.62997   0.00000  Uiso   1.00
H886   H     0.10726   0.74911   0.64139   0.00000  Uiso   1.00
H887   H     0.13538   0.71310   0.58207   0.00000  Uiso   1.00
H888   H     0.12007   0.68298   0.63856   0.00000  Uiso   1.00
H889   H     0.20170   0.71341   0.65397   0.00000  Uiso   1.00
H890   H     0.17454   0.75112   0.37877   0.00000  Uiso   1.00
H891   H     0.16977   0.82099   0.65162   0.00000  Uiso   1.00
H892   H     0.19902   0.77706   0.59949   0.00000  Uiso   1.00
C893   C     0.30550   0.87185   0.35418   0.00000  Uiso   1.00
C894   C     0.32604   0.92108   0.33820   0.00000  Uiso   1.00
C895   C     0.37646   0.93028   0.35852   0.00000  Uiso   1.00
H896   H     0.38347   0.92652   0.40498   0.00000  Uiso   1.00
H897   H     0.39339   0.90005   0.66301   0.00000  Uiso   1.00
H898   H     0.39062   0.97004   0.35611   0.00000  Uiso   1.00
H899   H     0.32069   0.91768   0.62381   0.00000  Uiso   1.00
H900   H     0.31014   0.95573   0.36030   0.00000  Uiso   1.00
H901   H     0.30130   0.88858   0.40070   0.00000  Uiso   1.00
H902   H     0.32902   0.84161   0.34935   0.00000  Uiso   1.00
C903   C     0.74855   0.73343   0.48434   0.00000  Uiso   1.00
C904   C     0.75209   0.93330   0.51566   0.00000  Uiso   1.00
C905   C     0.50753   0.73913   0.45174   0.00000  Uiso   1.00
C906   C     0.99230   0.92904   0.54375   0.00000  Uiso   1.00
C907   C     0.74814   0.67716   0.47617   0.00000  Uiso   1.00
C908   C     0.75319   0.98967   0.52381   0.00000  Uiso   1.00
C909   C     0.66459   0.82842   0.49930   0.00000  Uiso   1.00
C910   C     0.83537   0.83671   0.50003   0.00000  Uiso   1.00
C911   C     0.91381   0.88605   0.52082   0.00000  Uiso   1.00
C912   C     0.58589   0.78037   0.48105   0.00000  Uiso   1.00
C913   C     0.88386   0.83881   0.49727   0.00000  Uiso   1.00
C914   C     0.61604   0.82778   0.49950   0.00000  Uiso   1.00
C915   C     0.89955   0.79270   0.46672   0.00000  Uiso   1.00
C916   C     0.60024   0.87639   0.51879   0.00000  Uiso   1.00
C917   C     0.94579   0.79044   0.46783   0.00000  Uiso   1.00
C918   C     0.55405   0.87910   0.51879   0.00000  Uiso   1.00
C919   C     0.97646   0.83611   0.49351   0.00000  Uiso   1.00
C920   C     0.52330   0.83317   0.49515   0.00000  Uiso   1.00
C921   C     0.96060   0.88433   0.51877   0.00000  Uiso   1.00
C922   C     0.53914   0.78389   0.47535   0.00000  Uiso   1.00
C923   C     0.96206   0.74261   0.44617   0.00000  Uiso   1.00
C924   C     0.53789   0.92669   0.54254   0.00000  Uiso   1.00
Cu925  Cu    0.75501   0.83913   0.56146   0.00000  Uiso   1.00
Cu926  Cu    0.74500   0.82754   0.43854   0.00000  Uiso   1.00
H927   H     0.94001   0.70652   0.42690   0.00000  Uiso   1.00
H928   H     0.56018   0.96265   0.56177   0.00000  Uiso   1.00
H929   H     0.51692   0.70054   0.43655   0.00000  Uiso   1.00
H930   H     0.98279   0.96666   0.56519   0.00000  Uiso   1.00
H931   H     0.74359   0.98603   0.43051   0.00000  Uiso   1.00
H932   H     0.75774   0.68080   0.56947   0.00000  Uiso   1.00
N933   N     0.73745   0.81881   0.34617   0.00000  Uiso   1.00
N934   N     0.76256   0.84786   0.65383   0.00000  Uiso   1.00
O935   O     0.75326   0.76204   0.53992   0.00000  Uiso   1.00
O936   O     0.74675   0.90462   0.46008   0.00000  Uiso   1.00
O937   O     0.74480   0.75226   0.43612   0.00000  Uiso   1.00
O938   O     0.75520   0.91441   0.56388   0.00000  Uiso   1.00
O939   O     0.68936   0.83821   0.55191   0.00000  Uiso   1.00
O940   O     0.81065   0.82845   0.44809   0.00000  Uiso   1.00
O941   O     0.68090   0.82843   0.44810   0.00000  Uiso   1.00
O942   O     0.81910   0.83824   0.55190   0.00000  Uiso   1.00
C943   C     0.89676   0.93639   0.55321   0.00000  Uiso   1.00
C944   C     0.90026   0.98197   0.52244   0.00000  Uiso   1.00
C945   C     0.90321   0.70117   0.56916   0.00000  Uiso   1.00
H946   H     0.87346   0.70194   0.59436   0.00000  Uiso   1.00
H947   H     0.90422   0.73402   0.54706   0.00000  Uiso   1.00
H948   H     0.93419   0.70743   0.60120   0.00000  Uiso   1.00
H949   H     0.92970   0.98211   0.49693   0.00000  Uiso   1.00
H950   H     0.86948   0.97810   0.49071   0.00000  Uiso   1.00
H951   H     0.86123   0.92938   0.55894   0.00000  Uiso   1.00
H952   H     0.91580   0.94907   0.59846   0.00000  Uiso   1.00
C953   C     0.60264   0.72705   0.47819   0.00000  Uiso   1.00
C954   C     0.59878   0.69031   0.41506   0.00000  Uiso   1.00
C955   C     0.58160   0.96624   0.41175   0.00000  Uiso   1.00
H956   H     0.60788   0.94782   0.43287   0.00000  Uiso   1.00
H957   H     0.55078   0.96244   0.43395   0.00000  Uiso   1.00
H958   H     0.57394   0.94412   0.36396   0.00000  Uiso   1.00
H959   H     0.57697   0.70469   0.38271   0.00000  Uiso   1.00
H960   H     0.63292   0.68953   0.40166   0.00000  Uiso   1.00
H961   H     0.63842   0.73260   0.49708   0.00000  Uiso   1.00
H962   H     0.58320   0.70762   0.50735   0.00000  Uiso   1.00
Br963  Br    0.85696   0.73178   0.42541   0.00000  Uiso   1.00
Br964  Br    0.64351   0.93856   0.54644   0.00000  Uiso   1.00
C965   C     0.69505   0.79282   0.64629   0.00000  Uiso   1.00
C966   C     0.67807   0.74318   0.66438   0.00000  Uiso   1.00
C967   C     0.63213   0.72108   0.62997   0.00000  Uiso   1.00
H968   H     0.60726   0.74911   0.64139   0.00000  Uiso   1.00
H969   H     0.63538   0.71310   0.58207   0.00000  Uiso   1.00
H970   H     0.62007   0.68298   0.63856   0.00000  Uiso   1.00
H971   H     0.70170   0.71341   0.65397   0.00000  Uiso   1.00
H972   H     0.67454   0.75112   0.37877   0.00000  Uiso   1.00
H973   H     0.66977   0.82099   0.65162   0.00000  Uiso   1.00
H974   H     0.69902   0.77706   0.59949   0.00000  Uiso   1.00
C975   C     0.80550   0.87185   0.35418   0.00000  Uiso   1.00
C976   C     0.82604   0.92108   0.33820   0.00000  Uiso   1.00
C977   C     0.87646   0.93028   0.35852   0.00000  Uiso   1.00
H978   H     0.88347   0.92652   0.40498   0.00000  Uiso   1.00
H979   H     0.89339   0.90005   0.66301   0.00000  Uiso   1.00
H980   H     0.89062   0.97004   0.35611   0.00000  Uiso   1.00
H981   H     0.82069   0.91768   0.62381   0.00000  Uiso   1.00
H982   H     0.81014   0.95573   0.36030   0.00000  Uiso   1.00
H983   H     0.80130   0.88858   0.40070   0.00000  Uiso   1.00
H984   H     0.82902   0.84161   0.34935   0.00000  Uiso   1.00
C985   C     0.24855   0.06676   0.81767   0.00000  Uiso   1.00
C986   C     0.25209   0.26664   0.84899   0.00000  Uiso   1.00
C987   C     0.00753   0.07246   0.78507   0.00000  Uiso   1.00
C988   C     0.49230   0.26237   0.87708   0.00000  Uiso   1.00
C989   C     0.24814   0.01049   0.80950   0.00000  Uiso   1.00
C990   C     0.25319   0.32300   0.85714   0.00000  Uiso   1.00
C991   C     0.16459   0.16175   0.83263   0.00000  Uiso   1.00
C992   C     0.33537   0.17005   0.83336   0.00000  Uiso   1.00
C993   C     0.41381   0.21939   0.85416   0.00000  Uiso   1.00
C994   C     0.08589   0.11370   0.81439   0.00000  Uiso   1.00
C995   C     0.38386   0.17214   0.83061   0.00000  Uiso   1.00
C996   C     0.11604   0.16112   0.83284   0.00000  Uiso   1.00
C997   C     0.39955   0.12603   0.80006   0.00000  Uiso   1.00
C998   C     0.10024   0.20972   0.85213   0.00000  Uiso   1.00
C999   C     0.44579   0.12377   0.80116   0.00000  Uiso   1.00
C1000  C     0.05405   0.21244   0.85213   0.00000  Uiso   1.00
C1001  C     0.47646   0.16945   0.82685   0.00000  Uiso   1.00
C1002  C     0.02330   0.16650   0.82848   0.00000  Uiso   1.00
C1003  C     0.46060   0.21766   0.85210   0.00000  Uiso   1.00
C1004  C     0.03914   0.11723   0.80869   0.00000  Uiso   1.00
C1005  C     0.46206   0.07594   0.77950   0.00000  Uiso   1.00
C1006  C     0.03789   0.26002   0.87587   0.00000  Uiso   1.00
Cu1007 Cu    0.25501   0.17246   0.89479   0.00000  Uiso   1.00
Cu1008 Cu    0.24500   0.16087   0.77187   0.00000  Uiso   1.00
H1009  H     0.44001   0.03986   0.76023   0.00000  Uiso   1.00
H1010  H     0.06018   0.29598   0.89511   0.00000  Uiso   1.00
H1011  H     0.01692   0.03388   0.76988   0.00000  Uiso   1.00
H1012  H     0.48279   0.29999   0.89853   0.00000  Uiso   1.00
H1013  H     0.24359   0.31936   0.76384   0.00000  Uiso   1.00
H1014  H     0.25774   0.01413   0.90280   0.00000  Uiso   1.00
N1015  N     0.23745   0.15214   0.67951   0.00000  Uiso   1.00
N1016  N     0.26256   0.18119   0.98716   0.00000  Uiso   1.00
O1017  O     0.25326   0.09538   0.87326   0.00000  Uiso   1.00
O1018  O     0.24675   0.23796   0.79341   0.00000  Uiso   1.00
O1019  O     0.24480   0.08559   0.76945   0.00000  Uiso   1.00
O1020  O     0.25520   0.24774   0.89721   0.00000  Uiso   1.00
O1021  O     0.18936   0.17155   0.88524   0.00000  Uiso   1.00
O1022  O     0.31065   0.16179   0.78143   0.00000  Uiso   1.00
O1023  O     0.18090   0.16176   0.78143   0.00000  Uiso   1.00
O1024  O     0.31910   0.17157   0.88523   0.00000  Uiso   1.00
C1025  C     0.39676   0.26972   0.88654   0.00000  Uiso   1.00
C1026  C     0.40026   0.31530   0.85577   0.00000  Uiso   1.00
C1027  C     0.40321   0.03450   0.90250   0.00000  Uiso   1.00
H1028  H     0.37346   0.03528   0.92769   0.00000  Uiso   1.00
H1029  H     0.40422   0.06735   0.88039   0.00000  Uiso   1.00
H1030  H     0.43419   0.04076   0.93453   0.00000  Uiso   1.00
H1031  H     0.42970   0.31544   0.83026   0.00000  Uiso   1.00
H1032  H     0.36948   0.31144   0.82404   0.00000  Uiso   1.00
H1033  H     0.36123   0.26271   0.89228   0.00000  Uiso   1.00
H1034  H     0.41580   0.28240   0.93180   0.00000  Uiso   1.00
C1035  C     0.10264   0.06039   0.81152   0.00000  Uiso   1.00
C1036  C     0.09878   0.02364   0.74840   0.00000  Uiso   1.00
C1037  C     0.08160   0.29958   0.74508   0.00000  Uiso   1.00
H1038  H     0.10788   0.28116   0.76620   0.00000  Uiso   1.00
H1039  H     0.05078   0.29577   0.76728   0.00000  Uiso   1.00
H1040  H     0.07394   0.27745   0.69729   0.00000  Uiso   1.00
H1041  H     0.07697   0.03803   0.71604   0.00000  Uiso   1.00
H1042  H     0.13292   0.02286   0.73499   0.00000  Uiso   1.00
H1043  H     0.13842   0.06593   0.83042   0.00000  Uiso   1.00
H1044  H     0.08320   0.04095   0.84068   0.00000  Uiso   1.00
Br1045 Br    0.35696   0.06511   0.75874   0.00000  Uiso   1.00
Br1046 Br    0.14351   0.27190   0.87977   0.00000  Uiso   1.00
C1047  C     0.19505   0.12615   0.97963   0.00000  Uiso   1.00
C1048  C     0.17807   0.07651   0.99772   0.00000  Uiso   1.00
C1049  C     0.13213   0.05441   0.96330   0.00000  Uiso   1.00
H1050  H     0.10726   0.08244   0.97473   0.00000  Uiso   1.00
H1051  H     0.13538   0.04643   0.91540   0.00000  Uiso   1.00
H1052  H     0.12007   0.01631   0.97189   0.00000  Uiso   1.00
H1053  H     0.20170   0.04674   0.98730   0.00000  Uiso   1.00
H1054  H     0.17454   0.08446   0.71210   0.00000  Uiso   1.00
H1055  H     0.16977   0.15432   0.98495   0.00000  Uiso   1.00
H1056  H     0.19902   0.11039   0.93282   0.00000  Uiso   1.00
C1057  C     0.30550   0.20518   0.68751   0.00000  Uiso   1.00
C1058  C     0.32604   0.25441   0.67154   0.00000  Uiso   1.00
C1059  C     0.37646   0.26361   0.69186   0.00000  Uiso   1.00
H1060  H     0.38347   0.25986   0.73831   0.00000  Uiso   1.00
H1061  H     0.39339   0.23338   0.99634   0.00000  Uiso   1.00
H1062  H     0.39062   0.30338   0.68944   0.00000  Uiso   1.00
H1063  H     0.32069   0.25101   0.95715   0.00000  Uiso   1.00
H1064  H     0.31014   0.28907   0.69364   0.00000  Uiso   1.00
H1065  H     0.30130   0.22192   0.73403   0.00000  Uiso   1.00
H1066  H     0.32902   0.17494   0.68268   0.00000  Uiso   1.00
C1067  C     0.74855   0.06676   0.81767   0.00000  Uiso   1.00
C1068  C     0.75209   0.26664   0.84899   0.00000  Uiso   1.00
C1069  C     0.50753   0.07246   0.78507   0.00000  Uiso   1.00
C1070  C     0.99230   0.26237   0.87708   0.00000  Uiso   1.00
C1071  C     0.74814   0.01049   0.80950   0.00000  Uiso   1.00
C1072  C     0.75319   0.32300   0.85714   0.00000  Uiso   1.00
C1073  C     0.66459   0.16175   0.83263   0.00000  Uiso   1.00
C1074  C     0.83537   0.17005   0.83336   0.00000  Uiso   1.00
C1075  C     0.91381   0.21939   0.85416   0.00000  Uiso   1.00
C1076  C     0.58589   0.11370   0.81439   0.00000  Uiso   1.00
C1077  C     0.88386   0.17214   0.83061   0.00000  Uiso   1.00
C1078  C     0.61604   0.16112   0.83284   0.00000  Uiso   1.00
C1079  C     0.89955   0.12603   0.80006   0.00000  Uiso   1.00
C1080  C     0.60024   0.20972   0.85213   0.00000  Uiso   1.00
C1081  C     0.94579   0.12377   0.80116   0.00000  Uiso   1.00
C1082  C     0.55405   0.21244   0.85213   0.00000  Uiso   1.00
C1083  C     0.97646   0.16945   0.82685   0.00000  Uiso   1.00
C1084  C     0.52330   0.16650   0.82848   0.00000  Uiso   1.00
C1085  C     0.96060   0.21766   0.85210   0.00000  Uiso   1.00
C1086  C     0.53914   0.11723   0.80869   0.00000  Uiso   1.00
C1087  C     0.96206   0.07594   0.77950   0.00000  Uiso   1.00
C1088  C     0.53789   0.26002   0.87587   0.00000  Uiso   1.00
Cu1089 Cu    0.75501   0.17246   0.89479   0.00000  Uiso   1.00
Cu1090 Cu    0.74500   0.16087   0.77187   0.00000  Uiso   1.00
H1091  H     0.94001   0.03986   0.76023   0.00000  Uiso   1.00
H1092  H     0.56018   0.29598   0.89511   0.00000  Uiso   1.00
H1093  H     0.51692   0.03388   0.76988   0.00000  Uiso   1.00
H1094  H     0.98279   0.29999   0.89853   0.00000  Uiso   1.00
H1095  H     0.74359   0.31936   0.76384   0.00000  Uiso   1.00
H1096  H     0.75774   0.01413   0.90280   0.00000  Uiso   1.00
N1097  N     0.73745   0.15214   0.67951   0.00000  Uiso   1.00
N1098  N     0.76256   0.18119   0.98716   0.00000  Uiso   1.00
O1099  O     0.75326   0.09538   0.87326   0.00000  Uiso   1.00
O1100  O     0.74675   0.23796   0.79341   0.00000  Uiso   1.00
O1101  O     0.74480   0.08559   0.76945   0.00000  Uiso   1.00
O1102  O     0.75520   0.24774   0.89721   0.00000  Uiso   1.00
O1103  O     0.68936   0.17155   0.88524   0.00000  Uiso   1.00
O1104  O     0.81065   0.16179   0.78143   0.00000  Uiso   1.00
O1105  O     0.68090   0.16176   0.78143   0.00000  Uiso   1.00
O1106  O     0.81910   0.17157   0.88523   0.00000  Uiso   1.00
C1107  C     0.89676   0.26972   0.88654   0.00000  Uiso   1.00
C1108  C     0.90026   0.31530   0.85577   0.00000  Uiso   1.00
C1109  C     0.90321   0.03450   0.90250   0.00000  Uiso   1.00
H1110  H     0.87346   0.03528   0.92769   0.00000  Uiso   1.00
H1111  H     0.90422   0.06735   0.88039   0.00000  Uiso   1.00
H1112  H     0.93419   0.04076   0.93453   0.00000  Uiso   1.00
H1113  H     0.92970   0.31544   0.83026   0.00000  Uiso   1.00
H1114  H     0.86948   0.31144   0.82404   0.00000  Uiso   1.00
H1115  H     0.86123   0.26271   0.89228   0.00000  Uiso   1.00
H1116  H     0.91580   0.28240   0.93180   0.00000  Uiso   1.00
C1117  C     0.60264   0.06039   0.81152   0.00000  Uiso   1.00
C1118  C     0.59878   0.02364   0.74840   0.00000  Uiso   1.00
C1119  C     0.58160   0.29958   0.74508   0.00000  Uiso   1.00
H1120  H     0.60788   0.28116   0.76620   0.00000  Uiso   1.00
H1121  H     0.55078   0.29577   0.76728   0.00000  Uiso   1.00
H1122  H     0.57394   0.27745   0.69729   0.00000  Uiso   1.00
H1123  H     0.57697   0.03803   0.71604   0.00000  Uiso   1.00
H1124  H     0.63292   0.02286   0.73499   0.00000  Uiso   1.00
H1125  H     0.63842   0.06593   0.83042   0.00000  Uiso   1.00
H1126  H     0.58320   0.04095   0.84068   0.00000  Uiso   1.00
Br1127 Br    0.85696   0.06511   0.75874   0.00000  Uiso   1.00
Br1128 Br    0.64351   0.27190   0.87977   0.00000  Uiso   1.00
C1129  C     0.69505   0.12615   0.97963   0.00000  Uiso   1.00
C1130  C     0.67807   0.07651   0.99772   0.00000  Uiso   1.00
C1131  C     0.63213   0.05441   0.96330   0.00000  Uiso   1.00
H1132  H     0.60726   0.08244   0.97473   0.00000  Uiso   1.00
H1133  H     0.63538   0.04643   0.91540   0.00000  Uiso   1.00
H1134  H     0.62007   0.01631   0.97189   0.00000  Uiso   1.00
H1135  H     0.70170   0.04674   0.98730   0.00000  Uiso   1.00
H1136  H     0.67454   0.08446   0.71210   0.00000  Uiso   1.00
H1137  H     0.66977   0.15432   0.98495   0.00000  Uiso   1.00
H1138  H     0.69902   0.11039   0.93282   0.00000  Uiso   1.00
C1139  C     0.80550   0.20518   0.68751   0.00000  Uiso   1.00
C1140  C     0.82604   0.25441   0.67154   0.00000  Uiso   1.00
C1141  C     0.87646   0.26361   0.69186   0.00000  Uiso   1.00
H1142  H     0.88347   0.25986   0.73831   0.00000  Uiso   1.00
H1143  H     0.89339   0.23338   0.99634   0.00000  Uiso   1.00
H1144  H     0.89062   0.30338   0.68944   0.00000  Uiso   1.00
H1145  H     0.82069   0.25101   0.95715   0.00000  Uiso   1.00
H1146  H     0.81014   0.28907   0.69364   0.00000  Uiso   1.00
H1147  H     0.80130   0.22192   0.73403   0.00000  Uiso   1.00
H1148  H     0.82902   0.17494   0.68268   0.00000  Uiso   1.00
C1149  C     0.24855   0.40009   0.81767   0.00000  Uiso   1.00
C1150  C     0.25209   0.59997   0.84899   0.00000  Uiso   1.00
C1151  C     0.00753   0.40579   0.78507   0.00000  Uiso   1.00
C1152  C     0.49230   0.59571   0.87708   0.00000  Uiso   1.00
C1153  C     0.24814   0.34382   0.80950   0.00000  Uiso   1.00
C1154  C     0.25319   0.65634   0.85714   0.00000  Uiso   1.00
C1155  C     0.16459   0.49509   0.83263   0.00000  Uiso   1.00
C1156  C     0.33537   0.50338   0.83336   0.00000  Uiso   1.00
C1157  C     0.41381   0.55272   0.85416   0.00000  Uiso   1.00
C1158  C     0.08589   0.44704   0.81439   0.00000  Uiso   1.00
C1159  C     0.38386   0.50547   0.83061   0.00000  Uiso   1.00
C1160  C     0.11604   0.49445   0.83284   0.00000  Uiso   1.00
C1161  C     0.39955   0.45937   0.80006   0.00000  Uiso   1.00
C1162  C     0.10024   0.54306   0.85213   0.00000  Uiso   1.00
C1163  C     0.44579   0.45710   0.80116   0.00000  Uiso   1.00
C1164  C     0.05405   0.54577   0.85213   0.00000  Uiso   1.00
C1165  C     0.47646   0.50278   0.82685   0.00000  Uiso   1.00
C1166  C     0.02330   0.49983   0.82848   0.00000  Uiso   1.00
C1167  C     0.46060   0.55099   0.85210   0.00000  Uiso   1.00
C1168  C     0.03914   0.45056   0.80869   0.00000  Uiso   1.00
C1169  C     0.46206   0.40927   0.77950   0.00000  Uiso   1.00
C1170  C     0.03789   0.59335   0.87587   0.00000  Uiso   1.00
Cu1171 Cu    0.25501   0.50579   0.89479   0.00000  Uiso   1.00
Cu1172 Cu    0.24500   0.49421   0.77187   0.00000  Uiso   1.00
H1173  H     0.44001   0.37319   0.76023   0.00000  Uiso   1.00
H1174  H     0.06018   0.62932   0.89511   0.00000  Uiso   1.00
H1175  H     0.01692   0.36721   0.76988   0.00000  Uiso   1.00
H1176  H     0.48279   0.63333   0.89853   0.00000  Uiso   1.00
H1177  H     0.24359   0.65270   0.76384   0.00000  Uiso   1.00
H1178  H     0.25774   0.34747   0.90280   0.00000  Uiso   1.00
N1179  N     0.23745   0.48547   0.67951   0.00000  Uiso   1.00
N1180  N     0.26256   0.51453   0.98716   0.00000  Uiso   1.00
O1181  O     0.25326   0.42871   0.87326   0.00000  Uiso   1.00
O1182  O     0.24675   0.57129   0.79341   0.00000  Uiso   1.00
O1183  O     0.24480   0.41892   0.76945   0.00000  Uiso   1.00
O1184  O     0.25520   0.58108   0.89721   0.00000  Uiso   1.00
O1185  O     0.18936   0.50488   0.88524   0.00000  Uiso   1.00
O1186  O     0.31065   0.49512   0.78143   0.00000  Uiso   1.00
O1187  O     0.18090   0.49510   0.78143   0.00000  Uiso   1.00
O1188  O     0.31910   0.50490   0.88523   0.00000  Uiso   1.00
C1189  C     0.39676   0.60305   0.88654   0.00000  Uiso   1.00
C1190  C     0.40026   0.64864   0.85577   0.00000  Uiso   1.00
C1191  C     0.40321   0.36784   0.90250   0.00000  Uiso   1.00
H1192  H     0.37346   0.36861   0.92769   0.00000  Uiso   1.00
H1193  H     0.40422   0.40068   0.88039   0.00000  Uiso   1.00
H1194  H     0.43419   0.37410   0.93453   0.00000  Uiso   1.00
H1195  H     0.42970   0.64878   0.83026   0.00000  Uiso   1.00
H1196  H     0.36948   0.64477   0.82404   0.00000  Uiso   1.00
H1197  H     0.36123   0.59605   0.89228   0.00000  Uiso   1.00
H1198  H     0.41580   0.61574   0.93180   0.00000  Uiso   1.00
C1199  C     0.10264   0.39372   0.81152   0.00000  Uiso   1.00
C1200  C     0.09878   0.35697   0.74840   0.00000  Uiso   1.00
C1201  C     0.08160   0.63291   0.74508   0.00000  Uiso   1.00
H1202  H     0.10788   0.61449   0.76620   0.00000  Uiso   1.00
H1203  H     0.05078   0.62911   0.76728   0.00000  Uiso   1.00
H1204  H     0.07394   0.61079   0.69729   0.00000  Uiso   1.00
H1205  H     0.07697   0.37136   0.71604   0.00000  Uiso   1.00
H1206  H     0.13292   0.35620   0.73499   0.00000  Uiso   1.00
H1207  H     0.13842   0.39927   0.83042   0.00000  Uiso   1.00
H1208  H     0.08320   0.37429   0.84068   0.00000  Uiso   1.00
Br1209 Br    0.35696   0.39845   0.75874   0.00000  Uiso   1.00
Br1210 Br    0.14351   0.60523   0.87977   0.00000  Uiso   1.00
C1211  C     0.19505   0.45948   0.97963   0.00000  Uiso   1.00
C1212  C     0.17807   0.40985   0.99772   0.00000  Uiso   1.00
C1213  C     0.13213   0.38774   0.96330   0.00000  Uiso   1.00
H1214  H     0.10726   0.41578   0.97473   0.00000  Uiso   1.00
H1215  H     0.13538   0.37976   0.91540   0.00000  Uiso   1.00
H1216  H     0.12007   0.34965   0.97189   0.00000  Uiso   1.00
H1217  H     0.20170   0.38008   0.98730   0.00000  Uiso   1.00
H1218  H     0.17454   0.41779   0.71210   0.00000  Uiso   1.00
H1219  H     0.16977   0.48765   0.98495   0.00000  Uiso   1.00
H1220  H     0.19902   0.44372   0.93282   0.00000  Uiso   1.00
C1221  C     0.30550   0.53851   0.68751   0.00000  Uiso   1.00
C1222  C     0.32604   0.58775   0.67154   0.00000  Uiso   1.00
C1223  C     0.37646   0.59695   0.69186   0.00000  Uiso   1.00
H1224  H     0.38347   0.59319   0.73831   0.00000  Uiso   1.00
H1225  H     0.39339   0.56671   0.99634   0.00000  Uiso   1.00
H1226  H     0.39062   0.63671   0.68944   0.00000  Uiso   1.00
H1227  H     0.32069   0.58434   0.95715   0.00000  Uiso   1.00
H1228  H     0.31014   0.62240   0.69364   0.00000  Uiso   1.00
H1229  H     0.30130   0.55525   0.73403   0.00000  Uiso   1.00
H1230  H     0.32902   0.50828   0.68268   0.00000  Uiso   1.00
C1231  C     0.74855   0.40009   0.81767   0.00000  Uiso   1.00
C1232  C     0.75209   0.59997   0.84899   0.00000  Uiso   1.00
C1233  C     0.50753   0.40579   0.78507   0.00000  Uiso   1.00
C1234  C     0.99230   0.59571   0.87708   0.00000  Uiso   1.00
C1235  C     0.74814   0.34382   0.80950   0.00000  Uiso   1.00
C1236  C     0.75319   0.65634   0.85714   0.00000  Uiso   1.00
C1237  C     0.66459   0.49509   0.83263   0.00000  Uiso   1.00
C1238  C     0.83537   0.50338   0.83336   0.00000  Uiso   1.00
C1239  C     0.91381   0.55272   0.85416   0.00000  Uiso   1.00
C1240  C     0.58589   0.44704   0.81439   0.00000  Uiso   1.00
C1241  C     0.88386   0.50547   0.83061   0.00000  Uiso   1.00
C1242  C     0.61604   0.49445   0.83284   0.00000  Uiso   1.00
C1243  C     0.89955   0.45937   0.80006   0.00000  Uiso   1.00
C1244  C     0.60024   0.54306   0.85213   0.00000  Uiso   1.00
C1245  C     0.94579   0.45710   0.80116   0.00000  Uiso   1.00
C1246  C     0.55405   0.54577   0.85213   0.00000  Uiso   1.00
C1247  C     0.97646   0.50278   0.82685   0.00000  Uiso   1.00
C1248  C     0.52330   0.49983   0.82848   0.00000  Uiso   1.00
C1249  C     0.96060   0.55099   0.85210   0.00000  Uiso   1.00
C1250  C     0.53914   0.45056   0.80869   0.00000  Uiso   1.00
C1251  C     0.96206   0.40927   0.77950   0.00000  Uiso   1.00
C1252  C     0.53789   0.59335   0.87587   0.00000  Uiso   1.00
Cu1253 Cu    0.75501   0.50579   0.89479   0.00000  Uiso   1.00
Cu1254 Cu    0.74500   0.49421   0.77187   0.00000  Uiso   1.00
H1255  H     0.94001   0.37319   0.76023   0.00000  Uiso   1.00
H1256  H     0.56018   0.62932   0.89511   0.00000  Uiso   1.00
H1257  H     0.51692   0.36721   0.76988   0.00000  Uiso   1.00
H1258  H     0.98279   0.63333   0.89853   0.00000  Uiso   1.00
H1259  H     0.74359   0.65270   0.76384   0.00000  Uiso   1.00
H1260  H     0.75774   0.34747   0.90280   0.00000  Uiso   1.00
N1261  N     0.73745   0.48547   0.67951   0.00000  Uiso   1.00
N1262  N     0.76256   0.51453   0.98716   0.00000  Uiso   1.00
O1263  O     0.75326   0.42871   0.87326   0.00000  Uiso   1.00
O1264  O     0.74675   0.57129   0.79341   0.00000  Uiso   1.00
O1265  O     0.74480   0.41892   0.76945   0.00000  Uiso   1.00
O1266  O     0.75520   0.58108   0.89721   0.00000  Uiso   1.00
O1267  O     0.68936   0.50488   0.88524   0.00000  Uiso   1.00
O1268  O     0.81065   0.49512   0.78143   0.00000  Uiso   1.00
O1269  O     0.68090   0.49510   0.78143   0.00000  Uiso   1.00
O1270  O     0.81910   0.50490   0.88523   0.00000  Uiso   1.00
C1271  C     0.89676   0.60305   0.88654   0.00000  Uiso   1.00
C1272  C     0.90026   0.64864   0.85577   0.00000  Uiso   1.00
C1273  C     0.90321   0.36784   0.90250   0.00000  Uiso   1.00
H1274  H     0.87346   0.36861   0.92769   0.00000  Uiso   1.00
H1275  H     0.90422   0.40068   0.88039   0.00000  Uiso   1.00
H1276  H     0.93419   0.37410   0.93453   0.00000  Uiso   1.00
H1277  H     0.92970   0.64878   0.83026   0.00000  Uiso   1.00
H1278  H     0.86948   0.64477   0.82404   0.00000  Uiso   1.00
H1279  H     0.86123   0.59605   0.89228   0.00000  Uiso   1.00
H1280  H     0.91580   0.61574   0.93180   0.00000  Uiso   1.00
C1281  C     0.60264   0.39372   0.81152   0.00000  Uiso   1.00
C1282  C     0.59878   0.35697   0.74840   0.00000  Uiso   1.00
C1283  C     0.58160   0.63291   0.74508   0.00000  Uiso   1.00
H1284  H     0.60788   0.61449   0.76620   0.00000  Uiso   1.00
H1285  H     0.55078   0.62911   0.76728   0.00000  Uiso   1.00
H1286  H     0.57394   0.61079   0.69729   0.00000  Uiso   1.00
H1287  H     0.57697   0.37136   0.71604   0.00000  Uiso   1.00
H1288  H     0.63292   0.35620   0.73499   0.00000  Uiso   1.00
H1289  H     0.63842   0.39927   0.83042   0.00000  Uiso   1.00
H1290  H     0.58320   0.37429   0.84068   0.00000  Uiso   1.00
Br1291 Br    0.85696   0.39845   0.75874   0.00000  Uiso   1.00
Br1292 Br    0.64351   0.60523   0.87977   0.00000  Uiso   1.00
C1293  C     0.69505   0.45948   0.97963   0.00000  Uiso   1.00
C1294  C     0.67807   0.40985   0.99772   0.00000  Uiso   1.00
C1295  C     0.63213   0.38774   0.96330   0.00000  Uiso   1.00
H1296  H     0.60726   0.41578   0.97473   0.00000  Uiso   1.00
H1297  H     0.63538   0.37976   0.91540   0.00000  Uiso   1.00
H1298  H     0.62007   0.34965   0.97189   0.00000  Uiso   1.00
H1299  H     0.70170   0.38008   0.98730   0.00000  Uiso   1.00
H1300  H     0.67454   0.41779   0.71210   0.00000  Uiso   1.00
H1301  H     0.66977   0.48765   0.98495   0.00000  Uiso   1.00
H1302  H     0.69902   0.44372   0.93282   0.00000  Uiso   1.00
C1303  C     0.80550   0.53851   0.68751   0.00000  Uiso   1.00
C1304  C     0.82604   0.58775   0.67154   0.00000  Uiso   1.00
C1305  C     0.87646   0.59695   0.69186   0.00000  Uiso   1.00
H1306  H     0.88347   0.59319   0.73831   0.00000  Uiso   1.00
H1307  H     0.89339   0.56671   0.99634   0.00000  Uiso   1.00
H1308  H     0.89062   0.63671   0.68944   0.00000  Uiso   1.00
H1309  H     0.82069   0.58434   0.95715   0.00000  Uiso   1.00
H1310  H     0.81014   0.62240   0.69364   0.00000  Uiso   1.00
H1311  H     0.80130   0.55525   0.73403   0.00000  Uiso   1.00
H1312  H     0.82902   0.50828   0.68268   0.00000  Uiso   1.00
C1313  C     0.24855   0.73343   0.81767   0.00000  Uiso   1.00
C1314  C     0.25209   0.93330   0.84899   0.00000  Uiso   1.00
C1315  C     0.00753   0.73913   0.78507   0.00000  Uiso   1.00
C1316  C     0.49230   0.92904   0.87708   0.00000  Uiso   1.00
C1317  C     0.24814   0.67716   0.80950   0.00000  Uiso   1.00
C1318  C     0.25319   0.98967   0.85714   0.00000  Uiso   1.00
C1319  C     0.16459   0.82842   0.83263   0.00000  Uiso   1.00
C1320  C     0.33537   0.83671   0.83336   0.00000  Uiso   1.00
C1321  C     0.41381   0.88605   0.85416   0.00000  Uiso   1.00
C1322  C     0.08589   0.78037   0.81439   0.00000  Uiso   1.00
C1323  C     0.38386   0.83881   0.83061   0.00000  Uiso   1.00
C1324  C     0.11604   0.82778   0.83284   0.00000  Uiso   1.00
C1325  C     0.39955   0.79270   0.80006   0.00000  Uiso   1.00
C1326  C     0.10024   0.87639   0.85213   0.00000  Uiso   1.00
C1327  C     0.44579   0.79044   0.80116   0.00000  Uiso   1.00
C1328  C     0.05405   0.87910   0.85213   0.00000  Uiso   1.00
C1329  C     0.47646   0.83611   0.82685   0.00000  Uiso   1.00
C1330  C     0.02330   0.83317   0.82848   0.00000  Uiso   1.00
C1331  C     0.46060   0.88433   0.85210   0.00000  Uiso   1.00
C1332  C     0.03914   0.78389   0.80869   0.00000  Uiso   1.00
C1333  C     0.46206   0.74261   0.77950   0.00000  Uiso   1.00
C1334  C     0.03789   0.92669   0.87587   0.00000  Uiso   1.00
Cu1335 Cu    0.25501   0.83913   0.89479   0.00000  Uiso   1.00
Cu1336 Cu    0.24500   0.82754   0.77187   0.00000  Uiso   1.00
H1337  H     0.44001   0.70652   0.76023   0.00000  Uiso   1.00
H1338  H     0.06018   0.96265   0.89511   0.00000  Uiso   1.00
H1339  H     0.01692   0.70054   0.76988   0.00000  Uiso   1.00
H1340  H     0.48279   0.96666   0.89853   0.00000  Uiso   1.00
H1341  H     0.24359   0.98603   0.76384   0.00000  Uiso   1.00
H1342  H     0.25774   0.68080   0.90280   0.00000  Uiso   1.00
N1343  N     0.23745   0.81881   0.67951   0.00000  Uiso   1.00
N1344  N     0.26256   0.84786   0.98716   0.00000  Uiso   1.00
O1345  O     0.25326   0.76204   0.87326   0.00000  Uiso   1.00
O1346  O     0.24675   0.90462   0.79341   0.00000  Uiso   1.00
O1347  O     0.24480   0.75226   0.76945   0.00000  Uiso   1.00
O1348  O     0.25520   0.91441   0.89721   0.00000  Uiso   1.00
O1349  O     0.18936   0.83821   0.88524   0.00000  Uiso   1.00
O1350  O     0.31065   0.82845   0.78143   0.00000  Uiso   1.00
O1351  O     0.18090   0.82843   0.78143   0.00000  Uiso   1.00
O1352  O     0.31910   0.83824   0.88523   0.00000  Uiso   1.00
C1353  C     0.39676   0.93639   0.88654   0.00000  Uiso   1.00
C1354  C     0.40026   0.98197   0.85577   0.00000  Uiso   1.00
C1355  C     0.40321   0.70117   0.90250   0.00000  Uiso   1.00
H1356  H     0.37346   0.70194   0.92769   0.00000  Uiso   1.00
H1357  H     0.40422   0.73402   0.88039   0.00000  Uiso   1.00
H1358  H     0.43419   0.70743   0.93453   0.00000  Uiso   1.00
H1359  H     0.42970   0.98211   0.83026   0.00000  Uiso   1.00
H1360  H     0.36948   0.97810   0.82404   0.00000  Uiso   1.00
H1361  H     0.36123   0.92938   0.89228   0.00000  Uiso   1.00
H1362  H     0.41580   0.94907   0.93180   0.00000  Uiso   1.00
C1363  C     0.10264   0.72705   0.81152   0.00000  Uiso   1.00
C1364  C     0.09878   0.69031   0.74840   0.00000  Uiso   1.00
C1365  C     0.08160   0.96624   0.74508   0.00000  Uiso   1.00
H1366  H     0.10788   0.94782   0.76620   0.00000  Uiso   1.00
H1367  H     0.05078   0.96244   0.76728   0.00000  Uiso   1.00
H1368  H     0.07394   0.94412   0.69729   0.00000  Uiso   1.00
H1369  H     0.07697   0.70469   0.71604   0.00000  Uiso   1.00
H1370  H     0.13292   0.68953   0.73499   0.00000  Uiso   1.00
H1371  H     0.13842   0.73260   0.83042   0.00000  Uiso   1.00
H1372  H     0.08320   0.70762   0.84068   0.00000  Uiso   1.00
Br1373 Br    0.35696   0.73178   0.75874   0.00000  Uiso   1.00
Br1374 Br    0.14351   0.93856   0.87977   0.00000  Uiso   1.00
C1375  C     0.19505   0.79282   0.97963   0.00000  Uiso   1.00
C1376  C     0.17807   0.74318   0.99772   0.00000  Uiso   1.00
C1377  C     0.13213   0.72108   0.96330   0.00000  Uiso   1.00
H1378  H     0.10726   0.74911   0.97473   0.00000  Uiso   1.00
H1379  H     0.13538   0.71310   0.91540   0.00000  Uiso   1.00
H1380  H     0.12007   0.68298   0.97189   0.00000  Uiso   1.00
H1381  H     0.20170   0.71341   0.98730   0.00000  Uiso   1.00
H1382  H     0.17454   0.75112   0.71210   0.00000  Uiso   1.00
H1383  H     0.16977   0.82099   0.98495   0.00000  Uiso   1.00
H1384  H     0.19902   0.77706   0.93282   0.00000  Uiso   1.00
C1385  C     0.30550   0.87185   0.68751   0.00000  Uiso   1.00
C1386  C     0.32604   0.92108   0.67154   0.00000  Uiso   1.00
C1387  C     0.37646   0.93028   0.69186   0.00000  Uiso   1.00
H1388  H     0.38347   0.92652   0.73831   0.00000  Uiso   1.00
H1389  H     0.39339   0.90005   0.99634   0.00000  Uiso   1.00
H1390  H     0.39062   0.97004   0.68944   0.00000  Uiso   1.00
H1391  H     0.32069   0.91768   0.95715   0.00000  Uiso   1.00
H1392  H     0.31014   0.95573   0.69364   0.00000  Uiso   1.00
H1393  H     0.30130   0.88858   0.73403   0.00000  Uiso   1.00
H1394  H     0.32902   0.84161   0.68268   0.00000  Uiso   1.00
C1395  C     0.74855   0.73343   0.81767   0.00000  Uiso   1.00
C1396  C     0.75209   0.93330   0.84899   0.00000  Uiso   1.00
C1397  C     0.50753   0.73913   0.78507   0.00000  Uiso   1.00
C1398  C     0.99230   0.92904   0.87708   0.00000  Uiso   1.00
C1399  C     0.74814   0.67716   0.80950   0.00000  Uiso   1.00
C1400  C     0.75319   0.98967   0.85714   0.00000  Uiso   1.00
C1401  C     0.66459   0.82842   0.83263   0.00000  Uiso   1.00
C1402  C     0.83537   0.83671   0.83336   0.00000  Uiso   1.00
C1403  C     0.91381   0.88605   0.85416   0.00000  Uiso   1.00
C1404  C     0.58589   0.78037   0.81439   0.00000  Uiso   1.00
C1405  C     0.88386   0.83881   0.83061   0.00000  Uiso   1.00
C1406  C     0.61604   0.82778   0.83284   0.00000  Uiso   1.00
C1407  C     0.89955   0.79270   0.80006   0.00000  Uiso   1.00
C1408  C     0.60024   0.87639   0.85213   0.00000  Uiso   1.00
C1409  C     0.94579   0.79044   0.80116   0.00000  Uiso   1.00
C1410  C     0.55405   0.87910   0.85213   0.00000  Uiso   1.00
C1411  C     0.97646   0.83611   0.82685   0.00000  Uiso   1.00
C1412  C     0.52330   0.83317   0.82848   0.00000  Uiso   1.00
C1413  C     0.96060   0.88433   0.85210   0.00000  Uiso   1.00
C1414  C     0.53914   0.78389   0.80869   0.00000  Uiso   1.00
C1415  C     0.96206   0.74261   0.77950   0.00000  Uiso   1.00
C1416  C     0.53789   0.92669   0.87587   0.00000  Uiso   1.00
Cu1417 Cu    0.75501   0.83913   0.89479   0.00000  Uiso   1.00
Cu1418 Cu    0.74500   0.82754   0.77187   0.00000  Uiso   1.00
H1419  H     0.94001   0.70652   0.76023   0.00000  Uiso   1.00
H1420  H     0.56018   0.96265   0.89511   0.00000  Uiso   1.00
H1421  H     0.51692   0.70054   0.76988   0.00000  Uiso   1.00
H1422  H     0.98279   0.96666   0.89853   0.00000  Uiso   1.00
H1423  H     0.74359   0.98603   0.76384   0.00000  Uiso   1.00
H1424  H     0.75774   0.68080   0.90280   0.00000  Uiso   1.00
N1425  N     0.73745   0.81881   0.67951   0.00000  Uiso   1.00
N1426  N     0.76256   0.84786   0.98716   0.00000  Uiso   1.00
O1427  O     0.75326   0.76204   0.87326   0.00000  Uiso   1.00
O1428  O     0.74675   0.90462   0.79341   0.00000  Uiso   1.00
O1429  O     0.74480   0.75226   0.76945   0.00000  Uiso   1.00
O1430  O     0.75520   0.91441   0.89721   0.00000  Uiso   1.00
O1431  O     0.68936   0.83821   0.88524   0.00000  Uiso   1.00
O1432  O     0.81065   0.82845   0.78143   0.00000  Uiso   1.00
O1433  O     0.68090   0.82843   0.78143   0.00000  Uiso   1.00
O1434  O     0.81910   0.83824   0.88523   0.00000  Uiso   1.00
C1435  C     0.89676   0.93639   0.88654   0.00000  Uiso   1.00
C1436  C     0.90026   0.98197   0.85577   0.00000  Uiso   1.00
C1437  C     0.90321   0.70117   0.90250   0.00000  Uiso   1.00
H1438  H     0.87346   0.70194   0.92769   0.00000  Uiso   1.00
H1439  H     0.90422   0.73402   0.88039   0.00000  Uiso   1.00
H1440  H     0.93419   0.70743   0.93453   0.00000  Uiso   1.00
H1441  H     0.92970   0.98211   0.83026   0.00000  Uiso   1.00
H1442  H     0.86948   0.97810   0.82404   0.00000  Uiso   1.00
H1443  H     0.86123   0.92938   0.89228   0.00000  Uiso   1.00
H1444  H     0.91580   0.94907   0.93180   0.00000  Uiso   1.00
C1445  C     0.60264   0.72705   0.81152   0.00000  Uiso   1.00
C1446  C     0.59878   0.69031   0.74840   0.00000  Uiso   1.00
C1447  C     0.58160   0.96624   0.74508   0.00000  Uiso   1.00
H1448  H     0.60788   0.94782   0.76620   0.00000  Uiso   1.00
H1449  H     0.55078   0.96244   0.76728   0.00000  Uiso   1.00
H1450  H     0.57394   0.94412   0.69729   0.00000  Uiso   1.00
H1451  H     0.57697   0.70469   0.71604   0.00000  Uiso   1.00
H1452  H     0.63292   0.68953   0.73499   0.00000  Uiso   1.00
H1453  H     0.63842   0.73260   0.83042   0.00000  Uiso   1.00
H1454  H     0.58320   0.70762   0.84068   0.00000  Uiso   1.00
Br1455 Br    0.85696   0.73178   0.75874   0.00000  Uiso   1.00
Br1456 Br    0.64351   0.93856   0.87977   0.00000  Uiso   1.00
C1457  C     0.69505   0.79282   0.97963   0.00000  Uiso   1.00
C1458  C     0.67807   0.74318   0.99772   0.00000  Uiso   1.00
C1459  C     0.63213   0.72108   0.96330   0.00000  Uiso   1.00
H1460  H     0.60726   0.74911   0.97473   0.00000  Uiso   1.00
H1461  H     0.63538   0.71310   0.91540   0.00000  Uiso   1.00
H1462  H     0.62007   0.68298   0.97189   0.00000  Uiso   1.00
H1463  H     0.70170   0.71341   0.98730   0.00000  Uiso   1.00
H1464  H     0.67454   0.75112   0.71210   0.00000  Uiso   1.00
H1465  H     0.66977   0.82099   0.98495   0.00000  Uiso   1.00
H1466  H     0.69902   0.77706   0.93282   0.00000  Uiso   1.00
C1467  C     0.80550   0.87185   0.68751   0.00000  Uiso   1.00
C1468  C     0.82604   0.92108   0.67154   0.00000  Uiso   1.00
C1469  C     0.87646   0.93028   0.69186   0.00000  Uiso   1.00
H1470  H     0.88347   0.92652   0.73831   0.00000  Uiso   1.00
H1471  H     0.89339   0.90005   0.99634   0.00000  Uiso   1.00
H1472  H     0.89062   0.97004   0.68944   0.00000  Uiso   1.00
H1473  H     0.82069   0.91768   0.95715   0.00000  Uiso   1.00
H1474  H     0.81014   0.95573   0.69364   0.00000  Uiso   1.00
H1475  H     0.80130   0.88858   0.73403   0.00000  Uiso   1.00
H1476  H     0.82902   0.84161   0.68268   0.00000  Uiso   1.00
loop_
_geom_bond_atom_site_label_1
_geom_bond_atom_site_label_2
_geom_bond_distance
_geom_bond_site_symmetry_2
_ccdc_geom_bond_type
C1     O33     1.313   .     A
C1     C5      1.450   .     S
C1     O35     1.323   .     A
C2     O34     1.313   .     A
C2     C6      1.450   .     S
C2     O36     1.323   .     A
C3     C20     1.404   .     A
C3     H27     1.071   .     S
C3     C103    1.380   1_455 S
C4     C19     1.409   .     A
C4     H28     1.078   .     S
C4     C104    1.385   .     S
C5     C334    1.345   1_545 S
C5     H357    1.087   1_545 S
C6     C169    1.345   .     S
C6     H194    1.087   .     S
C7     C12     1.463   .     S
C7     O37     1.323   .     A
C7     O39     1.321   .     A
C8     O38     1.313   .     A
C8     C11     1.466   .     S
C8     O40     1.329   .     A
C9     C19     1.421   .     A
C9     C11     1.423   .     A
C9     C41     1.525   .     S
C10    C20     1.419   .     A
C10    C51     1.531   .     S
C10    C12     1.421   .     A
C11    C13     1.404   .     A
C12    C14     1.400   .     A
C13    C15     1.400   .     A
C13    Br61    1.943   .     S
C14    Br62    1.928   .     S
C14    C16     1.402   .     A
C15    C17     1.412   .     A
C15    C21     1.398   .     A
C16    C22     1.400   .     A
C16    C18     1.412   .     A
C17    C19     1.418   .     A
C17    C100    1.420   .     S
C18    C20     1.418   .     A
C18    C99     1.420   1_455 S
C21    H25     1.079   .     S
C21    C85     1.380   .     S
C22    H26     1.080   .     S
C22    C86     1.385   1_455 S
Cu23   O40     1.967   .     S
Cu23   O33     1.969   .     S
Cu23   Cu24    2.768   .     S
Cu23   O37     1.970   .     S
Cu23   N32     2.080   .     S
Cu23   O36     1.973   .     S
Cu24   O39     1.967   .     S
Cu24   O38     1.970   .     S
Cu24   O35     1.973   .     S
Cu24   O34     1.969   .     S
Cu24   N31     2.080   .     S
H29    C169    1.087   .     S
H30    C334    1.087   1_545 S
N31    N1016   1.300   1_554 S
N31    C1047   1.445   1_554 S
N32    N523    1.300   .     S
N32    C565    1.450   .     S
C41    H50     1.105   .     S
C41    C42     1.534   .     S
C41    H49     1.094   .     S
C42    H48     1.110   .     S
C42    H47     1.109   .     S
C42    C207    1.530   .     S
C43    H44     1.112   .     S
C43    H45     1.104   .     S
C43    H46     1.111   .     S
C43    C370    1.530   1_545 S
C51    C52     1.535   .     S
C51    H59     1.109   .     S
C51    H60     1.111   .     S
C52    H58     1.102   .     S
C52    H57     1.110   .     S
C52    C381    1.531   1_545 S
C53    H54     1.106   .     S
C53    H55     1.108   .     S
C53    H56     1.111   .     S
C53    C216    1.531   .     S
C63    H71     1.112   .     S
C63    C64     1.520   .     S
C63    H72     1.085   .     S
C63    N523    1.445   .     S
C64    H69     1.113   .     S
C64    C65     1.520   .     S
C64    H562    1.089   .     S
C65    H67     1.091   .     S
C65    H68     1.102   .     S
C65    H66     1.111   .     S
H70    C1048   1.089   1_554 S
C73    C74     1.520   .     S
C73    H81     1.085   .     S
C73    H82     1.113   .     S
C73    N1016   1.450   1_554 S
C74    H80     1.113   .     S
C74    C75     1.528   .     S
C74    H1063   1.080   1_554 S
C75    H78     1.107   .     S
C75    H76     1.104   .     S
C75    H1061   1.111   1_554 S
H77    C567    1.111   .     S
H79    C566    1.080   .     S
C83    O115    1.313   .     A
C83    C87     1.450   .     S
C83    O117    1.323   .     A
C84    O116    1.313   .     A
C84    C88     1.450   .     S
C84    O118    1.323   .     A
C85    C102    1.404   .     A
C85    H109    1.071   .     S
C86    C101    1.409   .     A
C86    H110    1.078   .     S
C86    C22     1.385   1_655 S
C87    C416    1.345   1_545 S
C87    H439    1.087   1_545 S
C88    C251    1.345   .     S
C88    H276    1.087   .     S
C89    C94     1.463   .     S
C89    O119    1.323   .     A
C89    O121    1.321   .     A
C90    O120    1.313   .     A
C90    C93     1.466   .     S
C90    O122    1.329   .     A
C91    C101    1.421   .     A
C91    C93     1.423   .     A
C91    C123    1.525   .     S
C92    C102    1.419   .     A
C92    C133    1.531   .     S
C92    C94     1.421   .     A
C93    C95     1.404   .     A
C94    C96     1.400   .     A
C95    C97     1.400   .     A
C95    Br143   1.943   .     S
C96    Br144   1.928   .     S
C96    C98     1.402   .     A
C97    C99     1.412   .     A
C97    C103    1.398   .     A
C98    C104    1.400   .     A
C98    C100    1.412   .     A
C99    C101    1.418   .     A
C99    C18     1.420   1_655 S
C100   C102    1.418   .     A
C103   H107    1.079   .     S
C103   C3      1.380   1_655 S
C104   H108    1.080   .     S
Cu105  O122    1.967   .     S
Cu105  O115    1.969   .     S
Cu105  Cu106   2.768   .     S
Cu105  O119    1.970   .     S
Cu105  N114    2.080   .     S
Cu105  O118    1.973   .     S
Cu106  O121    1.967   .     S
Cu106  O120    1.970   .     S
Cu106  O117    1.973   .     S
Cu106  O116    1.969   .     S
Cu106  N113    2.080   .     S
H111   C251    1.087   .     S
H112   C416    1.087   1_545 S
N113   N1098   1.300   1_554 S
N113   C1129   1.445   1_554 S
N114   N605    1.300   .     S
N114   C647    1.450   .     S
C123   H132    1.105   .     S
C123   C124    1.534   .     S
C123   H131    1.094   .     S
C124   H130    1.110   .     S
C124   H129    1.109   .     S
C124   C289    1.530   .     S
C125   H126    1.112   .     S
C125   H127    1.104   .     S
C125   H128    1.111   .     S
C125   C452    1.530   1_545 S
C133   C134    1.535   .     S
C133   H141    1.109   .     S
C133   H142    1.111   .     S
C134   H140    1.102   .     S
C134   H139    1.110   .     S
C134   C463    1.531   1_545 S
C135   H136    1.106   .     S
C135   H137    1.108   .     S
C135   H138    1.111   .     S
C135   C298    1.531   .     S
C145   H153    1.112   .     S
C145   C146    1.520   .     S
C145   H154    1.085   .     S
C145   N605    1.445   .     S
C146   H151    1.113   .     S
C146   C147    1.520   .     S
C146   H644    1.089   .     S
C147   H149    1.091   .     S
C147   H150    1.102   .     S
C147   H148    1.111   .     S
H152   C1130   1.089   1_554 S
C155   C156    1.520   .     S
C155   H163    1.085   .     S
C155   H164    1.113   .     S
C155   N1098   1.450   1_554 S
C156   H162    1.113   .     S
C156   C157    1.528   .     S
C156   H1145   1.080   1_554 S
C157   H160    1.107   .     S
C157   H158    1.104   .     S
C157   H1143   1.111   1_554 S
H159   C649    1.111   .     S
H161   C648    1.080   .     S
C165   O197    1.313   .     A
C165   C169    1.450   .     S
C165   O199    1.323   .     A
C166   O198    1.313   .     A
C166   C170    1.450   .     S
C166   O200    1.323   .     A
C167   C184    1.404   .     A
C167   H191    1.071   .     S
C167   C267    1.380   1_455 S
C168   C183    1.409   .     A
C168   H192    1.078   .     S
C168   C268    1.385   .     S
C170   C333    1.345   .     S
C170   H358    1.087   .     S
C171   C176    1.463   .     S
C171   O201    1.323   .     A
C171   O203    1.321   .     A
C172   O202    1.313   .     A
C172   C175    1.466   .     S
C172   O204    1.329   .     A
C173   C183    1.421   .     A
C173   C175    1.423   .     A
C173   C205    1.525   .     S
C174   C184    1.419   .     A
C174   C215    1.531   .     S
C174   C176    1.421   .     A
C175   C177    1.404   .     A
C176   C178    1.400   .     A
C177   C179    1.400   .     A
C177   Br225   1.943   .     S
C178   Br226   1.928   .     S
C178   C180    1.402   .     A
C179   C181    1.412   .     A
C179   C185    1.398   .     A
C180   C186    1.400   .     A
C180   C182    1.412   .     A
C181   C183    1.418   .     A
C181   C264    1.420   .     S
C182   C184    1.418   .     A
C182   C263    1.420   1_455 S
C185   H189    1.079   .     S
C185   C249    1.380   .     S
C186   H190    1.080   .     S
C186   C250    1.385   1_455 S
Cu187  O204    1.967   .     S
Cu187  O197    1.969   .     S
Cu187  Cu188   2.768   .     S
Cu187  O201    1.970   .     S
Cu187  N196    2.080   .     S
Cu187  O200    1.973   .     S
Cu188  O203    1.967   .     S
Cu188  O202    1.970   .     S
Cu188  O199    1.973   .     S
Cu188  O198    1.969   .     S
Cu188  N195    2.080   .     S
H193   C333    1.087   .     S
N195   N1180   1.300   1_554 S
N195   C1211   1.445   1_554 S
N196   N687    1.300   .     S
N196   C729    1.450   .     S
C205   H214    1.105   .     S
C205   C206    1.534   .     S
C205   H213    1.094   .     S
C206   H212    1.110   .     S
C206   H211    1.109   .     S
C206   C371    1.530   .     S
C207   H208    1.112   .     S
C207   H209    1.104   .     S
C207   H210    1.111   .     S
C215   C216    1.535   .     S
C215   H223    1.109   .     S
C215   H224    1.111   .     S
C216   H222    1.102   .     S
C216   H221    1.110   .     S
C217   H218    1.106   .     S
C217   H219    1.108   .     S
C217   H220    1.111   .     S
C217   C380    1.531   .     S
C227   H235    1.112   .     S
C227   C228    1.520   .     S
C227   H236    1.085   .     S
C227   N687    1.445   .     S
C228   H233    1.113   .     S
C228   C229    1.520   .     S
C228   H726    1.089   .     S
C229   H231    1.091   .     S
C229   H232    1.102   .     S
C229   H230    1.111   .     S
H234   C1212   1.089   1_554 S
C237   C238    1.520   .     S
C237   H245    1.085   .     S
C237   H246    1.113   .     S
C237   N1180   1.450   1_554 S
C238   H244    1.113   .     S
C238   C239    1.528   .     S
C238   H1227   1.080   1_554 S
C239   H242    1.107   .     S
C239   H240    1.104   .     S
C239   H1225   1.111   1_554 S
H241   C731    1.111   .     S
H243   C730    1.080   .     S
C247   O279    1.313   .     A
C247   C251    1.450   .     S
C247   O281    1.323   .     A
C248   O280    1.313   .     A
C248   C252    1.450   .     S
C248   O282    1.323   .     A
C249   C266    1.404   .     A
C249   H273    1.071   .     S
C250   C265    1.409   .     A
C250   H274    1.078   .     S
C250   C186    1.385   1_655 S
C252   C415    1.345   .     S
C252   H440    1.087   .     S
C253   C258    1.463   .     S
C253   O283    1.323   .     A
C253   O285    1.321   .     A
C254   O284    1.313   .     A
C254   C257    1.466   .     S
C254   O286    1.329   .     A
C255   C265    1.421   .     A
C255   C257    1.423   .     A
C255   C287    1.525   .     S
C256   C266    1.419   .     A
C256   C297    1.531   .     S
C256   C258    1.421   .     A
C257   C259    1.404   .     A
C258   C260    1.400   .     A
C259   C261    1.400   .     A
C259   Br307   1.943   .     S
C260   Br308   1.928   .     S
C260   C262    1.402   .     A
C261   C263    1.412   .     A
C261   C267    1.398   .     A
C262   C268    1.400   .     A
C262   C264    1.412   .     A
C263   C265    1.418   .     A
C263   C182    1.420   1_655 S
C264   C266    1.418   .     A
C267   H271    1.079   .     S
C267   C167    1.380   1_655 S
C268   H272    1.080   .     S
Cu269  O286    1.967   .     S
Cu269  O279    1.969   .     S
Cu269  Cu270   2.768   .     S
Cu269  O283    1.970   .     S
Cu269  N278    2.080   .     S
Cu269  O282    1.973   .     S
Cu270  O285    1.967   .     S
Cu270  O284    1.970   .     S
Cu270  O281    1.973   .     S
Cu270  O280    1.969   .     S
Cu270  N277    2.080   .     S
H275   C415    1.087   .     S
N277   N1262   1.300   1_554 S
N277   C1293   1.445   1_554 S
N278   N769    1.300   .     S
N278   C811    1.450   .     S
C287   H296    1.105   .     S
C287   C288    1.534   .     S
C287   H295    1.094   .     S
C288   H294    1.110   .     S
C288   H293    1.109   .     S
C288   C453    1.530   .     S
C289   H290    1.112   .     S
C289   H291    1.104   .     S
C289   H292    1.111   .     S
C297   C298    1.535   .     S
C297   H305    1.109   .     S
C297   H306    1.111   .     S
C298   H304    1.102   .     S
C298   H303    1.110   .     S
C299   H300    1.106   .     S
C299   H301    1.108   .     S
C299   H302    1.111   .     S
C299   C462    1.531   .     S
C309   H317    1.112   .     S
C309   C310    1.520   .     S
C309   H318    1.085   .     S
C309   N769    1.445   .     S
C310   H315    1.113   .     S
C310   C311    1.520   .     S
C310   H808    1.089   .     S
C311   H313    1.091   .     S
C311   H314    1.102   .     S
C311   H312    1.111   .     S
H316   C1294   1.089   1_554 S
C319   C320    1.520   .     S
C319   H327    1.085   .     S
C319   H328    1.113   .     S
C319   N1262   1.450   1_554 S
C320   H326    1.113   .     S
C320   C321    1.528   .     S
C320   H1309   1.080   1_554 S
C321   H324    1.107   .     S
C321   H322    1.104   .     S
C321   H1307   1.111   1_554 S
H323   C813    1.111   .     S
H325   C812    1.080   .     S
C329   O361    1.313   .     A
C329   C333    1.450   .     S
C329   O363    1.323   .     A
C330   O362    1.313   .     A
C330   C334    1.450   .     S
C330   O364    1.323   .     A
C331   C348    1.404   .     A
C331   H355    1.071   .     S
C331   C431    1.380   1_455 S
C332   C347    1.409   .     A
C332   H356    1.078   .     S
C332   C432    1.385   .     S
C334   C5      1.345   1_565 S
C334   H30     1.087   1_565 S
C335   C340    1.463   .     S
C335   O365    1.323   .     A
C335   O367    1.321   .     A
C336   O366    1.313   .     A
C336   C339    1.466   .     S
C336   O368    1.329   .     A
C337   C347    1.421   .     A
C337   C339    1.423   .     A
C337   C369    1.525   .     S
C338   C348    1.419   .     A
C338   C379    1.531   .     S
C338   C340    1.421   .     A
C339   C341    1.404   .     A
C340   C342    1.400   .     A
C341   C343    1.400   .     A
C341   Br389   1.943   .     S
C342   Br390   1.928   .     S
C342   C344    1.402   .     A
C343   C345    1.412   .     A
C343   C349    1.398   .     A
C344   C350    1.400   .     A
C344   C346    1.412   .     A
C345   C347    1.418   .     A
C345   C428    1.420   .     S
C346   C348    1.418   .     A
C346   C427    1.420   1_455 S
C349   H353    1.079   .     S
C349   C413    1.380   .     S
C350   H354    1.080   .     S
C350   C414    1.385   1_455 S
Cu351  O368    1.967   .     S
Cu351  O361    1.969   .     S
Cu351  Cu352   2.768   .     S
Cu351  O365    1.970   .     S
Cu351  N360    2.080   .     S
Cu351  O364    1.973   .     S
Cu352  O367    1.967   .     S
Cu352  O366    1.970   .     S
Cu352  O363    1.973   .     S
Cu352  O362    1.969   .     S
Cu352  N359    2.080   .     S
H357   C5      1.087   1_565 S
N359   N1344   1.300   1_554 S
N359   C1375   1.445   1_554 S
N360   N851    1.300   .     S
N360   C893    1.450   .     S
C369   H378    1.105   .     S
C369   C370    1.534   .     S
C369   H377    1.094   .     S
C370   H376    1.110   .     S
C370   H375    1.109   .     S
C370   C43     1.530   1_565 S
C371   H372    1.112   .     S
C371   H373    1.104   .     S
C371   H374    1.111   .     S
C379   C380    1.535   .     S
C379   H387    1.109   .     S
C379   H388    1.111   .     S
C380   H386    1.102   .     S
C380   H385    1.110   .     S
C381   H382    1.106   .     S
C381   H383    1.108   .     S
C381   H384    1.111   .     S
C381   C52     1.531   1_565 S
C391   H399    1.112   .     S
C391   C392    1.520   .     S
C391   H400    1.085   .     S
C391   N851    1.445   .     S
C392   H397    1.113   .     S
C392   C393    1.520   .     S
C392   H890    1.089   .     S
C393   H395    1.091   .     S
C393   H396    1.102   .     S
C393   H394    1.111   .     S
H398   C1376   1.089   1_554 S
C401   C402    1.520   .     S
C401   H409    1.085   .     S
C401   H410    1.113   .     S
C401   N1344   1.450   1_554 S
C402   H408    1.113   .     S
C402   C403    1.528   .     S
C402   H1391   1.080   1_554 S
C403   H406    1.107   .     S
C403   H404    1.104   .     S
C403   H1389   1.111   1_554 S
H405   C895    1.111   .     S
H407   C894    1.080   .     S
C411   O443    1.313   .     A
C411   C415    1.450   .     S
C411   O445    1.323   .     A
C412   O444    1.313   .     A
C412   C416    1.450   .     S
C412   O446    1.323   .     A
C413   C430    1.404   .     A
C413   H437    1.071   .     S
C414   C429    1.409   .     A
C414   H438    1.078   .     S
C414   C350    1.385   1_655 S
C416   C87     1.345   1_565 S
C416   H112    1.087   1_565 S
C417   C422    1.463   .     S
C417   O447    1.323   .     A
C417   O449    1.321   .     A
C418   O448    1.313   .     A
C418   C421    1.466   .     S
C418   O450    1.329   .     A
C419   C429    1.421   .     A
C419   C421    1.423   .     A
C419   C451    1.525   .     S
C420   C430    1.419   .     A
C420   C461    1.531   .     S
C420   C422    1.421   .     A
C421   C423    1.404   .     A
C422   C424    1.400   .     A
C423   C425    1.400   .     A
C423   Br471   1.943   .     S
C424   Br472   1.928   .     S
C424   C426    1.402   .     A
C425   C427    1.412   .     A
C425   C431    1.398   .     A
C426   C432    1.400   .     A
C426   C428    1.412   .     A
C427   C429    1.418   .     A
C427   C346    1.420   1_655 S
C428   C430    1.418   .     A
C431   H435    1.079   .     S
C431   C331    1.380   1_655 S
C432   H436    1.080   .     S
Cu433  O450    1.967   .     S
Cu433  O443    1.969   .     S
Cu433  Cu434   2.768   .     S
Cu433  O447    1.970   .     S
Cu433  N442    2.080   .     S
Cu433  O446    1.973   .     S
Cu434  O449    1.967   .     S
Cu434  O448    1.970   .     S
Cu434  O445    1.973   .     S
Cu434  O444    1.969   .     S
Cu434  N441    2.080   .     S
H439   C87     1.087   1_565 S
N441   N1426   1.300   1_554 S
N441   C1457   1.445   1_554 S
N442   N933    1.300   .     S
N442   C975    1.450   .     S
C451   H460    1.105   .     S
C451   C452    1.534   .     S
C451   H459    1.094   .     S
C452   H458    1.110   .     S
C452   H457    1.109   .     S
C452   C125    1.530   1_565 S
C453   H454    1.112   .     S
C453   H455    1.104   .     S
C453   H456    1.111   .     S
C461   C462    1.535   .     S
C461   H469    1.109   .     S
C461   H470    1.111   .     S
C462   H468    1.102   .     S
C462   H467    1.110   .     S
C463   H464    1.106   .     S
C463   H465    1.108   .     S
C463   H466    1.111   .     S
C463   C134    1.531   1_565 S
C473   H481    1.112   .     S
C473   C474    1.520   .     S
C473   H482    1.085   .     S
C473   N933    1.445   .     S
C474   H479    1.113   .     S
C474   C475    1.520   .     S
C474   H972    1.089   .     S
C475   H477    1.091   .     S
C475   H478    1.102   .     S
C475   H476    1.111   .     S
H480   C1458   1.089   1_554 S
C483   C484    1.520   .     S
C483   H491    1.085   .     S
C483   H492    1.113   .     S
C483   N1426   1.450   1_554 S
C484   H490    1.113   .     S
C484   C485    1.528   .     S
C484   H1473   1.080   1_554 S
C485   H488    1.107   .     S
C485   H486    1.104   .     S
C485   H1471   1.111   1_554 S
H487   C977    1.111   .     S
H489   C976    1.080   .     S
C493   O525    1.313   .     A
C493   C497    1.450   .     S
C493   O527    1.323   .     A
C494   O526    1.313   .     A
C494   C498    1.450   .     S
C494   O528    1.323   .     A
C495   C512    1.404   .     A
C495   H519    1.071   .     S
C495   C595    1.380   1_455 S
C496   C511    1.409   .     A
C496   H520    1.078   .     S
C496   C596    1.385   .     S
C497   C826    1.345   1_545 S
C497   H849    1.087   1_545 S
C498   C661    1.345   .     S
C498   H686    1.087   .     S
C499   C504    1.463   .     S
C499   O529    1.323   .     A
C499   O531    1.321   .     A
C500   O530    1.313   .     A
C500   C503    1.466   .     S
C500   O532    1.329   .     A
C501   C511    1.421   .     A
C501   C503    1.423   .     A
C501   C533    1.525   .     S
C502   C512    1.419   .     A
C502   C543    1.531   .     S
C502   C504    1.421   .     A
C503   C505    1.404   .     A
C504   C506    1.400   .     A
C505   C507    1.400   .     A
C505   Br553   1.943   .     S
C506   Br554   1.928   .     S
C506   C508    1.402   .     A
C507   C509    1.412   .     A
C507   C513    1.398   .     A
C508   C514    1.400   .     A
C508   C510    1.412   .     A
C509   C511    1.418   .     A
C509   C592    1.420   .     S
C510   C512    1.418   .     A
C510   C591    1.420   1_455 S
C513   H517    1.079   .     S
C513   C577    1.380   .     S
C514   H518    1.080   .     S
C514   C578    1.385   1_455 S
Cu515  O532    1.967   .     S
Cu515  O525    1.969   .     S
Cu515  Cu516   2.768   .     S
Cu515  O529    1.970   .     S
Cu515  N524    2.080   .     S
Cu515  O528    1.973   .     S
Cu516  O531    1.967   .     S
Cu516  O530    1.970   .     S
Cu516  O527    1.973   .     S
Cu516  O526    1.969   .     S
Cu516  N523    2.080   .     S
H521   C661    1.087   .     S
H522   C826    1.087   1_545 S
N524   N1015   1.300   .     S
N524   C1057   1.450   .     S
C533   H542    1.105   .     S
C533   C534    1.534   .     S
C533   H541    1.094   .     S
C534   H540    1.110   .     S
C534   H539    1.109   .     S
C534   C699    1.530   .     S
C535   H536    1.112   .     S
C535   H537    1.104   .     S
C535   H538    1.111   .     S
C535   C862    1.530   1_545 S
C543   C544    1.535   .     S
C543   H551    1.109   .     S
C543   H552    1.111   .     S
C544   H550    1.102   .     S
C544   H549    1.110   .     S
C544   C873    1.531   1_545 S
C545   H546    1.106   .     S
C545   H547    1.108   .     S
C545   H548    1.111   .     S
C545   C708    1.531   .     S
C555   H563    1.112   .     S
C555   C556    1.520   .     S
C555   H564    1.085   .     S
C555   N1015   1.445   .     S
C556   H561    1.113   .     S
C556   C557    1.520   .     S
C556   H1054   1.089   .     S
C557   H559    1.091   .     S
C557   H560    1.102   .     S
C557   H558    1.111   .     S
C565   C566    1.520   .     S
C565   H573    1.085   .     S
C565   H574    1.113   .     S
C566   H572    1.113   .     S
C566   C567    1.528   .     S
C567   H570    1.107   .     S
C567   H568    1.104   .     S
H569   C1059   1.111   .     S
H571   C1058   1.080   .     S
C575   O607    1.313   .     A
C575   C579    1.450   .     S
C575   O609    1.323   .     A
C576   O608    1.313   .     A
C576   C580    1.450   .     S
C576   O610    1.323   .     A
C577   C594    1.404   .     A
C577   H601    1.071   .     S
C578   C593    1.409   .     A
C578   H602    1.078   .     S
C578   C514    1.385   1_655 S
C579   C908    1.345   1_545 S
C579   H931    1.087   1_545 S
C580   C743    1.345   .     S
C580   H768    1.087   .     S
C581   C586    1.463   .     S
C581   O611    1.323   .     A
C581   O613    1.321   .     A
C582   O612    1.313   .     A
C582   C585    1.466   .     S
C582   O614    1.329   .     A
C583   C593    1.421   .     A
C583   C585    1.423   .     A
C583   C615    1.525   .     S
C584   C594    1.419   .     A
C584   C625    1.531   .     S
C584   C586    1.421   .     A
C585   C587    1.404   .     A
C586   C588    1.400   .     A
C587   C589    1.400   .     A
C587   Br635   1.943   .     S
C588   Br636   1.928   .     S
C588   C590    1.402   .     A
C589   C591    1.412   .     A
C589   C595    1.398   .     A
C590   C596    1.400   .     A
C590   C592    1.412   .     A
C591   C593    1.418   .     A
C591   C510    1.420   1_655 S
C592   C594    1.418   .     A
C595   H599    1.079   .     S
C595   C495    1.380   1_655 S
C596   H600    1.080   .     S
Cu597  O614    1.967   .     S
Cu597  O607    1.969   .     S
Cu597  Cu598   2.768   .     S
Cu597  O611    1.970   .     S
Cu597  N606    2.080   .     S
Cu597  O610    1.973   .     S
Cu598  O613    1.967   .     S
Cu598  O612    1.970   .     S
Cu598  O609    1.973   .     S
Cu598  O608    1.969   .     S
Cu598  N605    2.080   .     S
H603   C743    1.087   .     S
H604   C908    1.087   1_545 S
N606   N1097   1.300   .     S
N606   C1139   1.450   .     S
C615   H624    1.105   .     S
C615   C616    1.534   .     S
C615   H623    1.094   .     S
C616   H622    1.110   .     S
C616   H621    1.109   .     S
C616   C781    1.530   .     S
C617   H618    1.112   .     S
C617   H619    1.104   .     S
C617   H620    1.111   .     S
C617   C944    1.530   1_545 S
C625   C626    1.535   .     S
C625   H633    1.109   .     S
C625   H634    1.111   .     S
C626   H632    1.102   .     S
C626   H631    1.110   .     S
C626   C955    1.531   1_545 S
C627   H628    1.106   .     S
C627   H629    1.108   .     S
C627   H630    1.111   .     S
C627   C790    1.531   .     S
C637   H645    1.112   .     S
C637   C638    1.520   .     S
C637   H646    1.085   .     S
C637   N1097   1.445   .     S
C638   H643    1.113   .     S
C638   C639    1.520   .     S
C638   H1136   1.089   .     S
C639   H641    1.091   .     S
C639   H642    1.102   .     S
C639   H640    1.111   .     S
C647   C648    1.520   .     S
C647   H655    1.085   .     S
C647   H656    1.113   .     S
C648   H654    1.113   .     S
C648   C649    1.528   .     S
C649   H652    1.107   .     S
C649   H650    1.104   .     S
H651   C1141   1.111   .     S
H653   C1140   1.080   .     S
C657   O689    1.313   .     A
C657   C661    1.450   .     S
C657   O691    1.323   .     A
C658   O690    1.313   .     A
C658   C662    1.450   .     S
C658   O692    1.323   .     A
C659   C676    1.404   .     A
C659   H683    1.071   .     S
C659   C759    1.380   1_455 S
C660   C675    1.409   .     A
C660   H684    1.078   .     S
C660   C760    1.385   .     S
C662   C825    1.345   .     S
C662   H850    1.087   .     S
C663   C668    1.463   .     S
C663   O693    1.323   .     A
C663   O695    1.321   .     A
C664   O694    1.313   .     A
C664   C667    1.466   .     S
C664   O696    1.329   .     A
C665   C675    1.421   .     A
C665   C667    1.423   .     A
C665   C697    1.525   .     S
C666   C676    1.419   .     A
C666   C707    1.531   .     S
C666   C668    1.421   .     A
C667   C669    1.404   .     A
C668   C670    1.400   .     A
C669   C671    1.400   .     A
C669   Br717   1.943   .     S
C670   Br718   1.928   .     S
C670   C672    1.402   .     A
C671   C673    1.412   .     A
C671   C677    1.398   .     A
C672   C678    1.400   .     A
C672   C674    1.412   .     A
C673   C675    1.418   .     A
C673   C756    1.420   .     S
C674   C676    1.418   .     A
C674   C755    1.420   1_455 S
C677   H681    1.079   .     S
C677   C741    1.380   .     S
C678   H682    1.080   .     S
C678   C742    1.385   1_455 S
Cu679  O696    1.967   .     S
Cu679  O689    1.969   .     S
Cu679  Cu680   2.768   .     S
Cu679  O693    1.970   .     S
Cu679  N688    2.080   .     S
Cu679  O692    1.973   .     S
Cu680  O695    1.967   .     S
Cu680  O694    1.970   .     S
Cu680  O691    1.973   .     S
Cu680  O690    1.969   .     S
Cu680  N687    2.080   .     S
H685   C825    1.087   .     S
N688   N1179   1.300   .     S
N688   C1221   1.450   .     S
C697   H706    1.105   .     S
C697   C698    1.534   .     S
C697   H705    1.094   .     S
C698   H704    1.110   .     S
C698   H703    1.109   .     S
C698   C863    1.530   .     S
C699   H700    1.112   .     S
C699   H701    1.104   .     S
C699   H702    1.111   .     S
C707   C708    1.535   .     S
C707   H715    1.109   .     S
C707   H716    1.111   .     S
C708   H714    1.102   .     S
C708   H713    1.110   .     S
C709   H710    1.106   .     S
C709   H711    1.108   .     S
C709   H712    1.111   .     S
C709   C872    1.531   .     S
C719   H727    1.112   .     S
C719   C720    1.520   .     S
C719   H728    1.085   .     S
C719   N1179   1.445   .     S
C720   H725    1.113   .     S
C720   C721    1.520   .     S
C720   H1218   1.089   .     S
C721   H723    1.091   .     S
C721   H724    1.102   .     S
C721   H722    1.111   .     S
C729   C730    1.520   .     S
C729   H737    1.085   .     S
C729   H738    1.113   .     S
C730   H736    1.113   .     S
C730   C731    1.528   .     S
C731   H734    1.107   .     S
C731   H732    1.104   .     S
H733   C1223   1.111   .     S
H735   C1222   1.080   .     S
C739   O771    1.313   .     A
C739   C743    1.450   .     S
C739   O773    1.323   .     A
C740   O772    1.313   .     A
C740   C744    1.450   .     S
C740   O774    1.323   .     A
C741   C758    1.404   .     A
C741   H765    1.071   .     S
C742   C757    1.409   .     A
C742   H766    1.078   .     S
C742   C678    1.385   1_655 S
C744   C907    1.345   .     S
C744   H932    1.087   .     S
C745   C750    1.463   .     S
C745   O775    1.323   .     A
C745   O777    1.321   .     A
C746   O776    1.313   .     A
C746   C749    1.466   .     S
C746   O778    1.329   .     A
C747   C757    1.421   .     A
C747   C749    1.423   .     A
C747   C779    1.525   .     S
C748   C758    1.419   .     A
C748   C789    1.531   .     S
C748   C750    1.421   .     A
C749   C751    1.404   .     A
C750   C752    1.400   .     A
C751   C753    1.400   .     A
C751   Br799   1.943   .     S
C752   Br800   1.928   .     S
C752   C754    1.402   .     A
C753   C755    1.412   .     A
C753   C759    1.398   .     A
C754   C760    1.400   .     A
C754   C756    1.412   .     A
C755   C757    1.418   .     A
C755   C674    1.420   1_655 S
C756   C758    1.418   .     A
C759   H763    1.079   .     S
C759   C659    1.380   1_655 S
C760   H764    1.080   .     S
Cu761  O778    1.967   .     S
Cu761  O771    1.969   .     S
Cu761  Cu762   2.768   .     S
Cu761  O775    1.970   .     S
Cu761  N770    2.080   .     S
Cu761  O774    1.973   .     S
Cu762  O777    1.967   .     S
Cu762  O776    1.970   .     S
Cu762  O773    1.973   .     S
Cu762  O772    1.969   .     S
Cu762  N769    2.080   .     S
H767   C907    1.087   .     S
N770   N1261   1.300   .     S
N770   C1303   1.450   .     S
C779   H788    1.105   .     S
C779   C780    1.534   .     S
C779   H787    1.094   .     S
C780   H786    1.110   .     S
C780   H785    1.109   .     S
C780   C945    1.530   .     S
C781   H782    1.112   .     S
C781   H783    1.104   .     S
C781   H784    1.111   .     S
C789   C790    1.535   .     S
C789   H797    1.109   .     S
C789   H798    1.111   .     S
C790   H796    1.102   .     S
C790   H795    1.110   .     S
C791   H792    1.106   .     S
C791   H793    1.108   .     S
C791   H794    1.111   .     S
C791   C954    1.531   .     S
C801   H809    1.112   .     S
C801   C802    1.520   .     S
C801   H810    1.085   .     S
C801   N1261   1.445   .     S
C802   H807    1.113   .     S
C802   C803    1.520   .     S
C802   H1300   1.089   .     S
C803   H805    1.091   .     S
C803   H806    1.102   .     S
C803   H804    1.111   .     S
C811   C812    1.520   .     S
C811   H819    1.085   .     S
C811   H820    1.113   .     S
C812   H818    1.113   .     S
C812   C813    1.528   .     S
C813   H816    1.107   .     S
C813   H814    1.104   .     S
H815   C1305   1.111   .     S
H817   C1304   1.080   .     S
C821   O853    1.313   .     A
C821   C825    1.450   .     S
C821   O855    1.323   .     A
C822   O854    1.313   .     A
C822   C826    1.450   .     S
C822   O856    1.323   .     A
C823   C840    1.404   .     A
C823   H847    1.071   .     S
C823   C923    1.380   1_455 S
C824   C839    1.409   .     A
C824   H848    1.078   .     S
C824   C924    1.385   .     S
C826   C497    1.345   1_565 S
C826   H522    1.087   1_565 S
C827   C832    1.463   .     S
C827   O857    1.323   .     A
C827   O859    1.321   .     A
C828   O858    1.313   .     A
C828   C831    1.466   .     S
C828   O860    1.329   .     A
C829   C839    1.421   .     A
C829   C831    1.423   .     A
C829   C861    1.525   .     S
C830   C840    1.419   .     A
C830   C871    1.531   .     S
C830   C832    1.421   .     A
C831   C833    1.404   .     A
C832   C834    1.400   .     A
C833   C835    1.400   .     A
C833   Br881   1.943   .     S
C834   Br882   1.928   .     S
C834   C836    1.402   .     A
C835   C837    1.412   .     A
C835   C841    1.398   .     A
C836   C842    1.400   .     A
C836   C838    1.412   .     A
C837   C839    1.418   .     A
C837   C920    1.420   .     S
C838   C840    1.418   .     A
C838   C919    1.420   1_455 S
C841   H845    1.079   .     S
C841   C905    1.380   .     S
C842   H846    1.080   .     S
C842   C906    1.385   1_455 S
Cu843  O860    1.967   .     S
Cu843  O853    1.969   .     S
Cu843  Cu844   2.768   .     S
Cu843  O857    1.970   .     S
Cu843  N852    2.080   .     S
Cu843  O856    1.973   .     S
Cu844  O859    1.967   .     S
Cu844  O858    1.970   .     S
Cu844  O855    1.973   .     S
Cu844  O854    1.969   .     S
Cu844  N851    2.080   .     S
H849   C497    1.087   1_565 S
N852   N1343   1.300   .     S
N852   C1385   1.450   .     S
C861   H870    1.105   .     S
C861   C862    1.534   .     S
C861   H869    1.094   .     S
C862   H868    1.110   .     S
C862   H867    1.109   .     S
C862   C535    1.530   1_565 S
C863   H864    1.112   .     S
C863   H865    1.104   .     S
C863   H866    1.111   .     S
C871   C872    1.535   .     S
C871   H879    1.109   .     S
C871   H880    1.111   .     S
C872   H878    1.102   .     S
C872   H877    1.110   .     S
C873   H874    1.106   .     S
C873   H875    1.108   .     S
C873   H876    1.111   .     S
C873   C544    1.531   1_565 S
C883   H891    1.112   .     S
C883   C884    1.520   .     S
C883   H892    1.085   .     S
C883   N1343   1.445   .     S
C884   H889    1.113   .     S
C884   C885    1.520   .     S
C884   H1382   1.089   .     S
C885   H887    1.091   .     S
C885   H888    1.102   .     S
C885   H886    1.111   .     S
C893   C894    1.520   .     S
C893   H901    1.085   .     S
C893   H902    1.113   .     S
C894   H900    1.113   .     S
C894   C895    1.528   .     S
C895   H898    1.107   .     S
C895   H896    1.104   .     S
H897   C1387   1.111   .     S
H899   C1386   1.080   .     S
C903   O935    1.313   .     A
C903   C907    1.450   .     S
C903   O937    1.323   .     A
C904   O936    1.313   .     A
C904   C908    1.450   .     S
C904   O938    1.323   .     A
C905   C922    1.404   .     A
C905   H929    1.071   .     S
C906   C921    1.409   .     A
C906   H930    1.078   .     S
C906   C842    1.385   1_655 S
C908   C579    1.345   1_565 S
C908   H604    1.087   1_565 S
C909   C914    1.463   .     S
C909   O939    1.323   .     A
C909   O941    1.321   .     A
C910   O940    1.313   .     A
C910   C913    1.466   .     S
C910   O942    1.329   .     A
C911   C921    1.421   .     A
C911   C913    1.423   .     A
C911   C943    1.525   .     S
C912   C922    1.419   .     A
C912   C953    1.531   .     S
C912   C914    1.421   .     A
C913   C915    1.404   .     A
C914   C916    1.400   .     A
C915   C917    1.400   .     A
C915   Br963   1.943   .     S
C916   Br964   1.928   .     S
C916   C918    1.402   .     A
C917   C919    1.412   .     A
C917   C923    1.398   .     A
C918   C924    1.400   .     A
C918   C920    1.412   .     A
C919   C921    1.418   .     A
C919   C838    1.420   1_655 S
C920   C922    1.418   .     A
C923   H927    1.079   .     S
C923   C823    1.380   1_655 S
C924   H928    1.080   .     S
Cu925  O942    1.967   .     S
Cu925  O935    1.969   .     S
Cu925  Cu926   2.768   .     S
Cu925  O939    1.970   .     S
Cu925  N934    2.080   .     S
Cu925  O938    1.973   .     S
Cu926  O941    1.967   .     S
Cu926  O940    1.970   .     S
Cu926  O937    1.973   .     S
Cu926  O936    1.969   .     S
Cu926  N933    2.080   .     S
H931   C579    1.087   1_565 S
N934   N1425   1.300   .     S
N934   C1467   1.450   .     S
C943   H952    1.105   .     S
C943   C944    1.534   .     S
C943   H951    1.094   .     S
C944   H950    1.110   .     S
C944   H949    1.109   .     S
C944   C617    1.530   1_565 S
C945   H946    1.112   .     S
C945   H947    1.104   .     S
C945   H948    1.111   .     S
C953   C954    1.535   .     S
C953   H961    1.109   .     S
C953   H962    1.111   .     S
C954   H960    1.102   .     S
C954   H959    1.110   .     S
C955   H956    1.106   .     S
C955   H957    1.108   .     S
C955   H958    1.111   .     S
C955   C626    1.531   1_565 S
C965   H973    1.112   .     S
C965   C966    1.520   .     S
C965   H974    1.085   .     S
C965   N1425   1.445   .     S
C966   H971    1.113   .     S
C966   C967    1.520   .     S
C966   H1464   1.089   .     S
C967   H969    1.091   .     S
C967   H970    1.102   .     S
C967   H968    1.111   .     S
C975   C976    1.520   .     S
C975   H983    1.085   .     S
C975   H984    1.113   .     S
C976   H982    1.113   .     S
C976   C977    1.528   .     S
C977   H980    1.107   .     S
C977   H978    1.104   .     S
H979   C1469   1.111   .     S
H981   C1468   1.080   .     S
C985   O1017   1.313   .     A
C985   C989    1.450   .     S
C985   O1019   1.323   .     A
C986   O1018   1.313   .     A
C986   C990    1.450   .     S
C986   O1020   1.323   .     A
C987   C1004   1.404   .     A
C987   H1011   1.071   .     S
C987   C1087   1.380   1_455 S
C988   C1003   1.409   .     A
C988   H1012   1.078   .     S
C988   C1088   1.385   .     S
C989   C1318   1.345   1_545 S
C989   H1341   1.087   1_545 S
C990   C1153   1.345   .     S
C990   H1178   1.087   .     S
C991   C996    1.463   .     S
C991   O1021   1.323   .     A
C991   O1023   1.321   .     A
C992   O1022   1.313   .     A
C992   C995    1.466   .     S
C992   O1024   1.329   .     A
C993   C1003   1.421   .     A
C993   C995    1.423   .     A
C993   C1025   1.525   .     S
C994   C1004   1.419   .     A
C994   C1035   1.531   .     S
C994   C996    1.421   .     A
C995   C997    1.404   .     A
C996   C998    1.400   .     A
C997   C999    1.400   .     A
C997   Br1045  1.943   .     S
C998   Br1046  1.928   .     S
C998   C1000   1.402   .     A
C999   C1001   1.412   .     A
C999   C1005   1.398   .     A
C1000  C1006   1.400   .     A
C1000  C1002   1.412   .     A
C1001  C1003   1.418   .     A
C1001  C1084   1.420   .     S
C1002  C1004   1.418   .     A
C1002  C1083   1.420   1_455 S
C1005  H1009   1.079   .     S
C1005  C1069   1.380   .     S
C1006  H1010   1.080   .     S
C1006  C1070   1.385   1_455 S
Cu1007 O1024   1.967   .     S
Cu1007 O1017   1.969   .     S
Cu1007 Cu1008  2.768   .     S
Cu1007 O1021   1.970   .     S
Cu1007 N1016   2.080   .     S
Cu1007 O1020   1.973   .     S
Cu1008 O1023   1.967   .     S
Cu1008 O1022   1.970   .     S
Cu1008 O1019   1.973   .     S
Cu1008 O1018   1.969   .     S
Cu1008 N1015   2.080   .     S
H1013  C1153   1.087   .     S
H1014  C1318   1.087   1_545 S
N1016  N31     1.300   1_556 S
N1016  C73     1.450   1_556 S
C1025  H1034   1.105   .     S
C1025  C1026   1.534   .     S
C1025  H1033   1.094   .     S
C1026  H1032   1.110   .     S
C1026  H1031   1.109   .     S
C1026  C1191   1.530   .     S
C1027  H1028   1.112   .     S
C1027  H1029   1.104   .     S
C1027  H1030   1.111   .     S
C1027  C1354   1.530   1_545 S
C1035  C1036   1.535   .     S
C1035  H1043   1.109   .     S
C1035  H1044   1.111   .     S
C1036  H1042   1.102   .     S
C1036  H1041   1.110   .     S
C1036  C1365   1.531   1_545 S
C1037  H1038   1.106   .     S
C1037  H1039   1.108   .     S
C1037  H1040   1.111   .     S
C1037  C1200   1.531   .     S
C1047  H1055   1.112   .     S
C1047  C1048   1.520   .     S
C1047  H1056   1.085   .     S
C1047  N31     1.445   1_556 S
C1048  H1053   1.113   .     S
C1048  C1049   1.520   .     S
C1048  H70     1.089   1_556 S
C1049  H1051   1.091   .     S
C1049  H1052   1.102   .     S
C1049  H1050   1.111   .     S
C1057  C1058   1.520   .     S
C1057  H1065   1.085   .     S
C1057  H1066   1.113   .     S
C1058  H1064   1.113   .     S
C1058  C1059   1.528   .     S
C1059  H1062   1.107   .     S
C1059  H1060   1.104   .     S
H1061  C75     1.111   1_556 S
H1063  C74     1.080   1_556 S
C1067  O1099   1.313   .     A
C1067  C1071   1.450   .     S
C1067  O1101   1.323   .     A
C1068  O1100   1.313   .     A
C1068  C1072   1.450   .     S
C1068  O1102   1.323   .     A
C1069  C1086   1.404   .     A
C1069  H1093   1.071   .     S
C1070  C1085   1.409   .     A
C1070  H1094   1.078   .     S
C1070  C1006   1.385   1_655 S
C1071  C1400   1.345   1_545 S
C1071  H1423   1.087   1_545 S
C1072  C1235   1.345   .     S
C1072  H1260   1.087   .     S
C1073  C1078   1.463   .     S
C1073  O1103   1.323   .     A
C1073  O1105   1.321   .     A
C1074  O1104   1.313   .     A
C1074  C1077   1.466   .     S
C1074  O1106   1.329   .     A
C1075  C1085   1.421   .     A
C1075  C1077   1.423   .     A
C1075  C1107   1.525   .     S
C1076  C1086   1.419   .     A
C1076  C1117   1.531   .     S
C1076  C1078   1.421   .     A
C1077  C1079   1.404   .     A
C1078  C1080   1.400   .     A
C1079  C1081   1.400   .     A
C1079  Br1127  1.943   .     S
C1080  Br1128  1.928   .     S
C1080  C1082   1.402   .     A
C1081  C1083   1.412   .     A
C1081  C1087   1.398   .     A
C1082  C1088   1.400   .     A
C1082  C1084   1.412   .     A
C1083  C1085   1.418   .     A
C1083  C1002   1.420   1_655 S
C1084  C1086   1.418   .     A
C1087  H1091   1.079   .     S
C1087  C987    1.380   1_655 S
C1088  H1092   1.080   .     S
Cu1089 O1106   1.967   .     S
Cu1089 O1099   1.969   .     S
Cu1089 Cu1090  2.768   .     S
Cu1089 O1103   1.970   .     S
Cu1089 N1098   2.080   .     S
Cu1089 O1102   1.973   .     S
Cu1090 O1105   1.967   .     S
Cu1090 O1104   1.970   .     S
Cu1090 O1101   1.973   .     S
Cu1090 O1100   1.969   .     S
Cu1090 N1097   2.080   .     S
H1095  C1235   1.087   .     S
H1096  C1400   1.087   1_545 S
N1098  N113    1.300   1_556 S
N1098  C155    1.450   1_556 S
C1107  H1116   1.105   .     S
C1107  C1108   1.534   .     S
C1107  H1115   1.094   .     S
C1108  H1114   1.110   .     S
C1108  H1113   1.109   .     S
C1108  C1273   1.530   .     S
C1109  H1110   1.112   .     S
C1109  H1111   1.104   .     S
C1109  H1112   1.111   .     S
C1109  C1436   1.530   1_545 S
C1117  C1118   1.535   .     S
C1117  H1125   1.109   .     S
C1117  H1126   1.111   .     S
C1118  H1124   1.102   .     S
C1118  H1123   1.110   .     S
C1118  C1447   1.531   1_545 S
C1119  H1120   1.106   .     S
C1119  H1121   1.108   .     S
C1119  H1122   1.111   .     S
C1119  C1282   1.531   .     S
C1129  H1137   1.112   .     S
C1129  C1130   1.520   .     S
C1129  H1138   1.085   .     S
C1129  N113    1.445   1_556 S
C1130  H1135   1.113   .     S
C1130  C1131   1.520   .     S
C1130  H152    1.089   1_556 S
C1131  H1133   1.091   .     S
C1131  H1134   1.102   .     S
C1131  H1132   1.111   .     S
C1139  C1140   1.520   .     S
C1139  H1147   1.085   .     S
C1139  H1148   1.113   .     S
C1140  H1146   1.113   .     S
C1140  C1141   1.528   .     S
C1141  H1144   1.107   .     S
C1141  H1142   1.104   .     S
H1143  C157    1.111   1_556 S
H1145  C156    1.080   1_556 S
C1149  O1181   1.313   .     A
C1149  C1153   1.450   .     S
C1149  O1183   1.323   .     A
C1150  O1182   1.313   .     A
C1150  C1154   1.450   .     S
C1150  O1184   1.323   .     A
C1151  C1168   1.404   .     A
C1151  H1175   1.071   .     S
C1151  C1251   1.380   1_455 S
C1152  C1167   1.409   .     A
C1152  H1176   1.078   .     S
C1152  C1252   1.385   .     S
C1154  C1317   1.345   .     S
C1154  H1342   1.087   .     S
C1155  C1160   1.463   .     S
C1155  O1185   1.323   .     A
C1155  O1187   1.321   .     A
C1156  O1186   1.313   .     A
C1156  C1159   1.466   .     S
C1156  O1188   1.329   .     A
C1157  C1167   1.421   .     A
C1157  C1159   1.423   .     A
C1157  C1189   1.525   .     S
C1158  C1168   1.419   .     A
C1158  C1199   1.531   .     S
C1158  C1160   1.421   .     A
C1159  C1161   1.404   .     A
C1160  C1162   1.400   .     A
C1161  C1163   1.400   .     A
C1161  Br1209  1.943   .     S
C1162  Br1210  1.928   .     S
C1162  C1164   1.402   .     A
C1163  C1165   1.412   .     A
C1163  C1169   1.398   .     A
C1164  C1170   1.400   .     A
C1164  C1166   1.412   .     A
C1165  C1167   1.418   .     A
C1165  C1248   1.420   .     S
C1166  C1168   1.418   .     A
C1166  C1247   1.420   1_455 S
C1169  H1173   1.079   .     S
C1169  C1233   1.380   .     S
C1170  H1174   1.080   .     S
C1170  C1234   1.385   1_455 S
Cu1171 O1188   1.967   .     S
Cu1171 O1181   1.969   .     S
Cu1171 Cu1172  2.768   .     S
Cu1171 O1185   1.970   .     S
Cu1171 N1180   2.080   .     S
Cu1171 O1184   1.973   .     S
Cu1172 O1187   1.967   .     S
Cu1172 O1186   1.970   .     S
Cu1172 O1183   1.973   .     S
Cu1172 O1182   1.969   .     S
Cu1172 N1179   2.080   .     S
H1177  C1317   1.087   .     S
N1180  N195    1.300   1_556 S
N1180  C237    1.450   1_556 S
C1189  H1198   1.105   .     S
C1189  C1190   1.534   .     S
C1189  H1197   1.094   .     S
C1190  H1196   1.110   .     S
C1190  H1195   1.109   .     S
C1190  C1355   1.530   .     S
C1191  H1192   1.112   .     S
C1191  H1193   1.104   .     S
C1191  H1194   1.111   .     S
C1199  C1200   1.535   .     S
C1199  H1207   1.109   .     S
C1199  H1208   1.111   .     S
C1200  H1206   1.102   .     S
C1200  H1205   1.110   .     S
C1201  H1202   1.106   .     S
C1201  H1203   1.108   .     S
C1201  H1204   1.111   .     S
C1201  C1364   1.531   .     S
C1211  H1219   1.112   .     S
C1211  C1212   1.520   .     S
C1211  H1220   1.085   .     S
C1211  N195    1.445   1_556 S
C1212  H1217   1.113   .     S
C1212  C1213   1.520   .     S
C1212  H234    1.089   1_556 S
C1213  H1215   1.091   .     S
C1213  H1216   1.102   .     S
C1213  H1214   1.111   .     S
C1221  C1222   1.520   .     S
C1221  H1229   1.085   .     S
C1221  H1230   1.113   .     S
C1222  H1228   1.113   .     S
C1222  C1223   1.528   .     S
C1223  H1226   1.107   .     S
C1223  H1224   1.104   .     S
H1225  C239    1.111   1_556 S
H1227  C238    1.080   1_556 S
C1231  O1263   1.313   .     A
C1231  C1235   1.450   .     S
C1231  O1265   1.323   .     A
C1232  O1264   1.313   .     A
C1232  C1236   1.450   .     S
C1232  O1266   1.323   .     A
C1233  C1250   1.404   .     A
C1233  H1257   1.071   .     S
C1234  C1249   1.409   .     A
C1234  H1258   1.078   .     S
C1234  C1170   1.385   1_655 S
C1236  C1399   1.345   .     S
C1236  H1424   1.087   .     S
C1237  C1242   1.463   .     S
C1237  O1267   1.323   .     A
C1237  O1269   1.321   .     A
C1238  O1268   1.313   .     A
C1238  C1241   1.466   .     S
C1238  O1270   1.329   .     A
C1239  C1249   1.421   .     A
C1239  C1241   1.423   .     A
C1239  C1271   1.525   .     S
C1240  C1250   1.419   .     A
C1240  C1281   1.531   .     S
C1240  C1242   1.421   .     A
C1241  C1243   1.404   .     A
C1242  C1244   1.400   .     A
C1243  C1245   1.400   .     A
C1243  Br1291  1.943   .     S
C1244  Br1292  1.928   .     S
C1244  C1246   1.402   .     A
C1245  C1247   1.412   .     A
C1245  C1251   1.398   .     A
C1246  C1252   1.400   .     A
C1246  C1248   1.412   .     A
C1247  C1249   1.418   .     A
C1247  C1166   1.420   1_655 S
C1248  C1250   1.418   .     A
C1251  H1255   1.079   .     S
C1251  C1151   1.380   1_655 S
C1252  H1256   1.080   .     S
Cu1253 O1270   1.967   .     S
Cu1253 O1263   1.969   .     S
Cu1253 Cu1254  2.768   .     S
Cu1253 O1267   1.970   .     S
Cu1253 N1262   2.080   .     S
Cu1253 O1266   1.973   .     S
Cu1254 O1269   1.967   .     S
Cu1254 O1268   1.970   .     S
Cu1254 O1265   1.973   .     S
Cu1254 O1264   1.969   .     S
Cu1254 N1261   2.080   .     S
H1259  C1399   1.087   .     S
N1262  N277    1.300   1_556 S
N1262  C319    1.450   1_556 S
C1271  H1280   1.105   .     S
C1271  C1272   1.534   .     S
C1271  H1279   1.094   .     S
C1272  H1278   1.110   .     S
C1272  H1277   1.109   .     S
C1272  C1437   1.530   .     S
C1273  H1274   1.112   .     S
C1273  H1275   1.104   .     S
C1273  H1276   1.111   .     S
C1281  C1282   1.535   .     S
C1281  H1289   1.109   .     S
C1281  H1290   1.111   .     S
C1282  H1288   1.102   .     S
C1282  H1287   1.110   .     S
C1283  H1284   1.106   .     S
C1283  H1285   1.108   .     S
C1283  H1286   1.111   .     S
C1283  C1446   1.531   .     S
C1293  H1301   1.112   .     S
C1293  C1294   1.520   .     S
C1293  H1302   1.085   .     S
C1293  N277    1.445   1_556 S
C1294  H1299   1.113   .     S
C1294  C1295   1.520   .     S
C1294  H316    1.089   1_556 S
C1295  H1297   1.091   .     S
C1295  H1298   1.102   .     S
C1295  H1296   1.111   .     S
C1303  C1304   1.520   .     S
C1303  H1311   1.085   .     S
C1303  H1312   1.113   .     S
C1304  H1310   1.113   .     S
C1304  C1305   1.528   .     S
C1305  H1308   1.107   .     S
C1305  H1306   1.104   .     S
H1307  C321    1.111   1_556 S
H1309  C320    1.080   1_556 S
C1313  O1345   1.313   .     A
C1313  C1317   1.450   .     S
C1313  O1347   1.323   .     A
C1314  O1346   1.313   .     A
C1314  C1318   1.450   .     S
C1314  O1348   1.323   .     A
C1315  C1332   1.404   .     A
C1315  H1339   1.071   .     S
C1315  C1415   1.380   1_455 S
C1316  C1331   1.409   .     A
C1316  H1340   1.078   .     S
C1316  C1416   1.385   .     S
C1318  C989    1.345   1_565 S
C1318  H1014   1.087   1_565 S
C1319  C1324   1.463   .     S
C1319  O1349   1.323   .     A
C1319  O1351   1.321   .     A
C1320  O1350   1.313   .     A
C1320  C1323   1.466   .     S
C1320  O1352   1.329   .     A
C1321  C1331   1.421   .     A
C1321  C1323   1.423   .     A
C1321  C1353   1.525   .     S
C1322  C1332   1.419   .     A
C1322  C1363   1.531   .     S
C1322  C1324   1.421   .     A
C1323  C1325   1.404   .     A
C1324  C1326   1.400   .     A
C1325  C1327   1.400   .     A
C1325  Br1373  1.943   .     S
C1326  Br1374  1.928   .     S
C1326  C1328   1.402   .     A
C1327  C1329   1.412   .     A
C1327  C1333   1.398   .     A
C1328  C1334   1.400   .     A
C1328  C1330   1.412   .     A
C1329  C1331   1.418   .     A
C1329  C1412   1.420   .     S
C1330  C1332   1.418   .     A
C1330  C1411   1.420   1_455 S
C1333  H1337   1.079   .     S
C1333  C1397   1.380   .     S
C1334  H1338   1.080   .     S
C1334  C1398   1.385   1_455 S
Cu1335 O1352   1.967   .     S
Cu1335 O1345   1.969   .     S
Cu1335 Cu1336  2.768   .     S
Cu1335 O1349   1.970   .     S
Cu1335 N1344   2.080   .     S
Cu1335 O1348   1.973   .     S
Cu1336 O1351   1.967   .     S
Cu1336 O1350   1.970   .     S
Cu1336 O1347   1.973   .     S
Cu1336 O1346   1.969   .     S
Cu1336 N1343   2.080   .     S
H1341  C989    1.087   1_565 S
N1344  N359    1.300   1_556 S
N1344  C401    1.450   1_556 S
C1353  H1362   1.105   .     S
C1353  C1354   1.534   .     S
C1353  H1361   1.094   .     S
C1354  H1360   1.110   .     S
C1354  H1359   1.109   .     S
C1354  C1027   1.530   1_565 S
C1355  H1356   1.112   .     S
C1355  H1357   1.104   .     S
C1355  H1358   1.111   .     S
C1363  C1364   1.535   .     S
C1363  H1371   1.109   .     S
C1363  H1372   1.111   .     S
C1364  H1370   1.102   .     S
C1364  H1369   1.110   .     S
C1365  H1366   1.106   .     S
C1365  H1367   1.108   .     S
C1365  H1368   1.111   .     S
C1365  C1036   1.531   1_565 S
C1375  H1383   1.112   .     S
C1375  C1376   1.520   .     S
C1375  H1384   1.085   .     S
C1375  N359    1.445   1_556 S
C1376  H1381   1.113   .     S
C1376  C1377   1.520   .     S
C1376  H398    1.089   1_556 S
C1377  H1379   1.091   .     S
C1377  H1380   1.102   .     S
C1377  H1378   1.111   .     S
C1385  C1386   1.520   .     S
C1385  H1393   1.085   .     S
C1385  H1394   1.113   .     S
C1386  H1392   1.113   .     S
C1386  C1387   1.528   .     S
C1387  H1390   1.107   .     S
C1387  H1388   1.104   .     S
H1389  C403    1.111   1_556 S
H1391  C402    1.080   1_556 S
C1395  O1427   1.313   .     A
C1395  C1399   1.450   .     S
C1395  O1429   1.323   .     A
C1396  O1428   1.313   .     A
C1396  C1400   1.450   .     S
C1396  O1430   1.323   .     A
C1397  C1414   1.404   .     A
C1397  H1421   1.071   .     S
C1398  C1413   1.409   .     A
C1398  H1422   1.078   .     S
C1398  C1334   1.385   1_655 S
C1400  C1071   1.345   1_565 S
C1400  H1096   1.087   1_565 S
C1401  C1406   1.463   .     S
C1401  O1431   1.323   .     A
C1401  O1433   1.321   .     A
C1402  O1432   1.313   .     A
C1402  C1405   1.466   .     S
C1402  O1434   1.329   .     A
C1403  C1413   1.421   .     A
C1403  C1405   1.423   .     A
C1403  C1435   1.525   .     S
C1404  C1414   1.419   .     A
C1404  C1445   1.531   .     S
C1404  C1406   1.421   .     A
C1405  C1407   1.404   .     A
C1406  C1408   1.400   .     A
C1407  C1409   1.400   .     A
C1407  Br1455  1.943   .     S
C1408  Br1456  1.928   .     S
C1408  C1410   1.402   .     A
C1409  C1411   1.412   .     A
C1409  C1415   1.398   .     A
C1410  C1416   1.400   .     A
C1410  C1412   1.412   .     A
C1411  C1413   1.418   .     A
C1411  C1330   1.420   1_655 S
C1412  C1414   1.418   .     A
C1415  H1419   1.079   .     S
C1415  C1315   1.380   1_655 S
C1416  H1420   1.080   .     S
Cu1417 O1434   1.967   .     S
Cu1417 O1427   1.969   .     S
Cu1417 Cu1418  2.768   .     S
Cu1417 O1431   1.970   .     S
Cu1417 N1426   2.080   .     S
Cu1417 O1430   1.973   .     S
Cu1418 O1433   1.967   .     S
Cu1418 O1432   1.970   .     S
Cu1418 O1429   1.973   .     S
Cu1418 O1428   1.969   .     S
Cu1418 N1425   2.080   .     S
H1423  C1071   1.087   1_565 S
N1426  N441    1.300   1_556 S
N1426  C483    1.450   1_556 S
C1435  H1444   1.105   .     S
C1435  C1436   1.534   .     S
C1435  H1443   1.094   .     S
C1436  H1442   1.110   .     S
C1436  H1441   1.109   .     S
C1436  C1109   1.530   1_565 S
C1437  H1438   1.112   .     S
C1437  H1439   1.104   .     S
C1437  H1440   1.111   .     S
C1445  C1446   1.535   .     S
C1445  H1453   1.109   .     S
C1445  H1454   1.111   .     S
C1446  H1452   1.102   .     S
C1446  H1451   1.110   .     S
C1447  H1448   1.106   .     S
C1447  H1449   1.108   .     S
C1447  H1450   1.111   .     S
C1447  C1118   1.531   1_565 S
C1457  H1465   1.112   .     S
C1457  C1458   1.520   .     S
C1457  H1466   1.085   .     S
C1457  N441    1.445   1_556 S
C1458  H1463   1.113   .     S
C1458  C1459   1.520   .     S
C1458  H480    1.089   1_556 S
C1459  H1461   1.091   .     S
C1459  H1462   1.102   .     S
C1459  H1460   1.111   .     S
C1467  C1468   1.520   .     S
C1467  H1475   1.085   .     S
C1467  H1476   1.113   .     S
C1468  H1474   1.113   .     S
C1468  C1469   1.528   .     S
C1469  H1472   1.107   .     S
C1469  H1470   1.104   .     S
H1471  C485    1.111   1_556 S
H1473  C484    1.080   1_556 S
