data_str_m1_o1_o17_pcu_sym.124
_audit_creation_date              2020-01-03
_audit_creation_method            'Materials Studio'
_symmetry_space_group_name_H-M    'P1'
_symmetry_Int_Tables_number       1
_symmetry_cell_setting            triclinic
loop_
_symmetry_equiv_pos_as_xyz
  x,y,z
_cell_length_a                    36.5727
_cell_length_b                    36.5732
_cell_length_c                    34.5742
_cell_angle_alpha                 90.0000
_cell_angle_beta                  90.0000
_cell_angle_gamma                 89.6103
loop_
_atom_site_label
_atom_site_type_symbol
_atom_site_fract_x
_atom_site_fract_y
_atom_site_fract_z
_atom_site_U_iso_or_equiv
_atom_site_adp_type
_atom_site_occupancy
C1     C     0.01569   0.27956   0.41787   0.00000  Uiso   1.00
C2     C     0.23305   0.47125   0.08214   0.00000  Uiso   1.00
C3     C     0.22025   0.48364   0.54103   0.00000  Uiso   1.00
C4     C     0.01636   0.27975   0.45897   0.00000  Uiso   1.00
C5     C     0.48570   0.21954   0.54127   0.00000  Uiso   1.00
C6     C     0.21954   0.48570   0.45873   0.00000  Uiso   1.00
C7     C     0.27975   0.01636   0.54103   0.00000  Uiso   1.00
C8     C     0.23363   0.47026   0.95897   0.00000  Uiso   1.00
C9     C     0.26432   0.03045   0.04127   0.00000  Uiso   1.00
C10    C     0.03047   0.26428   0.95873   0.00000  Uiso   1.00
C11    C     0.47024   0.23365   0.04103   0.00000  Uiso   1.00
C12    C     0.26637   0.02974   0.95897   0.00000  Uiso   1.00
C13    C     0.47123   0.23308   0.91786   0.00000  Uiso   1.00
C14    C     0.23568   0.46955   0.04127   0.00000  Uiso   1.00
C15    C     0.46953   0.23572   0.95873   0.00000  Uiso   1.00
C16    C     0.02976   0.26635   0.04103   0.00000  Uiso   1.00
C17    C     0.09809   0.34809   0.25000   0.00000  Uiso   1.00
C18    C     0.40191   0.15191   0.75000   0.00000  Uiso   1.00
C19    C     0.15198   0.09802   0.25000   0.00000  Uiso   1.00
C20    C     0.34806   0.40194   0.75000   0.00000  Uiso   1.00
C21    C     0.40191   0.15191   0.25000   0.00000  Uiso   1.00
C22    C     0.09810   0.34809   0.75000   0.00000  Uiso   1.00
C23    C     0.34802   0.40198   0.25000   0.00000  Uiso   1.00
C24    C     0.02955   0.26569   0.08213   0.00000  Uiso   1.00
C25    C     0.15194   0.09806   0.75000   0.00000  Uiso   1.00
C26    C     0.09802   0.15198   0.75000   0.00000  Uiso   1.00
C27    C     0.40194   0.34806   0.25000   0.00000  Uiso   1.00
C28    C     0.15191   0.40191   0.75000   0.00000  Uiso   1.00
C29    C     0.34810   0.09809   0.25000   0.00000  Uiso   1.00
C30    C     0.40198   0.34802   0.75000   0.00000  Uiso   1.00
C31    C     0.09806   0.15194   0.25000   0.00000  Uiso   1.00
C32    C     0.34809   0.09809   0.75000   0.00000  Uiso   1.00
C33    C     0.15191   0.40191   0.25000   0.00000  Uiso   1.00
C34    C     0.00000   0.25000   0.47943   0.00000  Uiso   1.00
C35    C     0.23432   0.47044   0.91787   0.00000  Uiso   1.00
C36    C     0.00000   0.25000   0.52066   0.00000  Uiso   1.00
C37    C     0.25000  -0.00000   0.47934   0.00000  Uiso   1.00
C38    C     0.25000  -0.00000   0.52057   0.00000  Uiso   1.00
C39    C     0.25000  -0.00000   0.97943   0.00000  Uiso   1.00
C40    C     0.25000  -0.00000   0.02066   0.00000  Uiso   1.00
C41    C    -0.00000   0.25000   0.97934   0.00000  Uiso   1.00
C42    C    -0.00000   0.25000   0.02057   0.00000  Uiso   1.00
C43    C     0.02777   0.31124   0.39424   0.00000  Uiso   1.00
C44    C     0.06268   0.31129   0.37713   0.00000  Uiso   1.00
C45    C     0.07376   0.34098   0.35466   0.00000  Uiso   1.00
C46    C     0.26695   0.02875   0.08214   0.00000  Uiso   1.00
C47    C     0.05020   0.37078   0.34920   0.00000  Uiso   1.00
C48    C     0.01538   0.37078   0.36588   0.00000  Uiso   1.00
C49    C     0.00401   0.34098   0.38809   0.00000  Uiso   1.00
C50    C     0.46064   0.19494   0.60478   0.00000  Uiso   1.00
C51    C     0.47743   0.17007   0.63040   0.00000  Uiso   1.00
C52    C     0.45614   0.14621   0.65234   0.00000  Uiso   1.00
C53    C     0.41808   0.14710   0.64909   0.00000  Uiso   1.00
C54    C     0.40118   0.17178   0.62382   0.00000  Uiso   1.00
C55    C     0.42234   0.19569   0.60171   0.00000  Uiso   1.00
C56    C     0.19493   0.46064   0.39522   0.00000  Uiso   1.00
C57    C     0.02877   0.26692   0.91786   0.00000  Uiso   1.00
C58    C     0.17007   0.47743   0.36960   0.00000  Uiso   1.00
C59    C     0.14621   0.45615   0.34766   0.00000  Uiso   1.00
C60    C     0.14709   0.41808   0.35091   0.00000  Uiso   1.00
C61    C     0.17178   0.40118   0.37618   0.00000  Uiso   1.00
C62    C     0.19569   0.42234   0.39829   0.00000  Uiso   1.00
C63    C     0.31124   0.02778   0.60576   0.00000  Uiso   1.00
C64    C     0.31129   0.06268   0.62287   0.00000  Uiso   1.00
C65    C     0.34098   0.07376   0.64534   0.00000  Uiso   1.00
C66    C     0.37078   0.05020   0.65080   0.00000  Uiso   1.00
C67    C     0.37078   0.01538   0.63411   0.00000  Uiso   1.00
C68    C     0.47044   0.23431   0.08213   0.00000  Uiso   1.00
C69    C     0.34099   0.00401   0.61191   0.00000  Uiso   1.00
C70    C     0.47223   0.18876   0.39424   0.00000  Uiso   1.00
C71    C     0.43732   0.18871   0.37713   0.00000  Uiso   1.00
C72    C     0.42624   0.15902   0.35466   0.00000  Uiso   1.00
C73    C     0.44981   0.12922   0.34920   0.00000  Uiso   1.00
C74    C     0.48462   0.12922   0.36588   0.00000  Uiso   1.00
C75    C     0.49599   0.15902   0.38809   0.00000  Uiso   1.00
C76    C     0.03936   0.30506   0.60478   0.00000  Uiso   1.00
C77    C     0.02257   0.32993   0.63040   0.00000  Uiso   1.00
C78    C     0.04386   0.35379   0.65234   0.00000  Uiso   1.00
C79    C     0.00000   0.25000   0.39810   0.00000  Uiso   1.00
C80    C     0.08192   0.35290   0.64909   0.00000  Uiso   1.00
C81    C     0.09882   0.32822   0.62382   0.00000  Uiso   1.00
C82    C     0.07766   0.30431   0.60171   0.00000  Uiso   1.00
C83    C     0.30507   0.03936   0.39522   0.00000  Uiso   1.00
C84    C     0.32993   0.02257   0.36960   0.00000  Uiso   1.00
C85    C     0.35379   0.04385   0.34766   0.00000  Uiso   1.00
C86    C     0.35291   0.08192   0.35091   0.00000  Uiso   1.00
C87    C     0.32822   0.09882   0.37618   0.00000  Uiso   1.00
C88    C     0.30431   0.07766   0.39829   0.00000  Uiso   1.00
C89    C     0.18876   0.47222   0.60576   0.00000  Uiso   1.00
C90    C     0.00000   0.25000   0.60204   0.00000  Uiso   1.00
C91    C     0.18872   0.43732   0.62287   0.00000  Uiso   1.00
C92    C     0.15902   0.42624   0.64534   0.00000  Uiso   1.00
C93    C     0.12922   0.44980   0.65080   0.00000  Uiso   1.00
C94    C     0.12922   0.48462   0.63411   0.00000  Uiso   1.00
C95    C     0.15901   0.49599   0.61191   0.00000  Uiso   1.00
C96    C     0.27772   0.06127   0.89425   0.00000  Uiso   1.00
C97    C     0.31260   0.06134   0.87707   0.00000  Uiso   1.00
C98    C     0.32364   0.09106   0.85463   0.00000  Uiso   1.00
C99    C     0.30006   0.12086   0.84924   0.00000  Uiso   1.00
C100   C     0.26527   0.12084   0.86599   0.00000  Uiso   1.00
C101   C     0.25000  -0.00000   0.39796   0.00000  Uiso   1.00
C102   C     0.25394   0.09102   0.88819   0.00000  Uiso   1.00
C103   C     0.21062   0.44495   0.10478   0.00000  Uiso   1.00
C104   C     0.22740   0.42008   0.13039   0.00000  Uiso   1.00
C105   C     0.20611   0.39623   0.15234   0.00000  Uiso   1.00
C106   C     0.16804   0.39714   0.14910   0.00000  Uiso   1.00
C107   C     0.15114   0.42184   0.12384   0.00000  Uiso   1.00
C108   C     0.17231   0.44573   0.10173   0.00000  Uiso   1.00
C109   C     0.44491   0.21067   0.89522   0.00000  Uiso   1.00
C110   C     0.42006   0.22747   0.86960   0.00000  Uiso   1.00
C111   C     0.39618   0.20621   0.84766   0.00000  Uiso   1.00
C112   C     0.48306   0.22124   0.58214   0.00000  Uiso   1.00
C113   C     0.25000  -0.00000   0.60190   0.00000  Uiso   1.00
C114   C     0.39703   0.16814   0.85092   0.00000  Uiso   1.00
C115   C     0.42171   0.15122   0.87619   0.00000  Uiso   1.00
C116   C     0.44563   0.17237   0.89829   0.00000  Uiso   1.00
C117   C     0.06122   0.27780   0.10577   0.00000  Uiso   1.00
C118   C     0.06126   0.31272   0.12284   0.00000  Uiso   1.00
C119   C     0.09093   0.32383   0.14531   0.00000  Uiso   1.00
C120   C     0.12073   0.30027   0.15083   0.00000  Uiso   1.00
C121   C     0.12074   0.26544   0.13418   0.00000  Uiso   1.00
C122   C     0.09097   0.25405   0.11196   0.00000  Uiso   1.00
C123   C     0.22228   0.43873   0.89425   0.00000  Uiso   1.00
C124   C     0.25000  -0.00000   0.89810   0.00000  Uiso   1.00
C125   C     0.18740   0.43866   0.87708   0.00000  Uiso   1.00
C126   C     0.17636   0.40894   0.85463   0.00000  Uiso   1.00
C127   C     0.19994   0.37914   0.84924   0.00000  Uiso   1.00
C128   C     0.23473   0.37917   0.86599   0.00000  Uiso   1.00
C129   C     0.24606   0.40898   0.88818   0.00000  Uiso   1.00
C130   C     0.28938   0.05505   0.10478   0.00000  Uiso   1.00
C131   C     0.27260   0.07992   0.13039   0.00000  Uiso   1.00
C132   C     0.29390   0.10377   0.15234   0.00000  Uiso   1.00
C133   C     0.33196   0.10286   0.14910   0.00000  Uiso   1.00
C134   C     0.34886   0.07816   0.12384   0.00000  Uiso   1.00
C135   C     0.25000   0.00000   0.10204   0.00000  Uiso   1.00
C136   C     0.32769   0.05427   0.10173   0.00000  Uiso   1.00
C137   C     0.05509   0.28933   0.89522   0.00000  Uiso   1.00
C138   C     0.07994   0.27253   0.86960   0.00000  Uiso   1.00
C139   C     0.10382   0.29380   0.84766   0.00000  Uiso   1.00
C140   C     0.10296   0.33186   0.85092   0.00000  Uiso   1.00
C141   C     0.07828   0.34878   0.87619   0.00000  Uiso   1.00
C142   C     0.05436   0.32763   0.89829   0.00000  Uiso   1.00
C143   C     0.43878   0.22219   0.10577   0.00000  Uiso   1.00
C144   C     0.43875   0.18727   0.12283   0.00000  Uiso   1.00
C145   C     0.40907   0.17617   0.14531   0.00000  Uiso   1.00
C146   C     0.00000   0.25000   0.89796   0.00000  Uiso   1.00
C147   C     0.37927   0.19972   0.15083   0.00000  Uiso   1.00
C148   C     0.37926   0.23455   0.13418   0.00000  Uiso   1.00
C149   C     0.40904   0.24595   0.11197   0.00000  Uiso   1.00
C150   C    -0.00000   0.25000   0.10190   0.00000  Uiso   1.00
C151   C     0.46850   0.19079   0.48054   0.00000  Uiso   1.00
C152   C     0.02612   0.31137   0.52032   0.00000  Uiso   1.00
C153   C     0.31137   0.02612   0.47968   0.00000  Uiso   1.00
C154   C     0.19079   0.46850   0.51946   0.00000  Uiso   1.00
C155   C     0.03150   0.30921   0.48054   0.00000  Uiso   1.00
C156   C     0.22124   0.48306   0.41786   0.00000  Uiso   1.00
C157   C     0.47388   0.18863   0.52032   0.00000  Uiso   1.00
C158   C     0.18863   0.47388   0.47968   0.00000  Uiso   1.00
C159   C     0.30921   0.03150   0.51946   0.00000  Uiso   1.00
C160   C     0.21846   0.44082   0.98054   0.00000  Uiso   1.00
C161   C     0.27617   0.06135   0.02032   0.00000  Uiso   1.00
C162   C     0.06139   0.27608   0.97968   0.00000  Uiso   1.00
C163   C     0.44077   0.21854   0.01946   0.00000  Uiso   1.00
C164   C     0.28154   0.05918   0.98054   0.00000  Uiso   1.00
C165   C     0.22383   0.43865   0.02032   0.00000  Uiso   1.00
C166   C     0.43861   0.22392   0.97968   0.00000  Uiso   1.00
C167   C     0.27956   0.01569   0.58213   0.00000  Uiso   1.00
C168   C     0.05922   0.28147   0.01946   0.00000  Uiso   1.00
C169   C     0.25000  -0.00000   0.35569   0.00000  Uiso   1.00
C170   C     0.25000   0.00000   0.64429   0.00000  Uiso   1.00
C171   C     0.00000   0.25000   0.35571   0.00000  Uiso   1.00
C172   C     0.00000   0.25000   0.64431   0.00000  Uiso   1.00
C173   C     0.00000   0.25000   0.85569   0.00000  Uiso   1.00
C174   C     0.00000   0.25000   0.14429   0.00000  Uiso   1.00
C175   C     0.25000  -0.00000   0.85571   0.00000  Uiso   1.00
C176   C     0.25000  -0.00000   0.14431   0.00000  Uiso   1.00
C177   C     0.18004   0.06996   0.25000   0.00000  Uiso   1.00
C178   C     0.48431   0.22044   0.41787   0.00000  Uiso   1.00
C179   C     0.31997   0.43003   0.75000   0.00000  Uiso   1.00
C180   C     0.42998   0.17998   0.25000   0.00000  Uiso   1.00
C181   C     0.07003   0.32002   0.75000   0.00000  Uiso   1.00
C182   C     0.31996   0.43004   0.25000   0.00000  Uiso   1.00
C183   C     0.18003   0.06997   0.75000   0.00000  Uiso   1.00
C184   C     0.07002   0.32002   0.25000   0.00000  Uiso   1.00
C185   C     0.42998   0.17998   0.75000   0.00000  Uiso   1.00
C186   C     0.17998   0.42998   0.75000   0.00000  Uiso   1.00
C187   C     0.32003   0.07002   0.25000   0.00000  Uiso   1.00
C188   C     0.43004   0.31996   0.75000   0.00000  Uiso   1.00
C189   C     0.01694   0.27876   0.58214   0.00000  Uiso   1.00
C190   C     0.06997   0.18003   0.25000   0.00000  Uiso   1.00
C191   C     0.32002   0.07002   0.75000   0.00000  Uiso   1.00
C192   C     0.17998   0.42998   0.25000   0.00000  Uiso   1.00
C193   C     0.06996   0.18004   0.75000   0.00000  Uiso   1.00
C194   C     0.43003   0.31997   0.25000   0.00000  Uiso   1.00
C195   C     0.11475   0.41211   0.24742   0.00000  Uiso   1.00
C196   C     0.38523   0.08788   0.75256   0.00000  Uiso   1.00
C197   C     0.09071   0.11775   0.26667   0.00000  Uiso   1.00
C198   C     0.40929   0.38214   0.73317   0.00000  Uiso   1.00
C199   C     0.38525   0.08789   0.24742   0.00000  Uiso   1.00
C200   C     0.27876   0.01694   0.41786   0.00000  Uiso   1.00
C201   C     0.11477   0.41212   0.75256   0.00000  Uiso   1.00
C202   C     0.40929   0.38225   0.26667   0.00000  Uiso   1.00
C203   C     0.09071   0.11786   0.73317   0.00000  Uiso   1.00
C204   C     0.11776   0.09072   0.73332   0.00000  Uiso   1.00
C205   C     0.38215   0.40929   0.26683   0.00000  Uiso   1.00
C206   C     0.08789   0.38525   0.75258   0.00000  Uiso   1.00
C207   C     0.41212   0.11477   0.24743   0.00000  Uiso   1.00
C208   C     0.38225   0.40929   0.73332   0.00000  Uiso   1.00
C209   C     0.11785   0.09071   0.26683   0.00000  Uiso   1.00
C210   C     0.41211   0.11475   0.75258   0.00000  Uiso   1.00
C211   C     0.22044   0.48431   0.58213   0.00000  Uiso   1.00
C212   C     0.08788   0.38523   0.24743   0.00000  Uiso   1.00
C213   C     0.36475   0.16211   0.74743   0.00000  Uiso   1.00
C214   C     0.13523   0.33788   0.25257   0.00000  Uiso   1.00
C215   C     0.34071   0.36776   0.76668   0.00000  Uiso   1.00
C216   C     0.15929   0.13215   0.23318   0.00000  Uiso   1.00
C217   C     0.13525   0.33789   0.74743   0.00000  Uiso   1.00
C218   C     0.36477   0.16212   0.25257   0.00000  Uiso   1.00
C219   C     0.15929   0.13224   0.76668   0.00000  Uiso   1.00
C220   C     0.34071   0.36785   0.23318   0.00000  Uiso   1.00
C221   C     0.36775   0.34071   0.23333   0.00000  Uiso   1.00
C222   C     0.26568   0.02956   0.91787   0.00000  Uiso   1.00
C223   C     0.13214   0.15929   0.76684   0.00000  Uiso   1.00
C224   C     0.33789   0.13525   0.25258   0.00000  Uiso   1.00
C225   C     0.16212   0.36477   0.74744   0.00000  Uiso   1.00
C226   C     0.13225   0.15929   0.23333   0.00000  Uiso   1.00
C227   C     0.36786   0.34071   0.76683   0.00000  Uiso   1.00
C228   C     0.16211   0.36475   0.25258   0.00000  Uiso   1.00
C229   C     0.33788   0.13523   0.74744   0.00000  Uiso   1.00
C230   C     0.48364   0.22025   0.45897   0.00000  Uiso   1.00
C231   C     0.01430   0.28046   0.54127   0.00000  Uiso   1.00
C232   C     0.28046   0.01430   0.45873   0.00000  Uiso   1.00
Cl233  Cl    0.43937   0.15670   0.46112   0.00000  Uiso   1.00
Cl234  Cl    0.27952   0.10560   0.04134   0.00000  Uiso   1.00
Cl235  Cl    0.10564   0.27934   0.95865   0.00000  Uiso   1.00
Cl236  Cl    0.40664   0.18944   0.03887   0.00000  Uiso   1.00
Cl237  Cl    0.31073   0.09323   0.96111   0.00000  Uiso   1.00
Cl238  Cl    0.22049   0.39440   0.04134   0.00000  Uiso   1.00
Cl239  Cl    0.39436   0.22067   0.95865   0.00000  Uiso   1.00
Cl240  Cl    0.09335   0.31057   0.03887   0.00000  Uiso   1.00
Cl241  Cl    0.10107   0.45866   0.24613   0.00000  Uiso   1.00
Cl242  Cl    0.39888   0.04131   0.75386   0.00000  Uiso   1.00
Cl243  Cl    0.04785   0.10911   0.28828   0.00000  Uiso   1.00
Cl244  Cl    0.02942   0.35562   0.54135   0.00000  Uiso   1.00
Cl245  Cl    0.45194   0.39052   0.71086   0.00000  Uiso   1.00
Cl246  Cl    0.39893   0.04134   0.24613   0.00000  Uiso   1.00
Cl247  Cl    0.10112   0.45869   0.75386   0.00000  Uiso   1.00
Cl248  Cl    0.45215   0.39089   0.28828   0.00000  Uiso   1.00
Cl249  Cl    0.04806   0.10948   0.71086   0.00000  Uiso   1.00
Cl250  Cl    0.10912   0.04786   0.71170   0.00000  Uiso   1.00
Cl251  Cl    0.39053   0.45195   0.28912   0.00000  Uiso   1.00
Cl252  Cl    0.04134   0.39893   0.75387   0.00000  Uiso   1.00
Cl253  Cl    0.45869   0.10112   0.24613   0.00000  Uiso   1.00
Cl254  Cl    0.39088   0.45215   0.71170   0.00000  Uiso   1.00
Cl255  Cl    0.35562   0.02942   0.45865   0.00000  Uiso   1.00
Cl256  Cl    0.10947   0.04805   0.28912   0.00000  Uiso   1.00
Cl257  Cl    0.45866   0.10107   0.75387   0.00000  Uiso   1.00
Cl258  Cl    0.04131   0.39888   0.24613   0.00000  Uiso   1.00
Cl259  Cl    0.35107   0.20866   0.74614   0.00000  Uiso   1.00
Cl260  Cl    0.14888   0.29131   0.25387   0.00000  Uiso   1.00
Cl261  Cl    0.29785   0.35912   0.78831   0.00000  Uiso   1.00
Cl262  Cl    0.20195   0.14053   0.21088   0.00000  Uiso   1.00
Cl263  Cl    0.14893   0.29134   0.74614   0.00000  Uiso   1.00
Cl264  Cl    0.35112   0.20869   0.25387   0.00000  Uiso   1.00
Cl265  Cl    0.20215   0.14088   0.78831   0.00000  Uiso   1.00
Cl266  Cl    0.15670   0.43936   0.53888   0.00000  Uiso   1.00
Cl267  Cl    0.29805   0.35947   0.21088   0.00000  Uiso   1.00
Cl268  Cl    0.35911   0.29785   0.21172   0.00000  Uiso   1.00
Cl269  Cl    0.14053   0.20194   0.78914   0.00000  Uiso   1.00
Cl270  Cl    0.29134   0.14893   0.25387   0.00000  Uiso   1.00
Cl271  Cl    0.20869   0.35112   0.74615   0.00000  Uiso   1.00
Cl272  Cl    0.14089   0.20215   0.21172   0.00000  Uiso   1.00
Cl273  Cl    0.35947   0.29806   0.78914   0.00000  Uiso   1.00
Cl274  Cl    0.20866   0.35107   0.25387   0.00000  Uiso   1.00
Cl275  Cl    0.29131   0.14888   0.74615   0.00000  Uiso   1.00
Cl276  Cl    0.06063   0.34331   0.46112   0.00000  Uiso   1.00
Cl277  Cl    0.47058   0.14438   0.54135   0.00000  Uiso   1.00
Cl278  Cl    0.14438   0.47058   0.45865   0.00000  Uiso   1.00
Cl279  Cl    0.34330   0.06064   0.53888   0.00000  Uiso   1.00
Cl280  Cl    0.18927   0.40677   0.96111   0.00000  Uiso   1.00
H281   H     0.08123   0.28844   0.38145   0.00000  Uiso   1.00
H282   H     0.40898   0.21486   0.58237   0.00000  Uiso   1.00
H283   H     0.16922   0.00692   0.36677   0.00000  Uiso   1.00
H284   H     0.12708   0.46917   0.32809   0.00000  Uiso   1.00
H285   H     0.12876   0.40170   0.33371   0.00000  Uiso   1.00
H286   H     0.17245   0.37167   0.37854   0.00000  Uiso   1.00
H287   H     0.21486   0.40898   0.41763   0.00000  Uiso   1.00
H288   H     0.28844   0.08123   0.61855   0.00000  Uiso   1.00
H289   H     0.34087   0.10064   0.65842   0.00000  Uiso   1.00
H290   H     0.39390   0.05892   0.66790   0.00000  Uiso   1.00
H291   H     0.39393   0.49723   0.63829   0.00000  Uiso   1.00
H292   H     0.10064   0.34087   0.34158   0.00000  Uiso   1.00
H293   H     0.34120   0.47696   0.59917   0.00000  Uiso   1.00
H294   H     0.41877   0.21156   0.38145   0.00000  Uiso   1.00
H295   H     0.39937   0.15913   0.34158   0.00000  Uiso   1.00
H296   H     0.44109   0.10610   0.33209   0.00000  Uiso   1.00
H297   H     0.00277   0.10608   0.36170   0.00000  Uiso   1.00
H298   H     0.02305   0.15880   0.40082   0.00000  Uiso   1.00
H299   H     0.49308   0.33078   0.63323   0.00000  Uiso   1.00
H300   H     0.03083   0.37292   0.67191   0.00000  Uiso   1.00
H301   H     0.09831   0.37123   0.66629   0.00000  Uiso   1.00
H302   H     0.12833   0.32754   0.62146   0.00000  Uiso   1.00
H303   H     0.05891   0.39390   0.33209   0.00000  Uiso   1.00
H304   H     0.09102   0.28514   0.58237   0.00000  Uiso   1.00
H305   H     0.33078   0.49308   0.36677   0.00000  Uiso   1.00
H306   H     0.37292   0.03083   0.32809   0.00000  Uiso   1.00
H307   H     0.37124   0.09830   0.33371   0.00000  Uiso   1.00
H308   H     0.32755   0.12833   0.37854   0.00000  Uiso   1.00
H309   H     0.28514   0.09102   0.41763   0.00000  Uiso   1.00
H310   H     0.21156   0.41877   0.61855   0.00000  Uiso   1.00
H311   H     0.15913   0.39936   0.65842   0.00000  Uiso   1.00
H312   H     0.10610   0.44108   0.66790   0.00000  Uiso   1.00
H313   H     0.10607   0.00277   0.63829   0.00000  Uiso   1.00
H314   H     0.49723   0.39392   0.36170   0.00000  Uiso   1.00
H315   H     0.15880   0.02304   0.59917   0.00000  Uiso   1.00
H316   H     0.33117   0.03850   0.88133   0.00000  Uiso   1.00
H317   H     0.35049   0.09097   0.84149   0.00000  Uiso   1.00
H318   H     0.30875   0.14401   0.83215   0.00000  Uiso   1.00
H319   H     0.24711   0.14398   0.86187   0.00000  Uiso   1.00
H320   H     0.22691   0.09121   0.90097   0.00000  Uiso   1.00
H321   H     0.25689   0.41920   0.13321   0.00000  Uiso   1.00
H322   H     0.21912   0.37709   0.17190   0.00000  Uiso   1.00
H323   H     0.15165   0.37882   0.16631   0.00000  Uiso   1.00
H324   H     0.12164   0.42253   0.12149   0.00000  Uiso   1.00
H325   H     0.47695   0.34120   0.40082   0.00000  Uiso   1.00
H326   H     0.15896   0.46492   0.08240   0.00000  Uiso   1.00
H327   H     0.41923   0.25696   0.86676   0.00000  Uiso   1.00
H328   H     0.37706   0.21924   0.82808   0.00000  Uiso   1.00
H329   H     0.37869   0.15177   0.83372   0.00000  Uiso   1.00
H330   H     0.42236   0.12172   0.87856   0.00000  Uiso   1.00
H331   H     0.46480   0.15900   0.91764   0.00000  Uiso   1.00
H332   H     0.03841   0.33127   0.11849   0.00000  Uiso   1.00
H333   H     0.09081   0.35072   0.15837   0.00000  Uiso   1.00
H334   H     0.14384   0.30901   0.16793   0.00000  Uiso   1.00
H335   H     0.14389   0.24730   0.13839   0.00000  Uiso   1.00
H336   H     0.00692   0.16922   0.63323   0.00000  Uiso   1.00
H337   H     0.09119   0.22698   0.09926   0.00000  Uiso   1.00
H338   H     0.16883   0.46150   0.88134   0.00000  Uiso   1.00
H339   H     0.14951   0.40903   0.84149   0.00000  Uiso   1.00
H340   H     0.19125   0.35600   0.83215   0.00000  Uiso   1.00
H341   H     0.25289   0.35602   0.86187   0.00000  Uiso   1.00
H342   H     0.27309   0.40879   0.90096   0.00000  Uiso   1.00
H343   H     0.24312   0.08080   0.13321   0.00000  Uiso   1.00
H344   H     0.28088   0.12291   0.17190   0.00000  Uiso   1.00
H345   H     0.34835   0.12118   0.16631   0.00000  Uiso   1.00
H346   H     0.37836   0.07747   0.12149   0.00000  Uiso   1.00
H347   H     0.46917   0.12708   0.67191   0.00000  Uiso   1.00
H348   H     0.34104   0.03508   0.08240   0.00000  Uiso   1.00
H349   H     0.08077   0.24304   0.86676   0.00000  Uiso   1.00
H350   H     0.12294   0.28077   0.82809   0.00000  Uiso   1.00
H351   H     0.12131   0.34824   0.83372   0.00000  Uiso   1.00
H352   H     0.07764   0.37828   0.87856   0.00000  Uiso   1.00
H353   H     0.03520   0.34100   0.91764   0.00000  Uiso   1.00
H354   H     0.46159   0.16873   0.11848   0.00000  Uiso   1.00
H355   H     0.40919   0.14928   0.15837   0.00000  Uiso   1.00
H356   H     0.35616   0.19098   0.16794   0.00000  Uiso   1.00
H357   H     0.35611   0.25270   0.13840   0.00000  Uiso   1.00
H358   H     0.40169   0.12877   0.66629   0.00000  Uiso   1.00
H359   H     0.40881   0.27302   0.09927   0.00000  Uiso   1.00
H360   H     0.37167   0.17246   0.62146   0.00000  Uiso   1.00
O361   O     0.25000  -0.00000   0.25000   0.00000  Uiso   1.00
O362   O     0.25000   0.46964   0.66245   0.00000  Uiso   1.00
O363   O     0.46964   0.25000   0.33755   0.00000  Uiso   1.00
O364   O     0.03037   0.25000   0.66245   0.00000  Uiso   1.00
O365   O     0.00000   0.21964   0.83755   0.00000  Uiso   1.00
O366   O     0.00000   0.28037   0.16245   0.00000  Uiso   1.00
O367   O     0.28037  -0.00000   0.83755   0.00000  Uiso   1.00
O368   O     0.21964   0.00000   0.16245   0.00000  Uiso   1.00
O369   O     0.00000   0.28037   0.83755   0.00000  Uiso   1.00
O370   O     0.00000   0.21964   0.16245   0.00000  Uiso   1.00
O371   O     0.21964  -0.00000   0.83755   0.00000  Uiso   1.00
O372   O     0.25000   0.00000   0.75000   0.00000  Uiso   1.00
O373   O     0.28037   0.00000   0.16245   0.00000  Uiso   1.00
O374   O     0.20725   0.07308   0.27302   0.00000  Uiso   1.00
O375   O     0.29276   0.42693   0.72698   0.00000  Uiso   1.00
O376   O     0.42693   0.20725   0.27302   0.00000  Uiso   1.00
O377   O     0.07308   0.29276   0.72698   0.00000  Uiso   1.00
O378   O     0.29276   0.42693   0.27302   0.00000  Uiso   1.00
O379   O     0.20725   0.07308   0.72698   0.00000  Uiso   1.00
O380   O     0.07308   0.29276   0.27302   0.00000  Uiso   1.00
O381   O     0.42693   0.20725   0.72698   0.00000  Uiso   1.00
O382   O     0.20725   0.42693   0.72698   0.00000  Uiso   1.00
O383   O     0.00000   0.25000   0.25000   0.00000  Uiso   1.00
O384   O     0.29276   0.07308   0.27302   0.00000  Uiso   1.00
O385   O     0.42693   0.29276   0.72698   0.00000  Uiso   1.00
O386   O     0.07308   0.20725   0.27302   0.00000  Uiso   1.00
O387   O     0.29276   0.07308   0.72698   0.00000  Uiso   1.00
O388   O     0.20725   0.42693   0.27302   0.00000  Uiso   1.00
O389   O     0.07308   0.20725   0.72698   0.00000  Uiso   1.00
O390   O     0.42693   0.29276   0.27302   0.00000  Uiso   1.00
O391   O     0.45725   0.32308   0.77302   0.00000  Uiso   1.00
O392   O     0.04276   0.17693   0.22698   0.00000  Uiso   1.00
O393   O     0.17693   0.45725   0.77302   0.00000  Uiso   1.00
O394   O     0.00000   0.25000   0.75000   0.00000  Uiso   1.00
O395   O     0.32308   0.04276   0.22698   0.00000  Uiso   1.00
O396   O     0.04276   0.17693   0.77302   0.00000  Uiso   1.00
O397   O     0.45725   0.32308   0.22698   0.00000  Uiso   1.00
O398   O     0.32308   0.04276   0.77302   0.00000  Uiso   1.00
O399   O     0.17693   0.45725   0.22698   0.00000  Uiso   1.00
O400   O     0.45725   0.17693   0.22698   0.00000  Uiso   1.00
O401   O     0.04276   0.32308   0.77302   0.00000  Uiso   1.00
O402   O     0.17693   0.04276   0.22698   0.00000  Uiso   1.00
O403   O     0.32308   0.45725   0.77302   0.00000  Uiso   1.00
O404   O     0.04276   0.32308   0.22698   0.00000  Uiso   1.00
O405   O     0.25000   0.46964   0.33755   0.00000  Uiso   1.00
O406   O     0.45725   0.17693   0.77302   0.00000  Uiso   1.00
O407   O     0.32308   0.45725   0.22698   0.00000  Uiso   1.00
O408   O     0.17693   0.04276   0.77302   0.00000  Uiso   1.00
O409   O     0.25000   0.03037   0.66245   0.00000  Uiso   1.00
O410   O     0.03037   0.25000   0.33755   0.00000  Uiso   1.00
O411   O     0.46964   0.25000   0.66245   0.00000  Uiso   1.00
O412   O     0.25000   0.03037   0.33755   0.00000  Uiso   1.00
Zn413  Zn    0.20660  -0.00000   0.21735   0.00000  Uiso   1.00
Zn414  Zn    0.04341   0.25000   0.28265   0.00000  Uiso   1.00
Zn415  Zn    0.25000   0.45660   0.71735   0.00000  Uiso   1.00
Zn416  Zn    0.25000   0.04341   0.28265   0.00000  Uiso   1.00
Zn417  Zn    0.04341   0.25000   0.71735   0.00000  Uiso   1.00
Zn418  Zn    0.45660   0.25000   0.28265   0.00000  Uiso   1.00
Zn419  Zn    0.25000   0.04341   0.71735   0.00000  Uiso   1.00
Zn420  Zn    0.25000   0.45660   0.28265   0.00000  Uiso   1.00
Zn421  Zn    0.29341   0.00000   0.78265   0.00000  Uiso   1.00
Zn422  Zn    0.00000   0.20660   0.21735   0.00000  Uiso   1.00
Zn423  Zn    0.00000   0.29341   0.78265   0.00000  Uiso   1.00
Zn424  Zn    0.29341  -0.00000   0.21735   0.00000  Uiso   1.00
Zn425  Zn    0.20660   0.00000   0.78265   0.00000  Uiso   1.00
Zn426  Zn    0.00000   0.29341   0.21735   0.00000  Uiso   1.00
Zn427  Zn    0.00000   0.20660   0.78265   0.00000  Uiso   1.00
Zn428  Zn    0.45660   0.25000   0.71735   0.00000  Uiso   1.00
C429   C     0.51569   0.27956   0.41787   0.00000  Uiso   1.00
C430   C     0.73305   0.47125   0.08214   0.00000  Uiso   1.00
C431   C     0.72025   0.48364   0.54103   0.00000  Uiso   1.00
C432   C     0.51636   0.27975   0.45897   0.00000  Uiso   1.00
C433   C     0.98570   0.21954   0.54127   0.00000  Uiso   1.00
C434   C     0.71954   0.48570   0.45873   0.00000  Uiso   1.00
C435   C     0.77975   0.01636   0.54103   0.00000  Uiso   1.00
C436   C     0.73363   0.47026   0.95897   0.00000  Uiso   1.00
C437   C     0.76432   0.03045   0.04127   0.00000  Uiso   1.00
C438   C     0.53047   0.26428   0.95873   0.00000  Uiso   1.00
C439   C     0.97024   0.23365   0.04103   0.00000  Uiso   1.00
C440   C     0.76637   0.02974   0.95897   0.00000  Uiso   1.00
C441   C     0.97123   0.23308   0.91786   0.00000  Uiso   1.00
C442   C     0.73568   0.46955   0.04127   0.00000  Uiso   1.00
C443   C     0.96953   0.23572   0.95873   0.00000  Uiso   1.00
C444   C     0.52976   0.26635   0.04103   0.00000  Uiso   1.00
C445   C     0.59809   0.34809   0.25000   0.00000  Uiso   1.00
C446   C     0.90191   0.15191   0.75000   0.00000  Uiso   1.00
C447   C     0.65198   0.09802   0.25000   0.00000  Uiso   1.00
C448   C     0.84806   0.40194   0.75000   0.00000  Uiso   1.00
C449   C     0.90191   0.15191   0.25000   0.00000  Uiso   1.00
C450   C     0.59810   0.34809   0.75000   0.00000  Uiso   1.00
C451   C     0.84802   0.40198   0.25000   0.00000  Uiso   1.00
C452   C     0.52955   0.26569   0.08213   0.00000  Uiso   1.00
C453   C     0.65194   0.09806   0.75000   0.00000  Uiso   1.00
C454   C     0.59802   0.15198   0.75000   0.00000  Uiso   1.00
C455   C     0.90194   0.34806   0.25000   0.00000  Uiso   1.00
C456   C     0.65191   0.40191   0.75000   0.00000  Uiso   1.00
C457   C     0.84810   0.09809   0.25000   0.00000  Uiso   1.00
C458   C     0.90198   0.34802   0.75000   0.00000  Uiso   1.00
C459   C     0.59806   0.15194   0.25000   0.00000  Uiso   1.00
C460   C     0.84809   0.09809   0.75000   0.00000  Uiso   1.00
C461   C     0.65191   0.40191   0.25000   0.00000  Uiso   1.00
C462   C     0.50000   0.25000   0.47943   0.00000  Uiso   1.00
C463   C     0.73432   0.47044   0.91787   0.00000  Uiso   1.00
C464   C     0.50000   0.25000   0.52066   0.00000  Uiso   1.00
C465   C     0.75000  -0.00000   0.47934   0.00000  Uiso   1.00
C466   C     0.75000  -0.00000   0.52057   0.00000  Uiso   1.00
C467   C     0.75000  -0.00000   0.97943   0.00000  Uiso   1.00
C468   C     0.75000  -0.00000   0.02066   0.00000  Uiso   1.00
C469   C     0.50000   0.25000   0.97934   0.00000  Uiso   1.00
C470   C     0.50000   0.25000   0.02057   0.00000  Uiso   1.00
C471   C     0.52777   0.31124   0.39424   0.00000  Uiso   1.00
C472   C     0.56268   0.31129   0.37713   0.00000  Uiso   1.00
C473   C     0.57376   0.34098   0.35466   0.00000  Uiso   1.00
C474   C     0.76695   0.02875   0.08214   0.00000  Uiso   1.00
C475   C     0.55020   0.37078   0.34920   0.00000  Uiso   1.00
C476   C     0.51538   0.37078   0.36588   0.00000  Uiso   1.00
C477   C     0.50401   0.34098   0.38809   0.00000  Uiso   1.00
C478   C     0.96064   0.19494   0.60478   0.00000  Uiso   1.00
C479   C     0.97743   0.17007   0.63040   0.00000  Uiso   1.00
C480   C     0.95614   0.14621   0.65234   0.00000  Uiso   1.00
C481   C     0.91808   0.14710   0.64909   0.00000  Uiso   1.00
C482   C     0.90118   0.17178   0.62382   0.00000  Uiso   1.00
C483   C     0.92234   0.19569   0.60171   0.00000  Uiso   1.00
C484   C     0.69493   0.46064   0.39522   0.00000  Uiso   1.00
C485   C     0.52877   0.26692   0.91786   0.00000  Uiso   1.00
C486   C     0.67007   0.47743   0.36960   0.00000  Uiso   1.00
C487   C     0.64621   0.45615   0.34766   0.00000  Uiso   1.00
C488   C     0.64709   0.41808   0.35091   0.00000  Uiso   1.00
C489   C     0.67178   0.40118   0.37618   0.00000  Uiso   1.00
C490   C     0.69569   0.42234   0.39829   0.00000  Uiso   1.00
C491   C     0.81124   0.02778   0.60576   0.00000  Uiso   1.00
C492   C     0.81129   0.06268   0.62287   0.00000  Uiso   1.00
C493   C     0.84098   0.07376   0.64534   0.00000  Uiso   1.00
C494   C     0.87078   0.05020   0.65080   0.00000  Uiso   1.00
C495   C     0.87078   0.01538   0.63411   0.00000  Uiso   1.00
C496   C     0.97044   0.23431   0.08213   0.00000  Uiso   1.00
C497   C     0.84099   0.00401   0.61191   0.00000  Uiso   1.00
C498   C     0.97223   0.18876   0.39424   0.00000  Uiso   1.00
C499   C     0.93732   0.18871   0.37713   0.00000  Uiso   1.00
C500   C     0.92624   0.15902   0.35466   0.00000  Uiso   1.00
C501   C     0.94981   0.12922   0.34920   0.00000  Uiso   1.00
C502   C     0.98462   0.12922   0.36588   0.00000  Uiso   1.00
C503   C     0.99599   0.15902   0.38809   0.00000  Uiso   1.00
C504   C     0.53936   0.30506   0.60478   0.00000  Uiso   1.00
C505   C     0.52257   0.32993   0.63040   0.00000  Uiso   1.00
C506   C     0.54386   0.35379   0.65234   0.00000  Uiso   1.00
C507   C     0.50000   0.25000   0.39810   0.00000  Uiso   1.00
C508   C     0.58192   0.35290   0.64909   0.00000  Uiso   1.00
C509   C     0.59882   0.32822   0.62382   0.00000  Uiso   1.00
C510   C     0.57766   0.30431   0.60171   0.00000  Uiso   1.00
C511   C     0.80507   0.03936   0.39522   0.00000  Uiso   1.00
C512   C     0.82993   0.02257   0.36960   0.00000  Uiso   1.00
C513   C     0.85379   0.04385   0.34766   0.00000  Uiso   1.00
C514   C     0.85291   0.08192   0.35091   0.00000  Uiso   1.00
C515   C     0.82822   0.09882   0.37618   0.00000  Uiso   1.00
C516   C     0.80431   0.07766   0.39829   0.00000  Uiso   1.00
C517   C     0.68876   0.47222   0.60576   0.00000  Uiso   1.00
C518   C     0.50000   0.25000   0.60204   0.00000  Uiso   1.00
C519   C     0.68872   0.43732   0.62287   0.00000  Uiso   1.00
C520   C     0.65902   0.42624   0.64534   0.00000  Uiso   1.00
C521   C     0.62922   0.44980   0.65080   0.00000  Uiso   1.00
C522   C     0.62922   0.48462   0.63411   0.00000  Uiso   1.00
C523   C     0.65901   0.49599   0.61191   0.00000  Uiso   1.00
C524   C     0.77772   0.06127   0.89425   0.00000  Uiso   1.00
C525   C     0.81260   0.06134   0.87707   0.00000  Uiso   1.00
C526   C     0.82364   0.09106   0.85463   0.00000  Uiso   1.00
C527   C     0.80006   0.12086   0.84924   0.00000  Uiso   1.00
C528   C     0.76527   0.12084   0.86599   0.00000  Uiso   1.00
C529   C     0.75000  -0.00000   0.39796   0.00000  Uiso   1.00
C530   C     0.75394   0.09102   0.88819   0.00000  Uiso   1.00
C531   C     0.71062   0.44495   0.10478   0.00000  Uiso   1.00
C532   C     0.72740   0.42008   0.13039   0.00000  Uiso   1.00
C533   C     0.70611   0.39623   0.15234   0.00000  Uiso   1.00
C534   C     0.66804   0.39714   0.14910   0.00000  Uiso   1.00
C535   C     0.65114   0.42184   0.12384   0.00000  Uiso   1.00
C536   C     0.67231   0.44573   0.10173   0.00000  Uiso   1.00
C537   C     0.94491   0.21067   0.89522   0.00000  Uiso   1.00
C538   C     0.92006   0.22747   0.86960   0.00000  Uiso   1.00
C539   C     0.89618   0.20621   0.84766   0.00000  Uiso   1.00
C540   C     0.98306   0.22124   0.58214   0.00000  Uiso   1.00
C541   C     0.75000  -0.00000   0.60190   0.00000  Uiso   1.00
C542   C     0.89703   0.16814   0.85092   0.00000  Uiso   1.00
C543   C     0.92171   0.15122   0.87619   0.00000  Uiso   1.00
C544   C     0.94563   0.17237   0.89829   0.00000  Uiso   1.00
C545   C     0.56122   0.27780   0.10577   0.00000  Uiso   1.00
C546   C     0.56126   0.31272   0.12284   0.00000  Uiso   1.00
C547   C     0.59093   0.32383   0.14531   0.00000  Uiso   1.00
C548   C     0.62073   0.30027   0.15083   0.00000  Uiso   1.00
C549   C     0.62074   0.26544   0.13418   0.00000  Uiso   1.00
C550   C     0.59097   0.25405   0.11196   0.00000  Uiso   1.00
C551   C     0.72228   0.43873   0.89425   0.00000  Uiso   1.00
C552   C     0.75000  -0.00000   0.89810   0.00000  Uiso   1.00
C553   C     0.68740   0.43866   0.87708   0.00000  Uiso   1.00
C554   C     0.67636   0.40894   0.85463   0.00000  Uiso   1.00
C555   C     0.69994   0.37914   0.84924   0.00000  Uiso   1.00
C556   C     0.73473   0.37917   0.86599   0.00000  Uiso   1.00
C557   C     0.74606   0.40898   0.88818   0.00000  Uiso   1.00
C558   C     0.78938   0.05505   0.10478   0.00000  Uiso   1.00
C559   C     0.77260   0.07992   0.13039   0.00000  Uiso   1.00
C560   C     0.79390   0.10377   0.15234   0.00000  Uiso   1.00
C561   C     0.83196   0.10286   0.14910   0.00000  Uiso   1.00
C562   C     0.84886   0.07816   0.12384   0.00000  Uiso   1.00
C563   C     0.75000   0.00000   0.10204   0.00000  Uiso   1.00
C564   C     0.82769   0.05427   0.10173   0.00000  Uiso   1.00
C565   C     0.55509   0.28933   0.89522   0.00000  Uiso   1.00
C566   C     0.57994   0.27253   0.86960   0.00000  Uiso   1.00
C567   C     0.60382   0.29380   0.84766   0.00000  Uiso   1.00
C568   C     0.60296   0.33186   0.85092   0.00000  Uiso   1.00
C569   C     0.57828   0.34878   0.87619   0.00000  Uiso   1.00
C570   C     0.55436   0.32763   0.89829   0.00000  Uiso   1.00
C571   C     0.93878   0.22219   0.10577   0.00000  Uiso   1.00
C572   C     0.93875   0.18727   0.12283   0.00000  Uiso   1.00
C573   C     0.90907   0.17617   0.14531   0.00000  Uiso   1.00
C574   C     0.50000   0.25000   0.89796   0.00000  Uiso   1.00
C575   C     0.87927   0.19972   0.15083   0.00000  Uiso   1.00
C576   C     0.87926   0.23455   0.13418   0.00000  Uiso   1.00
C577   C     0.90904   0.24595   0.11197   0.00000  Uiso   1.00
C578   C     0.50000   0.25000   0.10190   0.00000  Uiso   1.00
C579   C     0.96850   0.19079   0.48054   0.00000  Uiso   1.00
C580   C     0.52612   0.31137   0.52032   0.00000  Uiso   1.00
C581   C     0.81137   0.02612   0.47968   0.00000  Uiso   1.00
C582   C     0.69079   0.46850   0.51946   0.00000  Uiso   1.00
C583   C     0.53150   0.30921   0.48054   0.00000  Uiso   1.00
C584   C     0.72124   0.48306   0.41786   0.00000  Uiso   1.00
C585   C     0.97388   0.18863   0.52032   0.00000  Uiso   1.00
C586   C     0.68863   0.47388   0.47968   0.00000  Uiso   1.00
C587   C     0.80921   0.03150   0.51946   0.00000  Uiso   1.00
C588   C     0.71846   0.44082   0.98054   0.00000  Uiso   1.00
C589   C     0.77617   0.06135   0.02032   0.00000  Uiso   1.00
C590   C     0.56139   0.27608   0.97968   0.00000  Uiso   1.00
C591   C     0.94077   0.21854   0.01946   0.00000  Uiso   1.00
C592   C     0.78154   0.05918   0.98054   0.00000  Uiso   1.00
C593   C     0.72383   0.43865   0.02032   0.00000  Uiso   1.00
C594   C     0.93861   0.22392   0.97968   0.00000  Uiso   1.00
C595   C     0.77956   0.01569   0.58213   0.00000  Uiso   1.00
C596   C     0.55922   0.28147   0.01946   0.00000  Uiso   1.00
C597   C     0.75000  -0.00000   0.35569   0.00000  Uiso   1.00
C598   C     0.75000   0.00000   0.64429   0.00000  Uiso   1.00
C599   C     0.50000   0.25000   0.35571   0.00000  Uiso   1.00
C600   C     0.50000   0.25000   0.64431   0.00000  Uiso   1.00
C601   C     0.50000   0.25000   0.85569   0.00000  Uiso   1.00
C602   C     0.50000   0.25000   0.14429   0.00000  Uiso   1.00
C603   C     0.75000  -0.00000   0.85571   0.00000  Uiso   1.00
C604   C     0.75000  -0.00000   0.14431   0.00000  Uiso   1.00
C605   C     0.68004   0.06996   0.25000   0.00000  Uiso   1.00
C606   C     0.98431   0.22044   0.41787   0.00000  Uiso   1.00
C607   C     0.81997   0.43003   0.75000   0.00000  Uiso   1.00
C608   C     0.92998   0.17998   0.25000   0.00000  Uiso   1.00
C609   C     0.57003   0.32002   0.75000   0.00000  Uiso   1.00
C610   C     0.81996   0.43004   0.25000   0.00000  Uiso   1.00
C611   C     0.68003   0.06997   0.75000   0.00000  Uiso   1.00
C612   C     0.57002   0.32002   0.25000   0.00000  Uiso   1.00
C613   C     0.92998   0.17998   0.75000   0.00000  Uiso   1.00
C614   C     0.67998   0.42998   0.75000   0.00000  Uiso   1.00
C615   C     0.82003   0.07002   0.25000   0.00000  Uiso   1.00
C616   C     0.93004   0.31996   0.75000   0.00000  Uiso   1.00
C617   C     0.51694   0.27876   0.58214   0.00000  Uiso   1.00
C618   C     0.56997   0.18003   0.25000   0.00000  Uiso   1.00
C619   C     0.82002   0.07002   0.75000   0.00000  Uiso   1.00
C620   C     0.67998   0.42998   0.25000   0.00000  Uiso   1.00
C621   C     0.56996   0.18004   0.75000   0.00000  Uiso   1.00
C622   C     0.93003   0.31997   0.25000   0.00000  Uiso   1.00
C623   C     0.61475   0.41211   0.24742   0.00000  Uiso   1.00
C624   C     0.88523   0.08788   0.75256   0.00000  Uiso   1.00
C625   C     0.59071   0.11775   0.26667   0.00000  Uiso   1.00
C626   C     0.90929   0.38214   0.73317   0.00000  Uiso   1.00
C627   C     0.88525   0.08789   0.24742   0.00000  Uiso   1.00
C628   C     0.77876   0.01694   0.41786   0.00000  Uiso   1.00
C629   C     0.61477   0.41212   0.75256   0.00000  Uiso   1.00
C630   C     0.90929   0.38225   0.26667   0.00000  Uiso   1.00
C631   C     0.59071   0.11786   0.73317   0.00000  Uiso   1.00
C632   C     0.61776   0.09072   0.73332   0.00000  Uiso   1.00
C633   C     0.88215   0.40929   0.26683   0.00000  Uiso   1.00
C634   C     0.58789   0.38525   0.75258   0.00000  Uiso   1.00
C635   C     0.91212   0.11477   0.24743   0.00000  Uiso   1.00
C636   C     0.88225   0.40929   0.73332   0.00000  Uiso   1.00
C637   C     0.61785   0.09071   0.26683   0.00000  Uiso   1.00
C638   C     0.91211   0.11475   0.75258   0.00000  Uiso   1.00
C639   C     0.72044   0.48431   0.58213   0.00000  Uiso   1.00
C640   C     0.58788   0.38523   0.24743   0.00000  Uiso   1.00
C641   C     0.86475   0.16211   0.74743   0.00000  Uiso   1.00
C642   C     0.63523   0.33788   0.25257   0.00000  Uiso   1.00
C643   C     0.84071   0.36776   0.76668   0.00000  Uiso   1.00
C644   C     0.65929   0.13215   0.23318   0.00000  Uiso   1.00
C645   C     0.63525   0.33789   0.74743   0.00000  Uiso   1.00
C646   C     0.86477   0.16212   0.25257   0.00000  Uiso   1.00
C647   C     0.65929   0.13224   0.76668   0.00000  Uiso   1.00
C648   C     0.84071   0.36785   0.23318   0.00000  Uiso   1.00
C649   C     0.86775   0.34071   0.23333   0.00000  Uiso   1.00
C650   C     0.76568   0.02956   0.91787   0.00000  Uiso   1.00
C651   C     0.63214   0.15929   0.76684   0.00000  Uiso   1.00
C652   C     0.83789   0.13525   0.25258   0.00000  Uiso   1.00
C653   C     0.66212   0.36477   0.74744   0.00000  Uiso   1.00
C654   C     0.63225   0.15929   0.23333   0.00000  Uiso   1.00
C655   C     0.86786   0.34071   0.76683   0.00000  Uiso   1.00
C656   C     0.66211   0.36475   0.25258   0.00000  Uiso   1.00
C657   C     0.83788   0.13523   0.74744   0.00000  Uiso   1.00
C658   C     0.98364   0.22025   0.45897   0.00000  Uiso   1.00
C659   C     0.51430   0.28046   0.54127   0.00000  Uiso   1.00
C660   C     0.78046   0.01430   0.45873   0.00000  Uiso   1.00
Cl661  Cl    0.93937   0.15670   0.46112   0.00000  Uiso   1.00
Cl662  Cl    0.77952   0.10560   0.04134   0.00000  Uiso   1.00
Cl663  Cl    0.60564   0.27934   0.95865   0.00000  Uiso   1.00
Cl664  Cl    0.90664   0.18944   0.03887   0.00000  Uiso   1.00
Cl665  Cl    0.81073   0.09323   0.96111   0.00000  Uiso   1.00
Cl666  Cl    0.72049   0.39440   0.04134   0.00000  Uiso   1.00
Cl667  Cl    0.89436   0.22067   0.95865   0.00000  Uiso   1.00
Cl668  Cl    0.59335   0.31057   0.03887   0.00000  Uiso   1.00
Cl669  Cl    0.60107   0.45866   0.24613   0.00000  Uiso   1.00
Cl670  Cl    0.89888   0.04131   0.75386   0.00000  Uiso   1.00
Cl671  Cl    0.54785   0.10911   0.28828   0.00000  Uiso   1.00
Cl672  Cl    0.52942   0.35562   0.54135   0.00000  Uiso   1.00
Cl673  Cl    0.95194   0.39052   0.71086   0.00000  Uiso   1.00
Cl674  Cl    0.89893   0.04134   0.24613   0.00000  Uiso   1.00
Cl675  Cl    0.60112   0.45869   0.75386   0.00000  Uiso   1.00
Cl676  Cl    0.95215   0.39089   0.28828   0.00000  Uiso   1.00
Cl677  Cl    0.54806   0.10948   0.71086   0.00000  Uiso   1.00
Cl678  Cl    0.60912   0.04786   0.71170   0.00000  Uiso   1.00
Cl679  Cl    0.89053   0.45195   0.28912   0.00000  Uiso   1.00
Cl680  Cl    0.54134   0.39893   0.75387   0.00000  Uiso   1.00
Cl681  Cl    0.95869   0.10112   0.24613   0.00000  Uiso   1.00
Cl682  Cl    0.89088   0.45215   0.71170   0.00000  Uiso   1.00
Cl683  Cl    0.85562   0.02942   0.45865   0.00000  Uiso   1.00
Cl684  Cl    0.60947   0.04805   0.28912   0.00000  Uiso   1.00
Cl685  Cl    0.95866   0.10107   0.75387   0.00000  Uiso   1.00
Cl686  Cl    0.54131   0.39888   0.24613   0.00000  Uiso   1.00
Cl687  Cl    0.85107   0.20866   0.74614   0.00000  Uiso   1.00
Cl688  Cl    0.64888   0.29131   0.25387   0.00000  Uiso   1.00
Cl689  Cl    0.79785   0.35912   0.78831   0.00000  Uiso   1.00
Cl690  Cl    0.70195   0.14053   0.21088   0.00000  Uiso   1.00
Cl691  Cl    0.64893   0.29134   0.74614   0.00000  Uiso   1.00
Cl692  Cl    0.85112   0.20869   0.25387   0.00000  Uiso   1.00
Cl693  Cl    0.70215   0.14088   0.78831   0.00000  Uiso   1.00
Cl694  Cl    0.65670   0.43936   0.53888   0.00000  Uiso   1.00
Cl695  Cl    0.79805   0.35947   0.21088   0.00000  Uiso   1.00
Cl696  Cl    0.85911   0.29785   0.21172   0.00000  Uiso   1.00
Cl697  Cl    0.64053   0.20194   0.78914   0.00000  Uiso   1.00
Cl698  Cl    0.79134   0.14893   0.25387   0.00000  Uiso   1.00
Cl699  Cl    0.70869   0.35112   0.74615   0.00000  Uiso   1.00
Cl700  Cl    0.64089   0.20215   0.21172   0.00000  Uiso   1.00
Cl701  Cl    0.85947   0.29806   0.78914   0.00000  Uiso   1.00
Cl702  Cl    0.70866   0.35107   0.25387   0.00000  Uiso   1.00
Cl703  Cl    0.79131   0.14888   0.74615   0.00000  Uiso   1.00
Cl704  Cl    0.56063   0.34331   0.46112   0.00000  Uiso   1.00
Cl705  Cl    0.97058   0.14438   0.54135   0.00000  Uiso   1.00
Cl706  Cl    0.64438   0.47058   0.45865   0.00000  Uiso   1.00
Cl707  Cl    0.84330   0.06064   0.53888   0.00000  Uiso   1.00
Cl708  Cl    0.68927   0.40677   0.96111   0.00000  Uiso   1.00
H709   H     0.58123   0.28844   0.38145   0.00000  Uiso   1.00
H710   H     0.90898   0.21486   0.58237   0.00000  Uiso   1.00
H711   H     0.66922   0.00692   0.36677   0.00000  Uiso   1.00
H712   H     0.62708   0.46917   0.32809   0.00000  Uiso   1.00
H713   H     0.62876   0.40170   0.33371   0.00000  Uiso   1.00
H714   H     0.67245   0.37167   0.37854   0.00000  Uiso   1.00
H715   H     0.71486   0.40898   0.41763   0.00000  Uiso   1.00
H716   H     0.78844   0.08123   0.61855   0.00000  Uiso   1.00
H717   H     0.84087   0.10064   0.65842   0.00000  Uiso   1.00
H718   H     0.89390   0.05892   0.66790   0.00000  Uiso   1.00
H719   H     0.89393   0.49723   0.63829   0.00000  Uiso   1.00
H720   H     0.60064   0.34087   0.34158   0.00000  Uiso   1.00
H721   H     0.84120   0.47696   0.59917   0.00000  Uiso   1.00
H722   H     0.91877   0.21156   0.38145   0.00000  Uiso   1.00
H723   H     0.89937   0.15913   0.34158   0.00000  Uiso   1.00
H724   H     0.94109   0.10610   0.33209   0.00000  Uiso   1.00
H725   H     0.50277   0.10608   0.36170   0.00000  Uiso   1.00
H726   H     0.52305   0.15880   0.40082   0.00000  Uiso   1.00
H727   H     0.99308   0.33078   0.63323   0.00000  Uiso   1.00
H728   H     0.53083   0.37292   0.67191   0.00000  Uiso   1.00
H729   H     0.59831   0.37123   0.66629   0.00000  Uiso   1.00
H730   H     0.62833   0.32754   0.62146   0.00000  Uiso   1.00
H731   H     0.55891   0.39390   0.33209   0.00000  Uiso   1.00
H732   H     0.59102   0.28514   0.58237   0.00000  Uiso   1.00
H733   H     0.83078   0.49308   0.36677   0.00000  Uiso   1.00
H734   H     0.87292   0.03083   0.32809   0.00000  Uiso   1.00
H735   H     0.87124   0.09830   0.33371   0.00000  Uiso   1.00
H736   H     0.82755   0.12833   0.37854   0.00000  Uiso   1.00
H737   H     0.78514   0.09102   0.41763   0.00000  Uiso   1.00
H738   H     0.71156   0.41877   0.61855   0.00000  Uiso   1.00
H739   H     0.65913   0.39936   0.65842   0.00000  Uiso   1.00
H740   H     0.60610   0.44108   0.66790   0.00000  Uiso   1.00
H741   H     0.60607   0.00277   0.63829   0.00000  Uiso   1.00
H742   H     0.99723   0.39392   0.36170   0.00000  Uiso   1.00
H743   H     0.65880   0.02304   0.59917   0.00000  Uiso   1.00
H744   H     0.83117   0.03850   0.88133   0.00000  Uiso   1.00
H745   H     0.85049   0.09097   0.84149   0.00000  Uiso   1.00
H746   H     0.80875   0.14401   0.83215   0.00000  Uiso   1.00
H747   H     0.74711   0.14398   0.86187   0.00000  Uiso   1.00
H748   H     0.72691   0.09121   0.90097   0.00000  Uiso   1.00
H749   H     0.75689   0.41920   0.13321   0.00000  Uiso   1.00
H750   H     0.71912   0.37709   0.17190   0.00000  Uiso   1.00
H751   H     0.65165   0.37882   0.16631   0.00000  Uiso   1.00
H752   H     0.62164   0.42253   0.12149   0.00000  Uiso   1.00
H753   H     0.97695   0.34120   0.40082   0.00000  Uiso   1.00
H754   H     0.65896   0.46492   0.08240   0.00000  Uiso   1.00
H755   H     0.91923   0.25696   0.86676   0.00000  Uiso   1.00
H756   H     0.87706   0.21924   0.82808   0.00000  Uiso   1.00
H757   H     0.87869   0.15177   0.83372   0.00000  Uiso   1.00
H758   H     0.92236   0.12172   0.87856   0.00000  Uiso   1.00
H759   H     0.96480   0.15900   0.91764   0.00000  Uiso   1.00
H760   H     0.53841   0.33127   0.11849   0.00000  Uiso   1.00
H761   H     0.59081   0.35072   0.15837   0.00000  Uiso   1.00
H762   H     0.64384   0.30901   0.16793   0.00000  Uiso   1.00
H763   H     0.64389   0.24730   0.13839   0.00000  Uiso   1.00
H764   H     0.50692   0.16922   0.63323   0.00000  Uiso   1.00
H765   H     0.59119   0.22698   0.09926   0.00000  Uiso   1.00
H766   H     0.66883   0.46150   0.88134   0.00000  Uiso   1.00
H767   H     0.64951   0.40903   0.84149   0.00000  Uiso   1.00
H768   H     0.69125   0.35600   0.83215   0.00000  Uiso   1.00
H769   H     0.75289   0.35602   0.86187   0.00000  Uiso   1.00
H770   H     0.77309   0.40879   0.90096   0.00000  Uiso   1.00
H771   H     0.74312   0.08080   0.13321   0.00000  Uiso   1.00
H772   H     0.78088   0.12291   0.17190   0.00000  Uiso   1.00
H773   H     0.84835   0.12118   0.16631   0.00000  Uiso   1.00
H774   H     0.87836   0.07747   0.12149   0.00000  Uiso   1.00
H775   H     0.96917   0.12708   0.67191   0.00000  Uiso   1.00
H776   H     0.84104   0.03508   0.08240   0.00000  Uiso   1.00
H777   H     0.58077   0.24304   0.86676   0.00000  Uiso   1.00
H778   H     0.62294   0.28077   0.82809   0.00000  Uiso   1.00
H779   H     0.62131   0.34824   0.83372   0.00000  Uiso   1.00
H780   H     0.57764   0.37828   0.87856   0.00000  Uiso   1.00
H781   H     0.53520   0.34100   0.91764   0.00000  Uiso   1.00
H782   H     0.96159   0.16873   0.11848   0.00000  Uiso   1.00
H783   H     0.90919   0.14928   0.15837   0.00000  Uiso   1.00
H784   H     0.85616   0.19098   0.16794   0.00000  Uiso   1.00
H785   H     0.85611   0.25270   0.13840   0.00000  Uiso   1.00
H786   H     0.90169   0.12877   0.66629   0.00000  Uiso   1.00
H787   H     0.90881   0.27302   0.09927   0.00000  Uiso   1.00
H788   H     0.87167   0.17246   0.62146   0.00000  Uiso   1.00
O789   O     0.75000  -0.00000   0.25000   0.00000  Uiso   1.00
O790   O     0.75000   0.46964   0.66245   0.00000  Uiso   1.00
O791   O     0.96964   0.25000   0.33755   0.00000  Uiso   1.00
O792   O     0.53037   0.25000   0.66245   0.00000  Uiso   1.00
O793   O     0.50000   0.21964   0.83755   0.00000  Uiso   1.00
O794   O     0.50000   0.28037   0.16245   0.00000  Uiso   1.00
O795   O     0.78037  -0.00000   0.83755   0.00000  Uiso   1.00
O796   O     0.71964   0.00000   0.16245   0.00000  Uiso   1.00
O797   O     0.50000   0.28037   0.83755   0.00000  Uiso   1.00
O798   O     0.50000   0.21964   0.16245   0.00000  Uiso   1.00
O799   O     0.71964  -0.00000   0.83755   0.00000  Uiso   1.00
O800   O     0.75000   0.00000   0.75000   0.00000  Uiso   1.00
O801   O     0.78037   0.00000   0.16245   0.00000  Uiso   1.00
O802   O     0.70725   0.07308   0.27302   0.00000  Uiso   1.00
O803   O     0.79276   0.42693   0.72698   0.00000  Uiso   1.00
O804   O     0.92693   0.20725   0.27302   0.00000  Uiso   1.00
O805   O     0.57308   0.29276   0.72698   0.00000  Uiso   1.00
O806   O     0.79276   0.42693   0.27302   0.00000  Uiso   1.00
O807   O     0.70725   0.07308   0.72698   0.00000  Uiso   1.00
O808   O     0.57308   0.29276   0.27302   0.00000  Uiso   1.00
O809   O     0.92693   0.20725   0.72698   0.00000  Uiso   1.00
O810   O     0.70725   0.42693   0.72698   0.00000  Uiso   1.00
O811   O     0.50000   0.25000   0.25000   0.00000  Uiso   1.00
O812   O     0.79276   0.07308   0.27302   0.00000  Uiso   1.00
O813   O     0.92693   0.29276   0.72698   0.00000  Uiso   1.00
O814   O     0.57308   0.20725   0.27302   0.00000  Uiso   1.00
O815   O     0.79276   0.07308   0.72698   0.00000  Uiso   1.00
O816   O     0.70725   0.42693   0.27302   0.00000  Uiso   1.00
O817   O     0.57308   0.20725   0.72698   0.00000  Uiso   1.00
O818   O     0.92693   0.29276   0.27302   0.00000  Uiso   1.00
O819   O     0.95725   0.32308   0.77302   0.00000  Uiso   1.00
O820   O     0.54276   0.17693   0.22698   0.00000  Uiso   1.00
O821   O     0.67693   0.45725   0.77302   0.00000  Uiso   1.00
O822   O     0.50000   0.25000   0.75000   0.00000  Uiso   1.00
O823   O     0.82308   0.04276   0.22698   0.00000  Uiso   1.00
O824   O     0.54276   0.17693   0.77302   0.00000  Uiso   1.00
O825   O     0.95725   0.32308   0.22698   0.00000  Uiso   1.00
O826   O     0.82308   0.04276   0.77302   0.00000  Uiso   1.00
O827   O     0.67693   0.45725   0.22698   0.00000  Uiso   1.00
O828   O     0.95725   0.17693   0.22698   0.00000  Uiso   1.00
O829   O     0.54276   0.32308   0.77302   0.00000  Uiso   1.00
O830   O     0.67693   0.04276   0.22698   0.00000  Uiso   1.00
O831   O     0.82308   0.45725   0.77302   0.00000  Uiso   1.00
O832   O     0.54276   0.32308   0.22698   0.00000  Uiso   1.00
O833   O     0.75000   0.46964   0.33755   0.00000  Uiso   1.00
O834   O     0.95725   0.17693   0.77302   0.00000  Uiso   1.00
O835   O     0.82308   0.45725   0.22698   0.00000  Uiso   1.00
O836   O     0.67693   0.04276   0.77302   0.00000  Uiso   1.00
O837   O     0.75000   0.03037   0.66245   0.00000  Uiso   1.00
O838   O     0.53037   0.25000   0.33755   0.00000  Uiso   1.00
O839   O     0.96964   0.25000   0.66245   0.00000  Uiso   1.00
O840   O     0.75000   0.03037   0.33755   0.00000  Uiso   1.00
Zn841  Zn    0.70660  -0.00000   0.21735   0.00000  Uiso   1.00
Zn842  Zn    0.54341   0.25000   0.28265   0.00000  Uiso   1.00
Zn843  Zn    0.75000   0.45660   0.71735   0.00000  Uiso   1.00
Zn844  Zn    0.75000   0.04341   0.28265   0.00000  Uiso   1.00
Zn845  Zn    0.54341   0.25000   0.71735   0.00000  Uiso   1.00
Zn846  Zn    0.95660   0.25000   0.28265   0.00000  Uiso   1.00
Zn847  Zn    0.75000   0.04341   0.71735   0.00000  Uiso   1.00
Zn848  Zn    0.75000   0.45660   0.28265   0.00000  Uiso   1.00
Zn849  Zn    0.79341   0.00000   0.78265   0.00000  Uiso   1.00
Zn850  Zn    0.50000   0.20660   0.21735   0.00000  Uiso   1.00
Zn851  Zn    0.50000   0.29341   0.78265   0.00000  Uiso   1.00
Zn852  Zn    0.79341  -0.00000   0.21735   0.00000  Uiso   1.00
Zn853  Zn    0.70660   0.00000   0.78265   0.00000  Uiso   1.00
Zn854  Zn    0.50000   0.29341   0.21735   0.00000  Uiso   1.00
Zn855  Zn    0.50000   0.20660   0.78265   0.00000  Uiso   1.00
Zn856  Zn    0.95660   0.25000   0.71735   0.00000  Uiso   1.00
C857   C     0.01569   0.77956   0.41787   0.00000  Uiso   1.00
C858   C     0.23305   0.97125   0.08214   0.00000  Uiso   1.00
C859   C     0.22025   0.98364   0.54103   0.00000  Uiso   1.00
C860   C     0.01636   0.77975   0.45897   0.00000  Uiso   1.00
C861   C     0.48570   0.71954   0.54127   0.00000  Uiso   1.00
C862   C     0.21954   0.98570   0.45873   0.00000  Uiso   1.00
C863   C     0.27975   0.51636   0.54103   0.00000  Uiso   1.00
C864   C     0.23363   0.97026   0.95897   0.00000  Uiso   1.00
C865   C     0.26432   0.53045   0.04127   0.00000  Uiso   1.00
C866   C     0.03047   0.76428   0.95873   0.00000  Uiso   1.00
C867   C     0.47024   0.73365   0.04103   0.00000  Uiso   1.00
C868   C     0.26637   0.52974   0.95897   0.00000  Uiso   1.00
C869   C     0.47123   0.73308   0.91786   0.00000  Uiso   1.00
C870   C     0.23568   0.96955   0.04127   0.00000  Uiso   1.00
C871   C     0.46953   0.73572   0.95873   0.00000  Uiso   1.00
C872   C     0.02976   0.76635   0.04103   0.00000  Uiso   1.00
C873   C     0.09809   0.84809   0.25000   0.00000  Uiso   1.00
C874   C     0.40191   0.65191   0.75000   0.00000  Uiso   1.00
C875   C     0.15198   0.59802   0.25000   0.00000  Uiso   1.00
C876   C     0.34806   0.90194   0.75000   0.00000  Uiso   1.00
C877   C     0.40191   0.65191   0.25000   0.00000  Uiso   1.00
C878   C     0.09810   0.84809   0.75000   0.00000  Uiso   1.00
C879   C     0.34802   0.90198   0.25000   0.00000  Uiso   1.00
C880   C     0.02955   0.76569   0.08213   0.00000  Uiso   1.00
C881   C     0.15194   0.59806   0.75000   0.00000  Uiso   1.00
C882   C     0.09802   0.65198   0.75000   0.00000  Uiso   1.00
C883   C     0.40194   0.84806   0.25000   0.00000  Uiso   1.00
C884   C     0.15191   0.90191   0.75000   0.00000  Uiso   1.00
C885   C     0.34810   0.59809   0.25000   0.00000  Uiso   1.00
C886   C     0.40198   0.84802   0.75000   0.00000  Uiso   1.00
C887   C     0.09806   0.65194   0.25000   0.00000  Uiso   1.00
C888   C     0.34809   0.59809   0.75000   0.00000  Uiso   1.00
C889   C     0.15191   0.90191   0.25000   0.00000  Uiso   1.00
C890   C     0.00000   0.75000   0.47943   0.00000  Uiso   1.00
C891   C     0.23432   0.97044   0.91787   0.00000  Uiso   1.00
C892   C     0.00000   0.75000   0.52066   0.00000  Uiso   1.00
C893   C     0.25000   0.50000   0.47934   0.00000  Uiso   1.00
C894   C     0.25000   0.50000   0.52057   0.00000  Uiso   1.00
C895   C     0.25000   0.50000   0.97943   0.00000  Uiso   1.00
C896   C     0.25000   0.50000   0.02066   0.00000  Uiso   1.00
C897   C    -0.00000   0.75000   0.97934   0.00000  Uiso   1.00
C898   C    -0.00000   0.75000   0.02057   0.00000  Uiso   1.00
C899   C     0.02777   0.81124   0.39424   0.00000  Uiso   1.00
C900   C     0.06268   0.81129   0.37713   0.00000  Uiso   1.00
C901   C     0.07376   0.84098   0.35466   0.00000  Uiso   1.00
C902   C     0.26695   0.52875   0.08214   0.00000  Uiso   1.00
C903   C     0.05020   0.87078   0.34920   0.00000  Uiso   1.00
C904   C     0.01538   0.87078   0.36588   0.00000  Uiso   1.00
C905   C     0.00401   0.84098   0.38809   0.00000  Uiso   1.00
C906   C     0.46064   0.69494   0.60478   0.00000  Uiso   1.00
C907   C     0.47743   0.67007   0.63040   0.00000  Uiso   1.00
C908   C     0.45614   0.64621   0.65234   0.00000  Uiso   1.00
C909   C     0.41808   0.64710   0.64909   0.00000  Uiso   1.00
C910   C     0.40118   0.67178   0.62382   0.00000  Uiso   1.00
C911   C     0.42234   0.69569   0.60171   0.00000  Uiso   1.00
C912   C     0.19493   0.96064   0.39522   0.00000  Uiso   1.00
C913   C     0.02877   0.76692   0.91786   0.00000  Uiso   1.00
C914   C     0.17007   0.97743   0.36960   0.00000  Uiso   1.00
C915   C     0.14621   0.95615   0.34766   0.00000  Uiso   1.00
C916   C     0.14709   0.91808   0.35091   0.00000  Uiso   1.00
C917   C     0.17178   0.90118   0.37618   0.00000  Uiso   1.00
C918   C     0.19569   0.92234   0.39829   0.00000  Uiso   1.00
C919   C     0.31124   0.52778   0.60576   0.00000  Uiso   1.00
C920   C     0.31129   0.56268   0.62287   0.00000  Uiso   1.00
C921   C     0.34098   0.57376   0.64534   0.00000  Uiso   1.00
C922   C     0.37078   0.55020   0.65080   0.00000  Uiso   1.00
C923   C     0.37078   0.51538   0.63411   0.00000  Uiso   1.00
C924   C     0.47044   0.73431   0.08213   0.00000  Uiso   1.00
C925   C     0.34099   0.50401   0.61191   0.00000  Uiso   1.00
C926   C     0.47223   0.68876   0.39424   0.00000  Uiso   1.00
C927   C     0.43732   0.68871   0.37713   0.00000  Uiso   1.00
C928   C     0.42624   0.65902   0.35466   0.00000  Uiso   1.00
C929   C     0.44981   0.62922   0.34920   0.00000  Uiso   1.00
C930   C     0.48462   0.62922   0.36588   0.00000  Uiso   1.00
C931   C     0.49599   0.65902   0.38809   0.00000  Uiso   1.00
C932   C     0.03936   0.80506   0.60478   0.00000  Uiso   1.00
C933   C     0.02257   0.82993   0.63040   0.00000  Uiso   1.00
C934   C     0.04386   0.85379   0.65234   0.00000  Uiso   1.00
C935   C     0.00000   0.75000   0.39810   0.00000  Uiso   1.00
C936   C     0.08192   0.85290   0.64909   0.00000  Uiso   1.00
C937   C     0.09882   0.82822   0.62382   0.00000  Uiso   1.00
C938   C     0.07766   0.80431   0.60171   0.00000  Uiso   1.00
C939   C     0.30507   0.53936   0.39522   0.00000  Uiso   1.00
C940   C     0.32993   0.52257   0.36960   0.00000  Uiso   1.00
C941   C     0.35379   0.54385   0.34766   0.00000  Uiso   1.00
C942   C     0.35291   0.58192   0.35091   0.00000  Uiso   1.00
C943   C     0.32822   0.59882   0.37618   0.00000  Uiso   1.00
C944   C     0.30431   0.57766   0.39829   0.00000  Uiso   1.00
C945   C     0.18876   0.97222   0.60576   0.00000  Uiso   1.00
C946   C     0.00000   0.75000   0.60204   0.00000  Uiso   1.00
C947   C     0.18872   0.93732   0.62287   0.00000  Uiso   1.00
C948   C     0.15902   0.92624   0.64534   0.00000  Uiso   1.00
C949   C     0.12922   0.94980   0.65080   0.00000  Uiso   1.00
C950   C     0.12922   0.98462   0.63411   0.00000  Uiso   1.00
C951   C     0.15901   0.99599   0.61191   0.00000  Uiso   1.00
C952   C     0.27772   0.56127   0.89425   0.00000  Uiso   1.00
C953   C     0.31260   0.56134   0.87707   0.00000  Uiso   1.00
C954   C     0.32364   0.59106   0.85463   0.00000  Uiso   1.00
C955   C     0.30006   0.62086   0.84924   0.00000  Uiso   1.00
C956   C     0.26527   0.62084   0.86599   0.00000  Uiso   1.00
C957   C     0.25000   0.50000   0.39796   0.00000  Uiso   1.00
C958   C     0.25394   0.59102   0.88819   0.00000  Uiso   1.00
C959   C     0.21062   0.94495   0.10478   0.00000  Uiso   1.00
C960   C     0.22740   0.92008   0.13039   0.00000  Uiso   1.00
C961   C     0.20611   0.89623   0.15234   0.00000  Uiso   1.00
C962   C     0.16804   0.89714   0.14910   0.00000  Uiso   1.00
C963   C     0.15114   0.92184   0.12384   0.00000  Uiso   1.00
C964   C     0.17231   0.94573   0.10173   0.00000  Uiso   1.00
C965   C     0.44491   0.71067   0.89522   0.00000  Uiso   1.00
C966   C     0.42006   0.72747   0.86960   0.00000  Uiso   1.00
C967   C     0.39618   0.70621   0.84766   0.00000  Uiso   1.00
C968   C     0.48306   0.72124   0.58214   0.00000  Uiso   1.00
C969   C     0.25000   0.50000   0.60190   0.00000  Uiso   1.00
C970   C     0.39703   0.66814   0.85092   0.00000  Uiso   1.00
C971   C     0.42171   0.65122   0.87619   0.00000  Uiso   1.00
C972   C     0.44563   0.67237   0.89829   0.00000  Uiso   1.00
C973   C     0.06122   0.77780   0.10577   0.00000  Uiso   1.00
C974   C     0.06126   0.81272   0.12284   0.00000  Uiso   1.00
C975   C     0.09093   0.82383   0.14531   0.00000  Uiso   1.00
C976   C     0.12073   0.80027   0.15083   0.00000  Uiso   1.00
C977   C     0.12074   0.76544   0.13418   0.00000  Uiso   1.00
C978   C     0.09097   0.75405   0.11196   0.00000  Uiso   1.00
C979   C     0.22228   0.93873   0.89425   0.00000  Uiso   1.00
C980   C     0.25000   0.50000   0.89810   0.00000  Uiso   1.00
C981   C     0.18740   0.93866   0.87708   0.00000  Uiso   1.00
C982   C     0.17636   0.90894   0.85463   0.00000  Uiso   1.00
C983   C     0.19994   0.87914   0.84924   0.00000  Uiso   1.00
C984   C     0.23473   0.87917   0.86599   0.00000  Uiso   1.00
C985   C     0.24606   0.90898   0.88818   0.00000  Uiso   1.00
C986   C     0.28938   0.55505   0.10478   0.00000  Uiso   1.00
C987   C     0.27260   0.57992   0.13039   0.00000  Uiso   1.00
C988   C     0.29390   0.60377   0.15234   0.00000  Uiso   1.00
C989   C     0.33196   0.60286   0.14910   0.00000  Uiso   1.00
C990   C     0.34886   0.57816   0.12384   0.00000  Uiso   1.00
C991   C     0.25000   0.50000   0.10204   0.00000  Uiso   1.00
C992   C     0.32769   0.55427   0.10173   0.00000  Uiso   1.00
C993   C     0.05509   0.78933   0.89522   0.00000  Uiso   1.00
C994   C     0.07994   0.77253   0.86960   0.00000  Uiso   1.00
C995   C     0.10382   0.79380   0.84766   0.00000  Uiso   1.00
C996   C     0.10296   0.83186   0.85092   0.00000  Uiso   1.00
C997   C     0.07828   0.84878   0.87619   0.00000  Uiso   1.00
C998   C     0.05436   0.82763   0.89829   0.00000  Uiso   1.00
C999   C     0.43878   0.72219   0.10577   0.00000  Uiso   1.00
C1000  C     0.43875   0.68727   0.12283   0.00000  Uiso   1.00
C1001  C     0.40907   0.67617   0.14531   0.00000  Uiso   1.00
C1002  C     0.00000   0.75000   0.89796   0.00000  Uiso   1.00
C1003  C     0.37927   0.69972   0.15083   0.00000  Uiso   1.00
C1004  C     0.37926   0.73455   0.13418   0.00000  Uiso   1.00
C1005  C     0.40904   0.74595   0.11197   0.00000  Uiso   1.00
C1006  C    -0.00000   0.75000   0.10190   0.00000  Uiso   1.00
C1007  C     0.46850   0.69079   0.48054   0.00000  Uiso   1.00
C1008  C     0.02612   0.81137   0.52032   0.00000  Uiso   1.00
C1009  C     0.31137   0.52612   0.47968   0.00000  Uiso   1.00
C1010  C     0.19079   0.96850   0.51946   0.00000  Uiso   1.00
C1011  C     0.03150   0.80921   0.48054   0.00000  Uiso   1.00
C1012  C     0.22124   0.98306   0.41786   0.00000  Uiso   1.00
C1013  C     0.47388   0.68863   0.52032   0.00000  Uiso   1.00
C1014  C     0.18863   0.97388   0.47968   0.00000  Uiso   1.00
C1015  C     0.30921   0.53150   0.51946   0.00000  Uiso   1.00
C1016  C     0.21846   0.94082   0.98054   0.00000  Uiso   1.00
C1017  C     0.27617   0.56135   0.02032   0.00000  Uiso   1.00
C1018  C     0.06139   0.77608   0.97968   0.00000  Uiso   1.00
C1019  C     0.44077   0.71854   0.01946   0.00000  Uiso   1.00
C1020  C     0.28154   0.55918   0.98054   0.00000  Uiso   1.00
C1021  C     0.22383   0.93865   0.02032   0.00000  Uiso   1.00
C1022  C     0.43861   0.72392   0.97968   0.00000  Uiso   1.00
C1023  C     0.27956   0.51569   0.58213   0.00000  Uiso   1.00
C1024  C     0.05922   0.78147   0.01946   0.00000  Uiso   1.00
C1025  C     0.25000   0.50000   0.35569   0.00000  Uiso   1.00
C1026  C     0.25000   0.50000   0.64429   0.00000  Uiso   1.00
C1027  C     0.00000   0.75000   0.35571   0.00000  Uiso   1.00
C1028  C     0.00000   0.75000   0.64431   0.00000  Uiso   1.00
C1029  C     0.00000   0.75000   0.85569   0.00000  Uiso   1.00
C1030  C     0.00000   0.75000   0.14429   0.00000  Uiso   1.00
C1031  C     0.25000   0.50000   0.85571   0.00000  Uiso   1.00
C1032  C     0.25000   0.50000   0.14431   0.00000  Uiso   1.00
C1033  C     0.18004   0.56996   0.25000   0.00000  Uiso   1.00
C1034  C     0.48431   0.72044   0.41787   0.00000  Uiso   1.00
C1035  C     0.31997   0.93003   0.75000   0.00000  Uiso   1.00
C1036  C     0.42998   0.67998   0.25000   0.00000  Uiso   1.00
C1037  C     0.07003   0.82002   0.75000   0.00000  Uiso   1.00
C1038  C     0.31996   0.93004   0.25000   0.00000  Uiso   1.00
C1039  C     0.18003   0.56997   0.75000   0.00000  Uiso   1.00
C1040  C     0.07002   0.82002   0.25000   0.00000  Uiso   1.00
C1041  C     0.42998   0.67998   0.75000   0.00000  Uiso   1.00
C1042  C     0.17998   0.92998   0.75000   0.00000  Uiso   1.00
C1043  C     0.32003   0.57002   0.25000   0.00000  Uiso   1.00
C1044  C     0.43004   0.81996   0.75000   0.00000  Uiso   1.00
C1045  C     0.01694   0.77876   0.58214   0.00000  Uiso   1.00
C1046  C     0.06997   0.68003   0.25000   0.00000  Uiso   1.00
C1047  C     0.32002   0.57002   0.75000   0.00000  Uiso   1.00
C1048  C     0.17998   0.92998   0.25000   0.00000  Uiso   1.00
C1049  C     0.06996   0.68004   0.75000   0.00000  Uiso   1.00
C1050  C     0.43003   0.81997   0.25000   0.00000  Uiso   1.00
C1051  C     0.11475   0.91211   0.24742   0.00000  Uiso   1.00
C1052  C     0.38523   0.58788   0.75256   0.00000  Uiso   1.00
C1053  C     0.09071   0.61775   0.26667   0.00000  Uiso   1.00
C1054  C     0.40929   0.88214   0.73317   0.00000  Uiso   1.00
C1055  C     0.38525   0.58789   0.24742   0.00000  Uiso   1.00
C1056  C     0.27876   0.51694   0.41786   0.00000  Uiso   1.00
C1057  C     0.11477   0.91212   0.75256   0.00000  Uiso   1.00
C1058  C     0.40929   0.88225   0.26667   0.00000  Uiso   1.00
C1059  C     0.09071   0.61786   0.73317   0.00000  Uiso   1.00
C1060  C     0.11776   0.59072   0.73332   0.00000  Uiso   1.00
C1061  C     0.38215   0.90929   0.26683   0.00000  Uiso   1.00
C1062  C     0.08789   0.88525   0.75258   0.00000  Uiso   1.00
C1063  C     0.41212   0.61477   0.24743   0.00000  Uiso   1.00
C1064  C     0.38225   0.90929   0.73332   0.00000  Uiso   1.00
C1065  C     0.11785   0.59071   0.26683   0.00000  Uiso   1.00
C1066  C     0.41211   0.61475   0.75258   0.00000  Uiso   1.00
C1067  C     0.22044   0.98431   0.58213   0.00000  Uiso   1.00
C1068  C     0.08788   0.88523   0.24743   0.00000  Uiso   1.00
C1069  C     0.36475   0.66211   0.74743   0.00000  Uiso   1.00
C1070  C     0.13523   0.83788   0.25257   0.00000  Uiso   1.00
C1071  C     0.34071   0.86776   0.76668   0.00000  Uiso   1.00
C1072  C     0.15929   0.63215   0.23318   0.00000  Uiso   1.00
C1073  C     0.13525   0.83789   0.74743   0.00000  Uiso   1.00
C1074  C     0.36477   0.66212   0.25257   0.00000  Uiso   1.00
C1075  C     0.15929   0.63224   0.76668   0.00000  Uiso   1.00
C1076  C     0.34071   0.86785   0.23318   0.00000  Uiso   1.00
C1077  C     0.36775   0.84071   0.23333   0.00000  Uiso   1.00
C1078  C     0.26568   0.52956   0.91787   0.00000  Uiso   1.00
C1079  C     0.13214   0.65929   0.76684   0.00000  Uiso   1.00
C1080  C     0.33789   0.63525   0.25258   0.00000  Uiso   1.00
C1081  C     0.16212   0.86477   0.74744   0.00000  Uiso   1.00
C1082  C     0.13225   0.65929   0.23333   0.00000  Uiso   1.00
C1083  C     0.36786   0.84071   0.76683   0.00000  Uiso   1.00
C1084  C     0.16211   0.86475   0.25258   0.00000  Uiso   1.00
C1085  C     0.33788   0.63523   0.74744   0.00000  Uiso   1.00
C1086  C     0.48364   0.72025   0.45897   0.00000  Uiso   1.00
C1087  C     0.01430   0.78046   0.54127   0.00000  Uiso   1.00
C1088  C     0.28046   0.51430   0.45873   0.00000  Uiso   1.00
Cl1089 Cl    0.43937   0.65670   0.46112   0.00000  Uiso   1.00
Cl1090 Cl    0.27952   0.60560   0.04134   0.00000  Uiso   1.00
Cl1091 Cl    0.10564   0.77934   0.95865   0.00000  Uiso   1.00
Cl1092 Cl    0.40664   0.68944   0.03887   0.00000  Uiso   1.00
Cl1093 Cl    0.31073   0.59323   0.96111   0.00000  Uiso   1.00
Cl1094 Cl    0.22049   0.89440   0.04134   0.00000  Uiso   1.00
Cl1095 Cl    0.39436   0.72067   0.95865   0.00000  Uiso   1.00
Cl1096 Cl    0.09335   0.81057   0.03887   0.00000  Uiso   1.00
Cl1097 Cl    0.10107   0.95866   0.24613   0.00000  Uiso   1.00
Cl1098 Cl    0.39888   0.54131   0.75386   0.00000  Uiso   1.00
Cl1099 Cl    0.04785   0.60911   0.28828   0.00000  Uiso   1.00
Cl1100 Cl    0.02942   0.85562   0.54135   0.00000  Uiso   1.00
Cl1101 Cl    0.45194   0.89052   0.71086   0.00000  Uiso   1.00
Cl1102 Cl    0.39893   0.54134   0.24613   0.00000  Uiso   1.00
Cl1103 Cl    0.10112   0.95869   0.75386   0.00000  Uiso   1.00
Cl1104 Cl    0.45215   0.89089   0.28828   0.00000  Uiso   1.00
Cl1105 Cl    0.04806   0.60948   0.71086   0.00000  Uiso   1.00
Cl1106 Cl    0.10912   0.54786   0.71170   0.00000  Uiso   1.00
Cl1107 Cl    0.39053   0.95195   0.28912   0.00000  Uiso   1.00
Cl1108 Cl    0.04134   0.89893   0.75387   0.00000  Uiso   1.00
Cl1109 Cl    0.45869   0.60112   0.24613   0.00000  Uiso   1.00
Cl1110 Cl    0.39088   0.95215   0.71170   0.00000  Uiso   1.00
Cl1111 Cl    0.35562   0.52942   0.45865   0.00000  Uiso   1.00
Cl1112 Cl    0.10947   0.54805   0.28912   0.00000  Uiso   1.00
Cl1113 Cl    0.45866   0.60107   0.75387   0.00000  Uiso   1.00
Cl1114 Cl    0.04131   0.89888   0.24613   0.00000  Uiso   1.00
Cl1115 Cl    0.35107   0.70866   0.74614   0.00000  Uiso   1.00
Cl1116 Cl    0.14888   0.79131   0.25387   0.00000  Uiso   1.00
Cl1117 Cl    0.29785   0.85912   0.78831   0.00000  Uiso   1.00
Cl1118 Cl    0.20195   0.64053   0.21088   0.00000  Uiso   1.00
Cl1119 Cl    0.14893   0.79134   0.74614   0.00000  Uiso   1.00
Cl1120 Cl    0.35112   0.70869   0.25387   0.00000  Uiso   1.00
Cl1121 Cl    0.20215   0.64088   0.78831   0.00000  Uiso   1.00
Cl1122 Cl    0.15670   0.93936   0.53888   0.00000  Uiso   1.00
Cl1123 Cl    0.29805   0.85947   0.21088   0.00000  Uiso   1.00
Cl1124 Cl    0.35911   0.79785   0.21172   0.00000  Uiso   1.00
Cl1125 Cl    0.14053   0.70194   0.78914   0.00000  Uiso   1.00
Cl1126 Cl    0.29134   0.64893   0.25387   0.00000  Uiso   1.00
Cl1127 Cl    0.20869   0.85112   0.74615   0.00000  Uiso   1.00
Cl1128 Cl    0.14089   0.70215   0.21172   0.00000  Uiso   1.00
Cl1129 Cl    0.35947   0.79806   0.78914   0.00000  Uiso   1.00
Cl1130 Cl    0.20866   0.85107   0.25387   0.00000  Uiso   1.00
Cl1131 Cl    0.29131   0.64888   0.74615   0.00000  Uiso   1.00
Cl1132 Cl    0.06063   0.84331   0.46112   0.00000  Uiso   1.00
Cl1133 Cl    0.47058   0.64438   0.54135   0.00000  Uiso   1.00
Cl1134 Cl    0.14438   0.97058   0.45865   0.00000  Uiso   1.00
Cl1135 Cl    0.34330   0.56064   0.53888   0.00000  Uiso   1.00
Cl1136 Cl    0.18927   0.90677   0.96111   0.00000  Uiso   1.00
H1137  H     0.08123   0.78844   0.38145   0.00000  Uiso   1.00
H1138  H     0.40898   0.71486   0.58237   0.00000  Uiso   1.00
H1139  H     0.16922   0.50692   0.36677   0.00000  Uiso   1.00
H1140  H     0.12708   0.96917   0.32809   0.00000  Uiso   1.00
H1141  H     0.12876   0.90170   0.33371   0.00000  Uiso   1.00
H1142  H     0.17245   0.87167   0.37854   0.00000  Uiso   1.00
H1143  H     0.21486   0.90898   0.41763   0.00000  Uiso   1.00
H1144  H     0.28844   0.58123   0.61855   0.00000  Uiso   1.00
H1145  H     0.34087   0.60064   0.65842   0.00000  Uiso   1.00
H1146  H     0.39390   0.55892   0.66790   0.00000  Uiso   1.00
H1147  H     0.39393   0.99723   0.63829   0.00000  Uiso   1.00
H1148  H     0.10064   0.84087   0.34158   0.00000  Uiso   1.00
H1149  H     0.34120   0.97696   0.59917   0.00000  Uiso   1.00
H1150  H     0.41877   0.71156   0.38145   0.00000  Uiso   1.00
H1151  H     0.39937   0.65913   0.34158   0.00000  Uiso   1.00
H1152  H     0.44109   0.60610   0.33209   0.00000  Uiso   1.00
H1153  H     0.00277   0.60608   0.36170   0.00000  Uiso   1.00
H1154  H     0.02305   0.65880   0.40082   0.00000  Uiso   1.00
H1155  H     0.49308   0.83078   0.63323   0.00000  Uiso   1.00
H1156  H     0.03083   0.87292   0.67191   0.00000  Uiso   1.00
H1157  H     0.09831   0.87123   0.66629   0.00000  Uiso   1.00
H1158  H     0.12833   0.82754   0.62146   0.00000  Uiso   1.00
H1159  H     0.05891   0.89390   0.33209   0.00000  Uiso   1.00
H1160  H     0.09102   0.78514   0.58237   0.00000  Uiso   1.00
H1161  H     0.33078   0.99308   0.36677   0.00000  Uiso   1.00
H1162  H     0.37292   0.53083   0.32809   0.00000  Uiso   1.00
H1163  H     0.37124   0.59830   0.33371   0.00000  Uiso   1.00
H1164  H     0.32755   0.62833   0.37854   0.00000  Uiso   1.00
H1165  H     0.28514   0.59102   0.41763   0.00000  Uiso   1.00
H1166  H     0.21156   0.91877   0.61855   0.00000  Uiso   1.00
H1167  H     0.15913   0.89936   0.65842   0.00000  Uiso   1.00
H1168  H     0.10610   0.94108   0.66790   0.00000  Uiso   1.00
H1169  H     0.10607   0.50277   0.63829   0.00000  Uiso   1.00
H1170  H     0.49723   0.89392   0.36170   0.00000  Uiso   1.00
H1171  H     0.15880   0.52304   0.59917   0.00000  Uiso   1.00
H1172  H     0.33117   0.53850   0.88133   0.00000  Uiso   1.00
H1173  H     0.35049   0.59097   0.84149   0.00000  Uiso   1.00
H1174  H     0.30875   0.64401   0.83215   0.00000  Uiso   1.00
H1175  H     0.24711   0.64398   0.86187   0.00000  Uiso   1.00
H1176  H     0.22691   0.59121   0.90097   0.00000  Uiso   1.00
H1177  H     0.25689   0.91920   0.13321   0.00000  Uiso   1.00
H1178  H     0.21912   0.87709   0.17190   0.00000  Uiso   1.00
H1179  H     0.15165   0.87882   0.16631   0.00000  Uiso   1.00
H1180  H     0.12164   0.92253   0.12149   0.00000  Uiso   1.00
H1181  H     0.47695   0.84120   0.40082   0.00000  Uiso   1.00
H1182  H     0.15896   0.96492   0.08240   0.00000  Uiso   1.00
H1183  H     0.41923   0.75696   0.86676   0.00000  Uiso   1.00
H1184  H     0.37706   0.71924   0.82808   0.00000  Uiso   1.00
H1185  H     0.37869   0.65177   0.83372   0.00000  Uiso   1.00
H1186  H     0.42236   0.62172   0.87856   0.00000  Uiso   1.00
H1187  H     0.46480   0.65900   0.91764   0.00000  Uiso   1.00
H1188  H     0.03841   0.83127   0.11849   0.00000  Uiso   1.00
H1189  H     0.09081   0.85072   0.15837   0.00000  Uiso   1.00
H1190  H     0.14384   0.80901   0.16793   0.00000  Uiso   1.00
H1191  H     0.14389   0.74730   0.13839   0.00000  Uiso   1.00
H1192  H     0.00692   0.66922   0.63323   0.00000  Uiso   1.00
H1193  H     0.09119   0.72698   0.09926   0.00000  Uiso   1.00
H1194  H     0.16883   0.96150   0.88134   0.00000  Uiso   1.00
H1195  H     0.14951   0.90903   0.84149   0.00000  Uiso   1.00
H1196  H     0.19125   0.85600   0.83215   0.00000  Uiso   1.00
H1197  H     0.25289   0.85602   0.86187   0.00000  Uiso   1.00
H1198  H     0.27309   0.90879   0.90096   0.00000  Uiso   1.00
H1199  H     0.24312   0.58080   0.13321   0.00000  Uiso   1.00
H1200  H     0.28088   0.62291   0.17190   0.00000  Uiso   1.00
H1201  H     0.34835   0.62118   0.16631   0.00000  Uiso   1.00
H1202  H     0.37836   0.57747   0.12149   0.00000  Uiso   1.00
H1203  H     0.46917   0.62708   0.67191   0.00000  Uiso   1.00
H1204  H     0.34104   0.53508   0.08240   0.00000  Uiso   1.00
H1205  H     0.08077   0.74304   0.86676   0.00000  Uiso   1.00
H1206  H     0.12294   0.78077   0.82809   0.00000  Uiso   1.00
H1207  H     0.12131   0.84824   0.83372   0.00000  Uiso   1.00
H1208  H     0.07764   0.87828   0.87856   0.00000  Uiso   1.00
H1209  H     0.03520   0.84100   0.91764   0.00000  Uiso   1.00
H1210  H     0.46159   0.66873   0.11848   0.00000  Uiso   1.00
H1211  H     0.40919   0.64928   0.15837   0.00000  Uiso   1.00
H1212  H     0.35616   0.69098   0.16794   0.00000  Uiso   1.00
H1213  H     0.35611   0.75270   0.13840   0.00000  Uiso   1.00
H1214  H     0.40169   0.62877   0.66629   0.00000  Uiso   1.00
H1215  H     0.40881   0.77302   0.09927   0.00000  Uiso   1.00
H1216  H     0.37167   0.67246   0.62146   0.00000  Uiso   1.00
O1217  O     0.25000   0.50000   0.25000   0.00000  Uiso   1.00
O1218  O     0.25000   0.96964   0.66245   0.00000  Uiso   1.00
O1219  O     0.46964   0.75000   0.33755   0.00000  Uiso   1.00
O1220  O     0.03037   0.75000   0.66245   0.00000  Uiso   1.00
O1221  O     0.00000   0.71964   0.83755   0.00000  Uiso   1.00
O1222  O     0.00000   0.78037   0.16245   0.00000  Uiso   1.00
O1223  O     0.28037   0.50000   0.83755   0.00000  Uiso   1.00
O1224  O     0.21964   0.50000   0.16245   0.00000  Uiso   1.00
O1225  O     0.00000   0.78037   0.83755   0.00000  Uiso   1.00
O1226  O     0.00000   0.71964   0.16245   0.00000  Uiso   1.00
O1227  O     0.21964   0.50000   0.83755   0.00000  Uiso   1.00
O1228  O     0.25000   0.50000   0.75000   0.00000  Uiso   1.00
O1229  O     0.28037   0.50000   0.16245   0.00000  Uiso   1.00
O1230  O     0.20725   0.57308   0.27302   0.00000  Uiso   1.00
O1231  O     0.29276   0.92693   0.72698   0.00000  Uiso   1.00
O1232  O     0.42693   0.70725   0.27302   0.00000  Uiso   1.00
O1233  O     0.07308   0.79276   0.72698   0.00000  Uiso   1.00
O1234  O     0.29276   0.92693   0.27302   0.00000  Uiso   1.00
O1235  O     0.20725   0.57308   0.72698   0.00000  Uiso   1.00
O1236  O     0.07308   0.79276   0.27302   0.00000  Uiso   1.00
O1237  O     0.42693   0.70725   0.72698   0.00000  Uiso   1.00
O1238  O     0.20725   0.92693   0.72698   0.00000  Uiso   1.00
O1239  O     0.00000   0.75000   0.25000   0.00000  Uiso   1.00
O1240  O     0.29276   0.57308   0.27302   0.00000  Uiso   1.00
O1241  O     0.42693   0.79276   0.72698   0.00000  Uiso   1.00
O1242  O     0.07308   0.70725   0.27302   0.00000  Uiso   1.00
O1243  O     0.29276   0.57308   0.72698   0.00000  Uiso   1.00
O1244  O     0.20725   0.92693   0.27302   0.00000  Uiso   1.00
O1245  O     0.07308   0.70725   0.72698   0.00000  Uiso   1.00
O1246  O     0.42693   0.79276   0.27302   0.00000  Uiso   1.00
O1247  O     0.45725   0.82308   0.77302   0.00000  Uiso   1.00
O1248  O     0.04276   0.67693   0.22698   0.00000  Uiso   1.00
O1249  O     0.17693   0.95725   0.77302   0.00000  Uiso   1.00
O1250  O     0.00000   0.75000   0.75000   0.00000  Uiso   1.00
O1251  O     0.32308   0.54276   0.22698   0.00000  Uiso   1.00
O1252  O     0.04276   0.67693   0.77302   0.00000  Uiso   1.00
O1253  O     0.45725   0.82308   0.22698   0.00000  Uiso   1.00
O1254  O     0.32308   0.54276   0.77302   0.00000  Uiso   1.00
O1255  O     0.17693   0.95725   0.22698   0.00000  Uiso   1.00
O1256  O     0.45725   0.67693   0.22698   0.00000  Uiso   1.00
O1257  O     0.04276   0.82308   0.77302   0.00000  Uiso   1.00
O1258  O     0.17693   0.54276   0.22698   0.00000  Uiso   1.00
O1259  O     0.32308   0.95725   0.77302   0.00000  Uiso   1.00
O1260  O     0.04276   0.82308   0.22698   0.00000  Uiso   1.00
O1261  O     0.25000   0.96964   0.33755   0.00000  Uiso   1.00
O1262  O     0.45725   0.67693   0.77302   0.00000  Uiso   1.00
O1263  O     0.32308   0.95725   0.22698   0.00000  Uiso   1.00
O1264  O     0.17693   0.54276   0.77302   0.00000  Uiso   1.00
O1265  O     0.25000   0.53037   0.66245   0.00000  Uiso   1.00
O1266  O     0.03037   0.75000   0.33755   0.00000  Uiso   1.00
O1267  O     0.46964   0.75000   0.66245   0.00000  Uiso   1.00
O1268  O     0.25000   0.53037   0.33755   0.00000  Uiso   1.00
Zn1269 Zn    0.20660   0.50000   0.21735   0.00000  Uiso   1.00
Zn1270 Zn    0.04341   0.75000   0.28265   0.00000  Uiso   1.00
Zn1271 Zn    0.25000   0.95660   0.71735   0.00000  Uiso   1.00
Zn1272 Zn    0.25000   0.54341   0.28265   0.00000  Uiso   1.00
Zn1273 Zn    0.04341   0.75000   0.71735   0.00000  Uiso   1.00
Zn1274 Zn    0.45660   0.75000   0.28265   0.00000  Uiso   1.00
Zn1275 Zn    0.25000   0.54341   0.71735   0.00000  Uiso   1.00
Zn1276 Zn    0.25000   0.95660   0.28265   0.00000  Uiso   1.00
Zn1277 Zn    0.29341   0.50000   0.78265   0.00000  Uiso   1.00
Zn1278 Zn    0.00000   0.70660   0.21735   0.00000  Uiso   1.00
Zn1279 Zn    0.00000   0.79341   0.78265   0.00000  Uiso   1.00
Zn1280 Zn    0.29341   0.50000   0.21735   0.00000  Uiso   1.00
Zn1281 Zn    0.20660   0.50000   0.78265   0.00000  Uiso   1.00
Zn1282 Zn    0.00000   0.79341   0.21735   0.00000  Uiso   1.00
Zn1283 Zn    0.00000   0.70660   0.78265   0.00000  Uiso   1.00
Zn1284 Zn    0.45660   0.75000   0.71735   0.00000  Uiso   1.00
C1285  C     0.51569   0.77956   0.41787   0.00000  Uiso   1.00
C1286  C     0.73305   0.97125   0.08214   0.00000  Uiso   1.00
C1287  C     0.72025   0.98364   0.54103   0.00000  Uiso   1.00
C1288  C     0.51636   0.77975   0.45897   0.00000  Uiso   1.00
C1289  C     0.98570   0.71954   0.54127   0.00000  Uiso   1.00
C1290  C     0.71954   0.98570   0.45873   0.00000  Uiso   1.00
C1291  C     0.77975   0.51636   0.54103   0.00000  Uiso   1.00
C1292  C     0.73363   0.97026   0.95897   0.00000  Uiso   1.00
C1293  C     0.76432   0.53045   0.04127   0.00000  Uiso   1.00
C1294  C     0.53047   0.76428   0.95873   0.00000  Uiso   1.00
C1295  C     0.97024   0.73365   0.04103   0.00000  Uiso   1.00
C1296  C     0.76637   0.52974   0.95897   0.00000  Uiso   1.00
C1297  C     0.97123   0.73308   0.91786   0.00000  Uiso   1.00
C1298  C     0.73568   0.96955   0.04127   0.00000  Uiso   1.00
C1299  C     0.96953   0.73572   0.95873   0.00000  Uiso   1.00
C1300  C     0.52976   0.76635   0.04103   0.00000  Uiso   1.00
C1301  C     0.59809   0.84809   0.25000   0.00000  Uiso   1.00
C1302  C     0.90191   0.65191   0.75000   0.00000  Uiso   1.00
C1303  C     0.65198   0.59802   0.25000   0.00000  Uiso   1.00
C1304  C     0.84806   0.90194   0.75000   0.00000  Uiso   1.00
C1305  C     0.90191   0.65191   0.25000   0.00000  Uiso   1.00
C1306  C     0.59810   0.84809   0.75000   0.00000  Uiso   1.00
C1307  C     0.84802   0.90198   0.25000   0.00000  Uiso   1.00
C1308  C     0.52955   0.76569   0.08213   0.00000  Uiso   1.00
C1309  C     0.65194   0.59806   0.75000   0.00000  Uiso   1.00
C1310  C     0.59802   0.65198   0.75000   0.00000  Uiso   1.00
C1311  C     0.90194   0.84806   0.25000   0.00000  Uiso   1.00
C1312  C     0.65191   0.90191   0.75000   0.00000  Uiso   1.00
C1313  C     0.84810   0.59809   0.25000   0.00000  Uiso   1.00
C1314  C     0.90198   0.84802   0.75000   0.00000  Uiso   1.00
C1315  C     0.59806   0.65194   0.25000   0.00000  Uiso   1.00
C1316  C     0.84809   0.59809   0.75000   0.00000  Uiso   1.00
C1317  C     0.65191   0.90191   0.25000   0.00000  Uiso   1.00
C1318  C     0.50000   0.75000   0.47943   0.00000  Uiso   1.00
C1319  C     0.73432   0.97044   0.91787   0.00000  Uiso   1.00
C1320  C     0.50000   0.75000   0.52066   0.00000  Uiso   1.00
C1321  C     0.75000   0.50000   0.47934   0.00000  Uiso   1.00
C1322  C     0.75000   0.50000   0.52057   0.00000  Uiso   1.00
C1323  C     0.75000   0.50000   0.97943   0.00000  Uiso   1.00
C1324  C     0.75000   0.50000   0.02066   0.00000  Uiso   1.00
C1325  C     0.50000   0.75000   0.97934   0.00000  Uiso   1.00
C1326  C     0.50000   0.75000   0.02057   0.00000  Uiso   1.00
C1327  C     0.52777   0.81124   0.39424   0.00000  Uiso   1.00
C1328  C     0.56268   0.81129   0.37713   0.00000  Uiso   1.00
C1329  C     0.57376   0.84098   0.35466   0.00000  Uiso   1.00
C1330  C     0.76695   0.52875   0.08214   0.00000  Uiso   1.00
C1331  C     0.55020   0.87078   0.34920   0.00000  Uiso   1.00
C1332  C     0.51538   0.87078   0.36588   0.00000  Uiso   1.00
C1333  C     0.50401   0.84098   0.38809   0.00000  Uiso   1.00
C1334  C     0.96064   0.69494   0.60478   0.00000  Uiso   1.00
C1335  C     0.97743   0.67007   0.63040   0.00000  Uiso   1.00
C1336  C     0.95614   0.64621   0.65234   0.00000  Uiso   1.00
C1337  C     0.91808   0.64710   0.64909   0.00000  Uiso   1.00
C1338  C     0.90118   0.67178   0.62382   0.00000  Uiso   1.00
C1339  C     0.92234   0.69569   0.60171   0.00000  Uiso   1.00
C1340  C     0.69493   0.96064   0.39522   0.00000  Uiso   1.00
C1341  C     0.52877   0.76692   0.91786   0.00000  Uiso   1.00
C1342  C     0.67007   0.97743   0.36960   0.00000  Uiso   1.00
C1343  C     0.64621   0.95615   0.34766   0.00000  Uiso   1.00
C1344  C     0.64709   0.91808   0.35091   0.00000  Uiso   1.00
C1345  C     0.67178   0.90118   0.37618   0.00000  Uiso   1.00
C1346  C     0.69569   0.92234   0.39829   0.00000  Uiso   1.00
C1347  C     0.81124   0.52778   0.60576   0.00000  Uiso   1.00
C1348  C     0.81129   0.56268   0.62287   0.00000  Uiso   1.00
C1349  C     0.84098   0.57376   0.64534   0.00000  Uiso   1.00
C1350  C     0.87078   0.55020   0.65080   0.00000  Uiso   1.00
C1351  C     0.87078   0.51538   0.63411   0.00000  Uiso   1.00
C1352  C     0.97044   0.73431   0.08213   0.00000  Uiso   1.00
C1353  C     0.84099   0.50401   0.61191   0.00000  Uiso   1.00
C1354  C     0.97223   0.68876   0.39424   0.00000  Uiso   1.00
C1355  C     0.93732   0.68871   0.37713   0.00000  Uiso   1.00
C1356  C     0.92624   0.65902   0.35466   0.00000  Uiso   1.00
C1357  C     0.94981   0.62922   0.34920   0.00000  Uiso   1.00
C1358  C     0.98462   0.62922   0.36588   0.00000  Uiso   1.00
C1359  C     0.99599   0.65902   0.38809   0.00000  Uiso   1.00
C1360  C     0.53936   0.80506   0.60478   0.00000  Uiso   1.00
C1361  C     0.52257   0.82993   0.63040   0.00000  Uiso   1.00
C1362  C     0.54386   0.85379   0.65234   0.00000  Uiso   1.00
C1363  C     0.50000   0.75000   0.39810   0.00000  Uiso   1.00
C1364  C     0.58192   0.85290   0.64909   0.00000  Uiso   1.00
C1365  C     0.59882   0.82822   0.62382   0.00000  Uiso   1.00
C1366  C     0.57766   0.80431   0.60171   0.00000  Uiso   1.00
C1367  C     0.80507   0.53936   0.39522   0.00000  Uiso   1.00
C1368  C     0.82993   0.52257   0.36960   0.00000  Uiso   1.00
C1369  C     0.85379   0.54385   0.34766   0.00000  Uiso   1.00
C1370  C     0.85291   0.58192   0.35091   0.00000  Uiso   1.00
C1371  C     0.82822   0.59882   0.37618   0.00000  Uiso   1.00
C1372  C     0.80431   0.57766   0.39829   0.00000  Uiso   1.00
C1373  C     0.68876   0.97222   0.60576   0.00000  Uiso   1.00
C1374  C     0.50000   0.75000   0.60204   0.00000  Uiso   1.00
C1375  C     0.68872   0.93732   0.62287   0.00000  Uiso   1.00
C1376  C     0.65902   0.92624   0.64534   0.00000  Uiso   1.00
C1377  C     0.62922   0.94980   0.65080   0.00000  Uiso   1.00
C1378  C     0.62922   0.98462   0.63411   0.00000  Uiso   1.00
C1379  C     0.65901   0.99599   0.61191   0.00000  Uiso   1.00
C1380  C     0.77772   0.56127   0.89425   0.00000  Uiso   1.00
C1381  C     0.81260   0.56134   0.87707   0.00000  Uiso   1.00
C1382  C     0.82364   0.59106   0.85463   0.00000  Uiso   1.00
C1383  C     0.80006   0.62086   0.84924   0.00000  Uiso   1.00
C1384  C     0.76527   0.62084   0.86599   0.00000  Uiso   1.00
C1385  C     0.75000   0.50000   0.39796   0.00000  Uiso   1.00
C1386  C     0.75394   0.59102   0.88819   0.00000  Uiso   1.00
C1387  C     0.71062   0.94495   0.10478   0.00000  Uiso   1.00
C1388  C     0.72740   0.92008   0.13039   0.00000  Uiso   1.00
C1389  C     0.70611   0.89623   0.15234   0.00000  Uiso   1.00
C1390  C     0.66804   0.89714   0.14910   0.00000  Uiso   1.00
C1391  C     0.65114   0.92184   0.12384   0.00000  Uiso   1.00
C1392  C     0.67231   0.94573   0.10173   0.00000  Uiso   1.00
C1393  C     0.94491   0.71067   0.89522   0.00000  Uiso   1.00
C1394  C     0.92006   0.72747   0.86960   0.00000  Uiso   1.00
C1395  C     0.89618   0.70621   0.84766   0.00000  Uiso   1.00
C1396  C     0.98306   0.72124   0.58214   0.00000  Uiso   1.00
C1397  C     0.75000   0.50000   0.60190   0.00000  Uiso   1.00
C1398  C     0.89703   0.66814   0.85092   0.00000  Uiso   1.00
C1399  C     0.92171   0.65122   0.87619   0.00000  Uiso   1.00
C1400  C     0.94563   0.67237   0.89829   0.00000  Uiso   1.00
C1401  C     0.56122   0.77780   0.10577   0.00000  Uiso   1.00
C1402  C     0.56126   0.81272   0.12284   0.00000  Uiso   1.00
C1403  C     0.59093   0.82383   0.14531   0.00000  Uiso   1.00
C1404  C     0.62073   0.80027   0.15083   0.00000  Uiso   1.00
C1405  C     0.62074   0.76544   0.13418   0.00000  Uiso   1.00
C1406  C     0.59097   0.75405   0.11196   0.00000  Uiso   1.00
C1407  C     0.72228   0.93873   0.89425   0.00000  Uiso   1.00
C1408  C     0.75000   0.50000   0.89810   0.00000  Uiso   1.00
C1409  C     0.68740   0.93866   0.87708   0.00000  Uiso   1.00
C1410  C     0.67636   0.90894   0.85463   0.00000  Uiso   1.00
C1411  C     0.69994   0.87914   0.84924   0.00000  Uiso   1.00
C1412  C     0.73473   0.87917   0.86599   0.00000  Uiso   1.00
C1413  C     0.74606   0.90898   0.88818   0.00000  Uiso   1.00
C1414  C     0.78938   0.55505   0.10478   0.00000  Uiso   1.00
C1415  C     0.77260   0.57992   0.13039   0.00000  Uiso   1.00
C1416  C     0.79390   0.60377   0.15234   0.00000  Uiso   1.00
C1417  C     0.83196   0.60286   0.14910   0.00000  Uiso   1.00
C1418  C     0.84886   0.57816   0.12384   0.00000  Uiso   1.00
C1419  C     0.75000   0.50000   0.10204   0.00000  Uiso   1.00
C1420  C     0.82769   0.55427   0.10173   0.00000  Uiso   1.00
C1421  C     0.55509   0.78933   0.89522   0.00000  Uiso   1.00
C1422  C     0.57994   0.77253   0.86960   0.00000  Uiso   1.00
C1423  C     0.60382   0.79380   0.84766   0.00000  Uiso   1.00
C1424  C     0.60296   0.83186   0.85092   0.00000  Uiso   1.00
C1425  C     0.57828   0.84878   0.87619   0.00000  Uiso   1.00
C1426  C     0.55436   0.82763   0.89829   0.00000  Uiso   1.00
C1427  C     0.93878   0.72219   0.10577   0.00000  Uiso   1.00
C1428  C     0.93875   0.68727   0.12283   0.00000  Uiso   1.00
C1429  C     0.90907   0.67617   0.14531   0.00000  Uiso   1.00
C1430  C     0.50000   0.75000   0.89796   0.00000  Uiso   1.00
C1431  C     0.87927   0.69972   0.15083   0.00000  Uiso   1.00
C1432  C     0.87926   0.73455   0.13418   0.00000  Uiso   1.00
C1433  C     0.90904   0.74595   0.11197   0.00000  Uiso   1.00
C1434  C     0.50000   0.75000   0.10190   0.00000  Uiso   1.00
C1435  C     0.96850   0.69079   0.48054   0.00000  Uiso   1.00
C1436  C     0.52612   0.81137   0.52032   0.00000  Uiso   1.00
C1437  C     0.81137   0.52612   0.47968   0.00000  Uiso   1.00
C1438  C     0.69079   0.96850   0.51946   0.00000  Uiso   1.00
C1439  C     0.53150   0.80921   0.48054   0.00000  Uiso   1.00
C1440  C     0.72124   0.98306   0.41786   0.00000  Uiso   1.00
C1441  C     0.97388   0.68863   0.52032   0.00000  Uiso   1.00
C1442  C     0.68863   0.97388   0.47968   0.00000  Uiso   1.00
C1443  C     0.80921   0.53150   0.51946   0.00000  Uiso   1.00
C1444  C     0.71846   0.94082   0.98054   0.00000  Uiso   1.00
C1445  C     0.77617   0.56135   0.02032   0.00000  Uiso   1.00
C1446  C     0.56139   0.77608   0.97968   0.00000  Uiso   1.00
C1447  C     0.94077   0.71854   0.01946   0.00000  Uiso   1.00
C1448  C     0.78154   0.55918   0.98054   0.00000  Uiso   1.00
C1449  C     0.72383   0.93865   0.02032   0.00000  Uiso   1.00
C1450  C     0.93861   0.72392   0.97968   0.00000  Uiso   1.00
C1451  C     0.77956   0.51569   0.58213   0.00000  Uiso   1.00
C1452  C     0.55922   0.78147   0.01946   0.00000  Uiso   1.00
C1453  C     0.75000   0.50000   0.35569   0.00000  Uiso   1.00
C1454  C     0.75000   0.50000   0.64429   0.00000  Uiso   1.00
C1455  C     0.50000   0.75000   0.35571   0.00000  Uiso   1.00
C1456  C     0.50000   0.75000   0.64431   0.00000  Uiso   1.00
C1457  C     0.50000   0.75000   0.85569   0.00000  Uiso   1.00
C1458  C     0.50000   0.75000   0.14429   0.00000  Uiso   1.00
C1459  C     0.75000   0.50000   0.85571   0.00000  Uiso   1.00
C1460  C     0.75000   0.50000   0.14431   0.00000  Uiso   1.00
C1461  C     0.68004   0.56996   0.25000   0.00000  Uiso   1.00
C1462  C     0.98431   0.72044   0.41787   0.00000  Uiso   1.00
C1463  C     0.81997   0.93003   0.75000   0.00000  Uiso   1.00
C1464  C     0.92998   0.67998   0.25000   0.00000  Uiso   1.00
C1465  C     0.57003   0.82002   0.75000   0.00000  Uiso   1.00
C1466  C     0.81996   0.93004   0.25000   0.00000  Uiso   1.00
C1467  C     0.68003   0.56997   0.75000   0.00000  Uiso   1.00
C1468  C     0.57002   0.82002   0.25000   0.00000  Uiso   1.00
C1469  C     0.92998   0.67998   0.75000   0.00000  Uiso   1.00
C1470  C     0.67998   0.92998   0.75000   0.00000  Uiso   1.00
C1471  C     0.82003   0.57002   0.25000   0.00000  Uiso   1.00
C1472  C     0.93004   0.81996   0.75000   0.00000  Uiso   1.00
C1473  C     0.51694   0.77876   0.58214   0.00000  Uiso   1.00
C1474  C     0.56997   0.68003   0.25000   0.00000  Uiso   1.00
C1475  C     0.82002   0.57002   0.75000   0.00000  Uiso   1.00
C1476  C     0.67998   0.92998   0.25000   0.00000  Uiso   1.00
C1477  C     0.56996   0.68004   0.75000   0.00000  Uiso   1.00
C1478  C     0.93003   0.81997   0.25000   0.00000  Uiso   1.00
C1479  C     0.61475   0.91211   0.24742   0.00000  Uiso   1.00
C1480  C     0.88523   0.58788   0.75256   0.00000  Uiso   1.00
C1481  C     0.59071   0.61775   0.26667   0.00000  Uiso   1.00
C1482  C     0.90929   0.88214   0.73317   0.00000  Uiso   1.00
C1483  C     0.88525   0.58789   0.24742   0.00000  Uiso   1.00
C1484  C     0.77876   0.51694   0.41786   0.00000  Uiso   1.00
C1485  C     0.61477   0.91212   0.75256   0.00000  Uiso   1.00
C1486  C     0.90929   0.88225   0.26667   0.00000  Uiso   1.00
C1487  C     0.59071   0.61786   0.73317   0.00000  Uiso   1.00
C1488  C     0.61776   0.59072   0.73332   0.00000  Uiso   1.00
C1489  C     0.88215   0.90929   0.26683   0.00000  Uiso   1.00
C1490  C     0.58789   0.88525   0.75258   0.00000  Uiso   1.00
C1491  C     0.91212   0.61477   0.24743   0.00000  Uiso   1.00
C1492  C     0.88225   0.90929   0.73332   0.00000  Uiso   1.00
C1493  C     0.61785   0.59071   0.26683   0.00000  Uiso   1.00
C1494  C     0.91211   0.61475   0.75258   0.00000  Uiso   1.00
C1495  C     0.72044   0.98431   0.58213   0.00000  Uiso   1.00
C1496  C     0.58788   0.88523   0.24743   0.00000  Uiso   1.00
C1497  C     0.86475   0.66211   0.74743   0.00000  Uiso   1.00
C1498  C     0.63523   0.83788   0.25257   0.00000  Uiso   1.00
C1499  C     0.84071   0.86776   0.76668   0.00000  Uiso   1.00
C1500  C     0.65929   0.63215   0.23318   0.00000  Uiso   1.00
C1501  C     0.63525   0.83789   0.74743   0.00000  Uiso   1.00
C1502  C     0.86477   0.66212   0.25257   0.00000  Uiso   1.00
C1503  C     0.65929   0.63224   0.76668   0.00000  Uiso   1.00
C1504  C     0.84071   0.86785   0.23318   0.00000  Uiso   1.00
C1505  C     0.86775   0.84071   0.23333   0.00000  Uiso   1.00
C1506  C     0.76568   0.52956   0.91787   0.00000  Uiso   1.00
C1507  C     0.63214   0.65929   0.76684   0.00000  Uiso   1.00
C1508  C     0.83789   0.63525   0.25258   0.00000  Uiso   1.00
C1509  C     0.66212   0.86477   0.74744   0.00000  Uiso   1.00
C1510  C     0.63225   0.65929   0.23333   0.00000  Uiso   1.00
C1511  C     0.86786   0.84071   0.76683   0.00000  Uiso   1.00
C1512  C     0.66211   0.86475   0.25258   0.00000  Uiso   1.00
C1513  C     0.83788   0.63523   0.74744   0.00000  Uiso   1.00
C1514  C     0.98364   0.72025   0.45897   0.00000  Uiso   1.00
C1515  C     0.51430   0.78046   0.54127   0.00000  Uiso   1.00
C1516  C     0.78046   0.51430   0.45873   0.00000  Uiso   1.00
Cl1517 Cl    0.93937   0.65670   0.46112   0.00000  Uiso   1.00
Cl1518 Cl    0.77952   0.60560   0.04134   0.00000  Uiso   1.00
Cl1519 Cl    0.60564   0.77934   0.95865   0.00000  Uiso   1.00
Cl1520 Cl    0.90664   0.68944   0.03887   0.00000  Uiso   1.00
Cl1521 Cl    0.81073   0.59323   0.96111   0.00000  Uiso   1.00
Cl1522 Cl    0.72049   0.89440   0.04134   0.00000  Uiso   1.00
Cl1523 Cl    0.89436   0.72067   0.95865   0.00000  Uiso   1.00
Cl1524 Cl    0.59335   0.81057   0.03887   0.00000  Uiso   1.00
Cl1525 Cl    0.60107   0.95866   0.24613   0.00000  Uiso   1.00
Cl1526 Cl    0.89888   0.54131   0.75386   0.00000  Uiso   1.00
Cl1527 Cl    0.54785   0.60911   0.28828   0.00000  Uiso   1.00
Cl1528 Cl    0.52942   0.85562   0.54135   0.00000  Uiso   1.00
Cl1529 Cl    0.95194   0.89052   0.71086   0.00000  Uiso   1.00
Cl1530 Cl    0.89893   0.54134   0.24613   0.00000  Uiso   1.00
Cl1531 Cl    0.60112   0.95869   0.75386   0.00000  Uiso   1.00
Cl1532 Cl    0.95215   0.89089   0.28828   0.00000  Uiso   1.00
Cl1533 Cl    0.54806   0.60948   0.71086   0.00000  Uiso   1.00
Cl1534 Cl    0.60912   0.54786   0.71170   0.00000  Uiso   1.00
Cl1535 Cl    0.89053   0.95195   0.28912   0.00000  Uiso   1.00
Cl1536 Cl    0.54134   0.89893   0.75387   0.00000  Uiso   1.00
Cl1537 Cl    0.95869   0.60112   0.24613   0.00000  Uiso   1.00
Cl1538 Cl    0.89088   0.95215   0.71170   0.00000  Uiso   1.00
Cl1539 Cl    0.85562   0.52942   0.45865   0.00000  Uiso   1.00
Cl1540 Cl    0.60947   0.54805   0.28912   0.00000  Uiso   1.00
Cl1541 Cl    0.95866   0.60107   0.75387   0.00000  Uiso   1.00
Cl1542 Cl    0.54131   0.89888   0.24613   0.00000  Uiso   1.00
Cl1543 Cl    0.85107   0.70866   0.74614   0.00000  Uiso   1.00
Cl1544 Cl    0.64888   0.79131   0.25387   0.00000  Uiso   1.00
Cl1545 Cl    0.79785   0.85912   0.78831   0.00000  Uiso   1.00
Cl1546 Cl    0.70195   0.64053   0.21088   0.00000  Uiso   1.00
Cl1547 Cl    0.64893   0.79134   0.74614   0.00000  Uiso   1.00
Cl1548 Cl    0.85112   0.70869   0.25387   0.00000  Uiso   1.00
Cl1549 Cl    0.70215   0.64088   0.78831   0.00000  Uiso   1.00
Cl1550 Cl    0.65670   0.93936   0.53888   0.00000  Uiso   1.00
Cl1551 Cl    0.79805   0.85947   0.21088   0.00000  Uiso   1.00
Cl1552 Cl    0.85911   0.79785   0.21172   0.00000  Uiso   1.00
Cl1553 Cl    0.64053   0.70194   0.78914   0.00000  Uiso   1.00
Cl1554 Cl    0.79134   0.64893   0.25387   0.00000  Uiso   1.00
Cl1555 Cl    0.70869   0.85112   0.74615   0.00000  Uiso   1.00
Cl1556 Cl    0.64089   0.70215   0.21172   0.00000  Uiso   1.00
Cl1557 Cl    0.85947   0.79806   0.78914   0.00000  Uiso   1.00
Cl1558 Cl    0.70866   0.85107   0.25387   0.00000  Uiso   1.00
Cl1559 Cl    0.79131   0.64888   0.74615   0.00000  Uiso   1.00
Cl1560 Cl    0.56063   0.84331   0.46112   0.00000  Uiso   1.00
Cl1561 Cl    0.97058   0.64438   0.54135   0.00000  Uiso   1.00
Cl1562 Cl    0.64438   0.97058   0.45865   0.00000  Uiso   1.00
Cl1563 Cl    0.84330   0.56064   0.53888   0.00000  Uiso   1.00
Cl1564 Cl    0.68927   0.90677   0.96111   0.00000  Uiso   1.00
H1565  H     0.58123   0.78844   0.38145   0.00000  Uiso   1.00
H1566  H     0.90898   0.71486   0.58237   0.00000  Uiso   1.00
H1567  H     0.66922   0.50692   0.36677   0.00000  Uiso   1.00
H1568  H     0.62708   0.96917   0.32809   0.00000  Uiso   1.00
H1569  H     0.62876   0.90170   0.33371   0.00000  Uiso   1.00
H1570  H     0.67245   0.87167   0.37854   0.00000  Uiso   1.00
H1571  H     0.71486   0.90898   0.41763   0.00000  Uiso   1.00
H1572  H     0.78844   0.58123   0.61855   0.00000  Uiso   1.00
H1573  H     0.84087   0.60064   0.65842   0.00000  Uiso   1.00
H1574  H     0.89390   0.55892   0.66790   0.00000  Uiso   1.00
H1575  H     0.89393   0.99723   0.63829   0.00000  Uiso   1.00
H1576  H     0.60064   0.84087   0.34158   0.00000  Uiso   1.00
H1577  H     0.84120   0.97696   0.59917   0.00000  Uiso   1.00
H1578  H     0.91877   0.71156   0.38145   0.00000  Uiso   1.00
H1579  H     0.89937   0.65913   0.34158   0.00000  Uiso   1.00
H1580  H     0.94109   0.60610   0.33209   0.00000  Uiso   1.00
H1581  H     0.50277   0.60608   0.36170   0.00000  Uiso   1.00
H1582  H     0.52305   0.65880   0.40082   0.00000  Uiso   1.00
H1583  H     0.99308   0.83078   0.63323   0.00000  Uiso   1.00
H1584  H     0.53083   0.87292   0.67191   0.00000  Uiso   1.00
H1585  H     0.59831   0.87123   0.66629   0.00000  Uiso   1.00
H1586  H     0.62833   0.82754   0.62146   0.00000  Uiso   1.00
H1587  H     0.55891   0.89390   0.33209   0.00000  Uiso   1.00
H1588  H     0.59102   0.78514   0.58237   0.00000  Uiso   1.00
H1589  H     0.83078   0.99308   0.36677   0.00000  Uiso   1.00
H1590  H     0.87292   0.53083   0.32809   0.00000  Uiso   1.00
H1591  H     0.87124   0.59830   0.33371   0.00000  Uiso   1.00
H1592  H     0.82755   0.62833   0.37854   0.00000  Uiso   1.00
H1593  H     0.78514   0.59102   0.41763   0.00000  Uiso   1.00
H1594  H     0.71156   0.91877   0.61855   0.00000  Uiso   1.00
H1595  H     0.65913   0.89936   0.65842   0.00000  Uiso   1.00
H1596  H     0.60610   0.94108   0.66790   0.00000  Uiso   1.00
H1597  H     0.60607   0.50277   0.63829   0.00000  Uiso   1.00
H1598  H     0.99723   0.89392   0.36170   0.00000  Uiso   1.00
H1599  H     0.65880   0.52304   0.59917   0.00000  Uiso   1.00
H1600  H     0.83117   0.53850   0.88133   0.00000  Uiso   1.00
H1601  H     0.85049   0.59097   0.84149   0.00000  Uiso   1.00
H1602  H     0.80875   0.64401   0.83215   0.00000  Uiso   1.00
H1603  H     0.74711   0.64398   0.86187   0.00000  Uiso   1.00
H1604  H     0.72691   0.59121   0.90097   0.00000  Uiso   1.00
H1605  H     0.75689   0.91920   0.13321   0.00000  Uiso   1.00
H1606  H     0.71912   0.87709   0.17190   0.00000  Uiso   1.00
H1607  H     0.65165   0.87882   0.16631   0.00000  Uiso   1.00
H1608  H     0.62164   0.92253   0.12149   0.00000  Uiso   1.00
H1609  H     0.97695   0.84120   0.40082   0.00000  Uiso   1.00
H1610  H     0.65896   0.96492   0.08240   0.00000  Uiso   1.00
H1611  H     0.91923   0.75696   0.86676   0.00000  Uiso   1.00
H1612  H     0.87706   0.71924   0.82808   0.00000  Uiso   1.00
H1613  H     0.87869   0.65177   0.83372   0.00000  Uiso   1.00
H1614  H     0.92236   0.62172   0.87856   0.00000  Uiso   1.00
H1615  H     0.96480   0.65900   0.91764   0.00000  Uiso   1.00
H1616  H     0.53841   0.83127   0.11849   0.00000  Uiso   1.00
H1617  H     0.59081   0.85072   0.15837   0.00000  Uiso   1.00
H1618  H     0.64384   0.80901   0.16793   0.00000  Uiso   1.00
H1619  H     0.64389   0.74730   0.13839   0.00000  Uiso   1.00
H1620  H     0.50692   0.66922   0.63323   0.00000  Uiso   1.00
H1621  H     0.59119   0.72698   0.09926   0.00000  Uiso   1.00
H1622  H     0.66883   0.96150   0.88134   0.00000  Uiso   1.00
H1623  H     0.64951   0.90903   0.84149   0.00000  Uiso   1.00
H1624  H     0.69125   0.85600   0.83215   0.00000  Uiso   1.00
H1625  H     0.75289   0.85602   0.86187   0.00000  Uiso   1.00
H1626  H     0.77309   0.90879   0.90096   0.00000  Uiso   1.00
H1627  H     0.74312   0.58080   0.13321   0.00000  Uiso   1.00
H1628  H     0.78088   0.62291   0.17190   0.00000  Uiso   1.00
H1629  H     0.84835   0.62118   0.16631   0.00000  Uiso   1.00
H1630  H     0.87836   0.57747   0.12149   0.00000  Uiso   1.00
H1631  H     0.96917   0.62708   0.67191   0.00000  Uiso   1.00
H1632  H     0.84104   0.53508   0.08240   0.00000  Uiso   1.00
H1633  H     0.58077   0.74304   0.86676   0.00000  Uiso   1.00
H1634  H     0.62294   0.78077   0.82809   0.00000  Uiso   1.00
H1635  H     0.62131   0.84824   0.83372   0.00000  Uiso   1.00
H1636  H     0.57764   0.87828   0.87856   0.00000  Uiso   1.00
H1637  H     0.53520   0.84100   0.91764   0.00000  Uiso   1.00
H1638  H     0.96159   0.66873   0.11848   0.00000  Uiso   1.00
H1639  H     0.90919   0.64928   0.15837   0.00000  Uiso   1.00
H1640  H     0.85616   0.69098   0.16794   0.00000  Uiso   1.00
H1641  H     0.85611   0.75270   0.13840   0.00000  Uiso   1.00
H1642  H     0.90169   0.62877   0.66629   0.00000  Uiso   1.00
H1643  H     0.90881   0.77302   0.09927   0.00000  Uiso   1.00
H1644  H     0.87167   0.67246   0.62146   0.00000  Uiso   1.00
O1645  O     0.75000   0.50000   0.25000   0.00000  Uiso   1.00
O1646  O     0.75000   0.96964   0.66245   0.00000  Uiso   1.00
O1647  O     0.96964   0.75000   0.33755   0.00000  Uiso   1.00
O1648  O     0.53037   0.75000   0.66245   0.00000  Uiso   1.00
O1649  O     0.50000   0.71964   0.83755   0.00000  Uiso   1.00
O1650  O     0.50000   0.78037   0.16245   0.00000  Uiso   1.00
O1651  O     0.78037   0.50000   0.83755   0.00000  Uiso   1.00
O1652  O     0.71964   0.50000   0.16245   0.00000  Uiso   1.00
O1653  O     0.50000   0.78037   0.83755   0.00000  Uiso   1.00
O1654  O     0.50000   0.71964   0.16245   0.00000  Uiso   1.00
O1655  O     0.71964   0.50000   0.83755   0.00000  Uiso   1.00
O1656  O     0.75000   0.50000   0.75000   0.00000  Uiso   1.00
O1657  O     0.78037   0.50000   0.16245   0.00000  Uiso   1.00
O1658  O     0.70725   0.57308   0.27302   0.00000  Uiso   1.00
O1659  O     0.79276   0.92693   0.72698   0.00000  Uiso   1.00
O1660  O     0.92693   0.70725   0.27302   0.00000  Uiso   1.00
O1661  O     0.57308   0.79276   0.72698   0.00000  Uiso   1.00
O1662  O     0.79276   0.92693   0.27302   0.00000  Uiso   1.00
O1663  O     0.70725   0.57308   0.72698   0.00000  Uiso   1.00
O1664  O     0.57308   0.79276   0.27302   0.00000  Uiso   1.00
O1665  O     0.92693   0.70725   0.72698   0.00000  Uiso   1.00
O1666  O     0.70725   0.92693   0.72698   0.00000  Uiso   1.00
O1667  O     0.50000   0.75000   0.25000   0.00000  Uiso   1.00
O1668  O     0.79276   0.57308   0.27302   0.00000  Uiso   1.00
O1669  O     0.92693   0.79276   0.72698   0.00000  Uiso   1.00
O1670  O     0.57308   0.70725   0.27302   0.00000  Uiso   1.00
O1671  O     0.79276   0.57308   0.72698   0.00000  Uiso   1.00
O1672  O     0.70725   0.92693   0.27302   0.00000  Uiso   1.00
O1673  O     0.57308   0.70725   0.72698   0.00000  Uiso   1.00
O1674  O     0.92693   0.79276   0.27302   0.00000  Uiso   1.00
O1675  O     0.95725   0.82308   0.77302   0.00000  Uiso   1.00
O1676  O     0.54276   0.67693   0.22698   0.00000  Uiso   1.00
O1677  O     0.67693   0.95725   0.77302   0.00000  Uiso   1.00
O1678  O     0.50000   0.75000   0.75000   0.00000  Uiso   1.00
O1679  O     0.82308   0.54276   0.22698   0.00000  Uiso   1.00
O1680  O     0.54276   0.67693   0.77302   0.00000  Uiso   1.00
O1681  O     0.95725   0.82308   0.22698   0.00000  Uiso   1.00
O1682  O     0.82308   0.54276   0.77302   0.00000  Uiso   1.00
O1683  O     0.67693   0.95725   0.22698   0.00000  Uiso   1.00
O1684  O     0.95725   0.67693   0.22698   0.00000  Uiso   1.00
O1685  O     0.54276   0.82308   0.77302   0.00000  Uiso   1.00
O1686  O     0.67693   0.54276   0.22698   0.00000  Uiso   1.00
O1687  O     0.82308   0.95725   0.77302   0.00000  Uiso   1.00
O1688  O     0.54276   0.82308   0.22698   0.00000  Uiso   1.00
O1689  O     0.75000   0.96964   0.33755   0.00000  Uiso   1.00
O1690  O     0.95725   0.67693   0.77302   0.00000  Uiso   1.00
O1691  O     0.82308   0.95725   0.22698   0.00000  Uiso   1.00
O1692  O     0.67693   0.54276   0.77302   0.00000  Uiso   1.00
O1693  O     0.75000   0.53037   0.66245   0.00000  Uiso   1.00
O1694  O     0.53037   0.75000   0.33755   0.00000  Uiso   1.00
O1695  O     0.96964   0.75000   0.66245   0.00000  Uiso   1.00
O1696  O     0.75000   0.53037   0.33755   0.00000  Uiso   1.00
Zn1697 Zn    0.70660   0.50000   0.21735   0.00000  Uiso   1.00
Zn1698 Zn    0.54341   0.75000   0.28265   0.00000  Uiso   1.00
Zn1699 Zn    0.75000   0.95660   0.71735   0.00000  Uiso   1.00
Zn1700 Zn    0.75000   0.54341   0.28265   0.00000  Uiso   1.00
Zn1701 Zn    0.54341   0.75000   0.71735   0.00000  Uiso   1.00
Zn1702 Zn    0.95660   0.75000   0.28265   0.00000  Uiso   1.00
Zn1703 Zn    0.75000   0.54341   0.71735   0.00000  Uiso   1.00
Zn1704 Zn    0.75000   0.95660   0.28265   0.00000  Uiso   1.00
Zn1705 Zn    0.79341   0.50000   0.78265   0.00000  Uiso   1.00
Zn1706 Zn    0.50000   0.70660   0.21735   0.00000  Uiso   1.00
Zn1707 Zn    0.50000   0.79341   0.78265   0.00000  Uiso   1.00
Zn1708 Zn    0.79341   0.50000   0.21735   0.00000  Uiso   1.00
Zn1709 Zn    0.70660   0.50000   0.78265   0.00000  Uiso   1.00
Zn1710 Zn    0.50000   0.79341   0.21735   0.00000  Uiso   1.00
Zn1711 Zn    0.50000   0.70660   0.78265   0.00000  Uiso   1.00
Zn1712 Zn    0.95660   0.75000   0.71735   0.00000  Uiso   1.00
loop_
_geom_bond_atom_site_label_1
_geom_bond_atom_site_label_2
_geom_bond_distance
_geom_bond_site_symmetry_2
_ccdc_geom_bond_type
C1     C43     1.487   .     S
C1     C4      1.421   .     A
C1     C79     1.405   .     S
C2     C14     1.418   .     A
C2     C991    1.404   .     A
C2     C103    1.491   .     S
C3     C211    1.421   .     A
C3     C154    1.425   .     A
C3     C894    1.432   .     S
C4     C155    1.425   .     A
C4     C34     1.432   .     S
C5     C464    1.425   .     A
C5     C112    1.418   .     A
C5     C157    1.413   .     A
C6     C158    1.413   .     A
C6     C156    1.418   .     A
C6     C893    1.425   .     S
C7     C159    1.425   .     A
C7     C167    1.421   .     A
C7     C38     1.432   .     A
C8     C35     1.421   .     A
C8     C160    1.425   .     A
C8     C895    1.432   .     A
C9     C46     1.418   .     A
C9     C161    1.413   .     A
C9     C40     1.425   .     S
C10    C162    1.413   .     A
C10    C57     1.418   .     A
C10    C41     1.425   .     S
C11    C163    1.425   .     A
C11    C68     1.421   .     A
C11    C470    1.432   .     A
C12    C222    1.421   .     A
C12    C164    1.425   .     A
C12    C39     1.432   .     S
C13    C109    1.491   .     S
C13    C574    1.404   .     A
C13    C15     1.418   .     A
C14    C896    1.425   .     A
C14    C165    1.413   .     A
C15    C166    1.413   .     A
C15    C469    1.425   .     A
C16    C24     1.421   .     A
C16    C168    1.425   .     A
C16    C42     1.432   .     S
C17    C184    1.457   .     S
C17    C212    1.409   .     A
C17    C214    1.409   .     A
C18    C210    1.409   .     A
C18    C185    1.457   .     S
C18    C213    1.409   .     A
C19    C209    1.404   .     A
C19    C177    1.447   .     S
C19    C216    1.404   .     A
C20    C215    1.404   .     A
C20    C179    1.448   .     S
C20    C208    1.404   .     A
C21    C180    1.457   .     S
C21    C218    1.409   .     A
C21    C207    1.409   .     A
C22    C181    1.457   .     S
C22    C206    1.409   .     A
C22    C217    1.409   .     A
C23    C182    1.447   .     S
C23    C205    1.404   .     A
C23    C220    1.404   .     A
C24    C117    1.487   .     S
C24    C150    1.405   .     S
C25    C204    1.404   .     A
C25    C219    1.404   .     A
C25    C183    1.448   .     S
C26    C203    1.404   .     A
C26    C223    1.404   .     A
C26    C193    1.447   .     S
C27    C202    1.404   .     A
C27    C221    1.404   .     A
C27    C194    1.448   .     S
C28    C201    1.409   .     A
C28    C186    1.457   .     S
C28    C225    1.409   .     A
C29    C199    1.409   .     A
C29    C224    1.409   .     A
C29    C187    1.457   .     S
C30    C198    1.404   .     A
C30    C188    1.447   .     S
C30    C227    1.404   .     A
C31    C190    1.448   .     S
C31    C226    1.404   .     A
C31    C197    1.404   .     A
C32    C196    1.409   .     A
C32    C229    1.409   .     A
C32    C191    1.457   .     S
C33    C195    1.409   .     A
C33    C228    1.409   .     A
C33    C192    1.457   .     S
C34    C36     1.425   .     A
C34    C658    1.432   1_455 A
C35    C123    1.487   .     S
C35    C980    1.405   .     S
C36    C433    1.425   1_455 A
C36    C231    1.425   .     S
C37    C232    1.425   .     A
C37    C38     1.425   .     A
C37    C862    1.425   1_545 S
C38    C859    1.432   1_545 S
C39    C864    1.432   1_545 A
C39    C40     1.425   1_556 S
C40    C870    1.425   1_545 A
C40    C39     1.425   1_554 S
C41    C443    1.425   1_455 A
C41    C42     1.425   1_556 S
C42    C439    1.432   1_455 A
C42    C41     1.425   1_554 S
C43    C44     1.407   .     A
C43    C49     1.404   .     A
C44    C45     1.397   .     A
C44    H281    1.083   .     S
C45    C47     1.398   .     A
C45    H292    1.082   .     S
C46    C130    1.491   .     S
C46    C135    1.404   .     S
C47    C48     1.398   .     A
C47    H303    1.082   .     S
C48    C49     1.398   .     A
C48    H742    1.082   1_455 S
C49    H753    1.083   1_455 S
C50    C112    1.491   .     S
C50    C51     1.407   .     A
C50    C55     1.405   .     A
C51    C52     1.397   .     A
C51    H764    1.083   .     S
C52    C53     1.397   .     A
C52    H347    1.081   .     S
C53    H358    1.081   .     S
C53    C54     1.397   .     A
C54    H360    1.082   .     S
C54    C55     1.399   .     A
C55    H282    1.083   .     S
C56    C62     1.405   .     A
C56    C156    1.491   .     S
C56    C58     1.407   .     A
C57    C137    1.491   .     S
C57    C146    1.404   .     S
C58    C59     1.397   .     A
C58    H1139   1.083   .     S
C59    H284    1.081   .     S
C59    C60     1.397   .     A
C60    H285    1.081   .     S
C60    C61     1.397   .     A
C61    H286    1.082   .     S
C61    C62     1.399   .     A
C62    H287    1.083   .     S
C63    C64     1.407   .     A
C63    C69     1.404   .     A
C63    C167    1.487   .     S
C64    H288    1.083   .     S
C64    C65     1.397   .     A
C65    H289    1.082   .     S
C65    C66     1.398   .     A
C66    C67     1.398   .     A
C66    H290    1.082   .     S
C67    C69     1.398   .     A
C67    H1147   1.082   1_545 S
C68    C143    1.487   .     S
C68    C578    1.405   .     A
C69    H1149   1.083   1_545 S
C70    C71     1.407   .     A
C70    C178    1.487   .     S
C70    C75     1.404   .     A
C71    C72     1.397   .     A
C71    H294    1.083   .     S
C72    C73     1.398   .     A
C72    H295    1.082   .     S
C73    C74     1.398   .     A
C73    H296    1.082   .     S
C74    C75     1.398   .     A
C74    H725    1.082   .     S
C75    H726    1.083   .     S
C76    C82     1.405   .     A
C76    C189    1.491   .     S
C76    C77     1.407   .     A
C77    C78     1.397   .     A
C77    H727    1.083   1_455 S
C78    C80     1.397   .     A
C78    H300    1.081   .     S
C79    C171    1.465   .     S
C79    C606    1.405   1_455 A
C80    H301    1.081   .     S
C80    C81     1.397   .     A
C81    H302    1.082   .     S
C81    C82     1.399   .     A
C82    H304    1.083   .     S
C83    C88     1.405   .     A
C83    C84     1.407   .     A
C83    C200    1.491   .     S
C84    C85     1.397   .     A
C84    H1161   1.083   1_545 S
C85    C86     1.397   .     A
C85    H306    1.081   .     S
C86    C87     1.397   .     A
C86    H307    1.081   .     S
C87    H308    1.082   .     S
C87    C88     1.399   .     A
C88    H309    1.083   .     S
C89    C91     1.407   .     A
C89    C211    1.487   .     S
C89    C95     1.404   .     A
C90    C540    1.404   1_455 A
C90    C172    1.462   .     S
C90    C189    1.404   .     S
C91    C92     1.397   .     A
C91    H310    1.083   .     S
C92    H311    1.082   .     S
C92    C93     1.398   .     A
C93    H312    1.082   .     S
C93    C94     1.398   .     A
C94    C95     1.398   .     A
C94    H1169   1.082   .     S
C95    H1171   1.083   .     S
C96    C102    1.404   .     A
C96    C97     1.407   .     A
C96    C222    1.487   .     S
C97    C98     1.397   .     A
C97    H316    1.083   .     S
C98    H317    1.082   .     S
C98    C99     1.398   .     A
C99    C100    1.398   .     A
C99    H318    1.082   .     S
C100   C102    1.398   .     A
C100   H319    1.082   .     S
C101   C200    1.404   .     A
C101   C169    1.462   .     S
C101   C1012   1.404   1_545 S
C102   H320    1.083   .     S
C103   C104    1.407   .     A
C103   C108    1.405   .     A
C104   C105    1.397   .     A
C104   H321    1.083   .     S
C105   H322    1.081   .     S
C105   C106    1.397   .     A
C106   C107    1.397   .     A
C106   H323    1.081   .     S
C107   C108    1.399   .     A
C107   H324    1.082   .     S
C108   H326    1.083   .     S
C109   C116    1.405   .     A
C109   C110    1.407   .     A
C110   C111    1.397   .     A
C110   H327    1.083   .     S
C111   H328    1.081   .     S
C111   C114    1.397   .     A
C112   C518    1.404   .     A
C113   C167    1.405   .     A
C113   C170    1.465   .     S
C113   C1067   1.405   1_545 S
C114   C115    1.397   .     A
C114   H329    1.081   .     S
C115   H330    1.082   .     S
C115   C116    1.399   .     A
C116   H331    1.083   .     S
C117   C122    1.404   .     A
C117   C118    1.407   .     A
C118   H332    1.083   .     S
C118   C119    1.397   .     A
C119   H333    1.082   .     S
C119   C120    1.398   .     A
C120   H334    1.082   .     S
C120   C121    1.398   .     A
C121   H335    1.082   .     S
C121   C122    1.398   .     A
C122   H337    1.083   .     S
C123   C125    1.407   .     A
C123   C129    1.404   .     A
C124   C175    1.465   .     S
C124   C222    1.405   .     A
C124   C891    1.405   1_545 S
C125   H338    1.083   .     S
C125   C126    1.397   .     A
C126   C127    1.398   .     A
C126   H339    1.082   .     S
C127   H340    1.082   .     S
C127   C128    1.398   .     A
C128   H341    1.082   .     S
C128   C129    1.398   .     A
C129   H342    1.083   .     S
C130   C131    1.407   .     A
C130   C136    1.405   .     A
C131   H343    1.083   .     S
C131   C132    1.397   .     A
C132   C133    1.397   .     A
C132   H344    1.081   .     S
C133   H345    1.081   .     S
C133   C134    1.397   .     A
C134   H346    1.082   .     S
C134   C136    1.399   .     A
C135   C858    1.404   1_545 A
C135   C176    1.462   .     S
C136   H348    1.083   .     S
C137   C142    1.405   .     A
C137   C138    1.407   .     A
C138   H349    1.083   .     S
C138   C139    1.397   .     A
C139   C140    1.397   .     A
C139   H350    1.081   .     S
C140   C141    1.397   .     A
C140   H351    1.081   .     S
C141   H352    1.082   .     S
C141   C142    1.399   .     A
C142   H353    1.083   .     S
C143   C149    1.404   .     A
C143   C144    1.407   .     A
C144   C145    1.397   .     A
C144   H354    1.083   .     S
C145   C147    1.398   .     A
C145   H355    1.082   .     S
C146   C441    1.404   1_455 A
C146   C173    1.462   .     S
C147   C148    1.398   .     A
C147   H356    1.082   .     S
C148   C149    1.398   .     A
C148   H357    1.082   .     S
C149   H359    1.083   .     S
C150   C496    1.405   1_455 A
C150   C174    1.466   .     S
C151   C230    1.425   .     A
C151   C157    1.391   .     A
C151   Cl233   1.777   .     S
C152   Cl244   1.779   .     S
C152   C231    1.413   .     A
C152   C155    1.391   .     A
C153   Cl255   1.779   .     S
C153   C232    1.413   .     A
C153   C159    1.391   .     A
C154   C158    1.391   .     A
C154   Cl266   1.777   .     S
C155   Cl276   1.777   .     S
C156   C957    1.404   .     S
C157   Cl277   1.779   .     S
C158   Cl278   1.779   .     S
C159   Cl279   1.777   .     S
C160   Cl280   1.777   .     S
C160   C165    1.391   1_556 S
C161   Cl234   1.779   .     S
C161   C164    1.391   1_554 S
C162   Cl235   1.779   .     S
C162   C168    1.392   1_556 S
C163   Cl236   1.777   .     S
C163   C166    1.392   1_554 S
C164   Cl237   1.777   .     S
C164   C161    1.391   1_556 S
C165   Cl238   1.779   .     S
C165   C160    1.391   1_554 S
C166   Cl239   1.779   .     S
C166   C163    1.392   1_556 S
C168   Cl240   1.777   .     S
C168   C162    1.392   1_554 S
C169   O412    1.275   .     A
C169   O1261   1.275   1_545 S
C170   O1218   1.276   1_545 A
C170   O409    1.276   .     S
C171   O791    1.276   1_455 A
C171   O410    1.276   .     S
C172   O364    1.275   .     A
C172   O839    1.275   1_455 S
C173   O365    1.275   .     A
C173   O369    1.275   .     S
C174   O366    1.276   .     S
C174   O370    1.276   .     S
C175   O367    1.276   .     A
C175   O371    1.276   .     A
C176   O368    1.275   .     S
C176   O373    1.275   .     S
C177   O374    1.280   .     A
C177   O402    1.280   .     A
C178   C230    1.421   .     A
C178   C507    1.405   .     A
C179   O403    1.280   .     A
C179   O375    1.280   .     A
C180   O400    1.280   .     A
C180   O376    1.280   .     A
C181   O401    1.280   .     A
C181   O377    1.280   .     A
C182   O378    1.280   .     A
C182   O407    1.280   .     A
C183   O379    1.280   .     A
C183   O408    1.280   .     A
C184   O404    1.280   .     A
C184   O380    1.280   .     A
C185   O381    1.280   .     A
C185   O406    1.280   .     A
C186   O393    1.280   .     A
C186   O382    1.280   .     A
C187   O395    1.280   .     A
C187   O384    1.280   .     A
C188   O391    1.280   .     A
C188   O385    1.280   .     A
C189   C231    1.418   .     A
C190   O386    1.280   .     A
C190   O392    1.280   .     A
C191   O398    1.280   .     A
C191   O387    1.280   .     A
C192   O399    1.280   .     A
C192   O388    1.280   .     A
C193   O389    1.280   .     A
C193   O396    1.280   .     A
C194   O397    1.280   .     A
C194   O390    1.280   .     A
C195   Cl241   1.772   .     S
C195   C212    1.395   .     A
C196   C210    1.395   .     A
C196   Cl242   1.772   .     S
C197   Cl243   1.767   .     S
C197   C209    1.397   .     A
C198   Cl245   1.769   .     S
C198   C208    1.397   .     A
C199   Cl246   1.772   .     S
C199   C207    1.395   .     A
C200   C232    1.418   .     A
C201   C206    1.395   .     A
C201   Cl247   1.772   .     S
C202   Cl248   1.767   .     S
C202   C205    1.397   .     A
C203   Cl249   1.769   .     S
C203   C204    1.397   .     A
C204   Cl250   1.767   .     S
C205   Cl251   1.769   .     S
C206   Cl252   1.772   .     S
C207   Cl253   1.772   .     S
C208   Cl254   1.767   .     S
C209   Cl256   1.769   .     S
C210   Cl257   1.772   .     S
C211   C969    1.405   .     S
C212   Cl258   1.772   .     S
C213   C229    1.395   .     A
C213   Cl259   1.772   .     S
C214   C228    1.395   .     A
C214   Cl260   1.772   .     S
C215   Cl261   1.767   .     S
C215   C227    1.397   .     A
C216   C226    1.397   .     A
C216   Cl262   1.769   .     S
C217   C225    1.395   .     A
C217   Cl263   1.772   .     S
C218   C224    1.395   .     A
C218   Cl264   1.772   .     S
C219   Cl265   1.767   .     S
C219   C223    1.397   .     A
C220   C221    1.397   .     A
C220   Cl267   1.769   .     S
C221   Cl268   1.767   .     S
C223   Cl269   1.769   .     S
C224   Cl270   1.772   .     S
C225   Cl271   1.772   .     S
C226   Cl272   1.767   .     S
C227   Cl273   1.769   .     S
C228   Cl274   1.772   .     S
C229   Cl275   1.772   .     S
C230   C462    1.432   .     A
H283   C914    1.083   1_545 S
H291   C923    1.082   .     S
H293   C925    1.083   .     S
H297   C502    1.082   1_455 S
H298   C503    1.083   1_455 S
H299   C505    1.083   .     S
H305   C940    1.083   .     S
H313   C950    1.082   1_545 S
H314   C476    1.082   .     S
H315   C951    1.083   1_545 S
H325   C477    1.083   .     S
H336   C479    1.083   1_455 S
O361   Zn416   1.948   .     S
O361   Zn424   1.948   .     S
O361   Zn413   1.948   .     S
O361   Zn1276  1.948   1_545 S
O362   C1026   1.276   .     A
O362   Zn415   1.957   .     S
O363   Zn418   1.957   .     S
O363   C599    1.276   .     A
O364   Zn417   1.957   .     S
O365   Zn427   1.957   .     S
O366   Zn426   1.957   .     S
O367   Zn421   1.957   .     S
O368   Zn413   1.957   .     S
O369   Zn423   1.957   .     S
O370   Zn422   1.957   .     S
O371   Zn425   1.957   .     S
O372   Zn425   1.948   .     S
O372   Zn1271  1.948   1_545 S
O372   Zn421   1.948   .     S
O372   Zn419   1.948   .     S
O373   Zn424   1.957   .     S
O374   Zn416   1.926   .     S
O375   Zn415   1.926   .     S
O376   Zn418   1.938   .     S
O377   Zn417   1.938   .     S
O378   Zn420   1.926   .     S
O379   Zn419   1.926   .     S
O380   Zn414   1.938   .     S
O381   Zn428   1.938   .     S
O382   Zn415   1.938   .     S
O383   Zn414   1.948   .     S
O383   Zn846   1.948   1_455 S
O383   Zn422   1.948   .     S
O383   Zn426   1.948   .     S
O384   Zn416   1.938   .     S
O385   Zn428   1.926   .     S
O386   Zn414   1.926   .     S
O387   Zn419   1.938   .     S
O388   Zn420   1.938   .     S
O389   Zn417   1.926   .     S
O390   Zn418   1.926   .     S
O391   Zn851   1.926   .     S
O392   Zn422   1.926   .     S
O393   Zn1281  1.938   .     S
O394   Zn417   1.948   .     S
O394   Zn423   1.948   .     S
O394   Zn427   1.948   .     S
O394   Zn856   1.948   1_455 S
O395   Zn424   1.938   .     S
O396   Zn427   1.926   .     S
O397   Zn854   1.926   .     S
O398   Zn421   1.938   .     S
O399   Zn1269  1.938   .     S
O400   Zn850   1.938   .     S
O401   Zn423   1.938   .     S
O402   Zn413   1.926   .     S
O403   Zn1277  1.926   .     S
O404   Zn426   1.938   .     S
O405   Zn420   1.957   .     S
O405   C1025   1.275   .     S
O406   Zn855   1.938   .     S
O407   Zn1280  1.926   .     S
O408   Zn425   1.926   .     S
O409   Zn419   1.957   .     S
O410   Zn414   1.957   .     S
O411   Zn428   1.957   .     S
O411   C600    1.275   .     S
O412   Zn416   1.957   .     S
Zn413  O1255   1.938   1_545 S
Zn415  O1228   1.948   .     S
Zn418  O811    1.948   .     S
Zn420  O1217   1.948   .     S
Zn421  O1259   1.926   1_545 S
Zn422  O828    1.938   1_455 S
Zn423  O819    1.926   1_455 S
Zn424  O1263   1.926   1_545 S
Zn425  O1249   1.938   1_545 S
Zn426  O825    1.926   1_455 S
Zn427  O834    1.938   1_455 S
Zn428  O822    1.948   .     S
C429   C471    1.487   .     S
C429   C432    1.421   .     A
C429   C507    1.405   .     S
C430   C442    1.418   .     A
C430   C1419   1.404   .     A
C430   C531    1.491   .     S
C431   C639    1.421   .     A
C431   C582    1.425   .     A
C431   C1322   1.432   .     S
C432   C583    1.425   .     A
C432   C462    1.432   .     S
C433   C36     1.425   1_655 A
C433   C540    1.418   .     A
C433   C585    1.413   .     A
C434   C586    1.413   .     A
C434   C584    1.418   .     A
C434   C1321   1.425   .     S
C435   C587    1.425   .     A
C435   C595    1.421   .     A
C435   C466    1.432   .     A
C436   C463    1.421   .     A
C436   C588    1.425   .     A
C436   C1323   1.432   .     A
C437   C474    1.418   .     A
C437   C589    1.413   .     A
C437   C468    1.425   .     S
C438   C590    1.413   .     A
C438   C485    1.418   .     A
C438   C469    1.425   .     S
C439   C591    1.425   .     A
C439   C496    1.421   .     A
C439   C42     1.432   1_655 A
C440   C650    1.421   .     A
C440   C592    1.425   .     A
C440   C467    1.432   .     S
C441   C537    1.491   .     S
C441   C146    1.404   1_655 A
C441   C443    1.418   .     A
C442   C1324   1.425   .     A
C442   C593    1.413   .     A
C443   C594    1.413   .     A
C443   C41     1.425   1_655 A
C444   C452    1.421   .     A
C444   C596    1.425   .     A
C444   C470    1.432   .     S
C445   C612    1.457   .     S
C445   C640    1.409   .     A
C445   C642    1.409   .     A
C446   C638    1.409   .     A
C446   C613    1.457   .     S
C446   C641    1.409   .     A
C447   C637    1.404   .     A
C447   C605    1.447   .     S
C447   C644    1.404   .     A
C448   C643    1.404   .     A
C448   C607    1.448   .     S
C448   C636    1.404   .     A
C449   C608    1.457   .     S
C449   C646    1.409   .     A
C449   C635    1.409   .     A
C450   C609    1.457   .     S
C450   C634    1.409   .     A
C450   C645    1.409   .     A
C451   C610    1.447   .     S
C451   C633    1.404   .     A
C451   C648    1.404   .     A
C452   C545    1.487   .     S
C452   C578    1.405   .     S
C453   C632    1.404   .     A
C453   C647    1.404   .     A
C453   C611    1.448   .     S
C454   C631    1.404   .     A
C454   C651    1.404   .     A
C454   C621    1.447   .     S
C455   C630    1.404   .     A
C455   C649    1.404   .     A
C455   C622    1.448   .     S
C456   C629    1.409   .     A
C456   C614    1.457   .     S
C456   C653    1.409   .     A
C457   C627    1.409   .     A
C457   C652    1.409   .     A
C457   C615    1.457   .     S
C458   C626    1.404   .     A
C458   C616    1.447   .     S
C458   C655    1.404   .     A
C459   C618    1.448   .     S
C459   C654    1.404   .     A
C459   C625    1.404   .     A
C460   C624    1.409   .     A
C460   C657    1.409   .     A
C460   C619    1.457   .     S
C461   C623    1.409   .     A
C461   C656    1.409   .     A
C461   C620    1.457   .     S
C462   C464    1.425   .     A
C463   C551    1.487   .     S
C463   C1408   1.405   .     S
C464   C659    1.425   .     S
C465   C660    1.425   .     A
C465   C466    1.425   .     A
C465   C1290   1.425   1_545 S
C466   C1287   1.432   1_545 S
C467   C1292   1.432   1_545 A
C467   C468    1.425   1_556 S
C468   C1298   1.425   1_545 A
C468   C467    1.425   1_554 S
C469   C470    1.425   1_556 S
C470   C469    1.425   1_554 S
C471   C472    1.407   .     A
C471   C477    1.404   .     A
C472   C473    1.397   .     A
C472   H709    1.083   .     S
C473   C475    1.398   .     A
C473   H720    1.082   .     S
C474   C558    1.491   .     S
C474   C563    1.404   .     S
C475   C476    1.398   .     A
C475   H731    1.082   .     S
C476   C477    1.398   .     A
C478   C540    1.491   .     S
C478   C479    1.407   .     A
C478   C483    1.405   .     A
C479   C480    1.397   .     A
C479   H336    1.083   1_655 S
C480   C481    1.397   .     A
C480   H775    1.081   .     S
C481   H786    1.081   .     S
C481   C482    1.397   .     A
C482   H788    1.082   .     S
C482   C483    1.399   .     A
C483   H710    1.083   .     S
C484   C490    1.405   .     A
C484   C584    1.491   .     S
C484   C486    1.407   .     A
C485   C565    1.491   .     S
C485   C574    1.404   .     S
C486   C487    1.397   .     A
C486   H1567   1.083   .     S
C487   H712    1.081   .     S
C487   C488    1.397   .     A
C488   H713    1.081   .     S
C488   C489    1.397   .     A
C489   H714    1.082   .     S
C489   C490    1.399   .     A
C490   H715    1.083   .     S
C491   C492    1.407   .     A
C491   C497    1.404   .     A
C491   C595    1.487   .     S
C492   H716    1.083   .     S
C492   C493    1.397   .     A
C493   H717    1.082   .     S
C493   C494    1.398   .     A
C494   C495    1.398   .     A
C494   H718    1.082   .     S
C495   C497    1.398   .     A
C495   H1575   1.082   1_545 S
C496   C571    1.487   .     S
C496   C150    1.405   1_655 A
C497   H1577   1.083   1_545 S
C498   C499    1.407   .     A
C498   C606    1.487   .     S
C498   C503    1.404   .     A
C499   C500    1.397   .     A
C499   H722    1.083   .     S
C500   C501    1.398   .     A
C500   H723    1.082   .     S
C501   C502    1.398   .     A
C501   H724    1.082   .     S
C502   C503    1.398   .     A
C502   H297    1.082   1_655 S
C503   H298    1.083   1_655 S
C504   C510    1.405   .     A
C504   C617    1.491   .     S
C504   C505    1.407   .     A
C505   C506    1.397   .     A
C506   C508    1.397   .     A
C506   H728    1.081   .     S
C507   C599    1.465   .     S
C508   H729    1.081   .     S
C508   C509    1.397   .     A
C509   H730    1.082   .     S
C509   C510    1.399   .     A
C510   H732    1.083   .     S
C511   C516    1.405   .     A
C511   C512    1.407   .     A
C511   C628    1.491   .     S
C512   C513    1.397   .     A
C512   H1589   1.083   1_545 S
C513   C514    1.397   .     A
C513   H734    1.081   .     S
C514   C515    1.397   .     A
C514   H735    1.081   .     S
C515   H736    1.082   .     S
C515   C516    1.399   .     A
C516   H737    1.083   .     S
C517   C519    1.407   .     A
C517   C639    1.487   .     S
C517   C523    1.404   .     A
C518   C600    1.462   .     S
C518   C617    1.404   .     S
C519   C520    1.397   .     A
C519   H738    1.083   .     S
C520   H739    1.082   .     S
C520   C521    1.398   .     A
C521   H740    1.082   .     S
C521   C522    1.398   .     A
C522   C523    1.398   .     A
C522   H1597   1.082   .     S
C523   H1599   1.083   .     S
C524   C530    1.404   .     A
C524   C525    1.407   .     A
C524   C650    1.487   .     S
C525   C526    1.397   .     A
C525   H744    1.083   .     S
C526   H745    1.082   .     S
C526   C527    1.398   .     A
C527   C528    1.398   .     A
C527   H746    1.082   .     S
C528   C530    1.398   .     A
C528   H747    1.082   .     S
C529   C628    1.404   .     A
C529   C597    1.462   .     S
C529   C1440   1.404   1_545 S
C530   H748    1.083   .     S
C531   C532    1.407   .     A
C531   C536    1.405   .     A
C532   C533    1.397   .     A
C532   H749    1.083   .     S
C533   H750    1.081   .     S
C533   C534    1.397   .     A
C534   C535    1.397   .     A
C534   H751    1.081   .     S
C535   C536    1.399   .     A
C535   H752    1.082   .     S
C536   H754    1.083   .     S
C537   C544    1.405   .     A
C537   C538    1.407   .     A
C538   C539    1.397   .     A
C538   H755    1.083   .     S
C539   H756    1.081   .     S
C539   C542    1.397   .     A
C540   C90     1.404   1_655 A
C541   C595    1.405   .     A
C541   C598    1.465   .     S
C541   C1495   1.405   1_545 S
C542   C543    1.397   .     A
C542   H757    1.081   .     S
C543   H758    1.082   .     S
C543   C544    1.399   .     A
C544   H759    1.083   .     S
C545   C550    1.404   .     A
C545   C546    1.407   .     A
C546   H760    1.083   .     S
C546   C547    1.397   .     A
C547   H761    1.082   .     S
C547   C548    1.398   .     A
C548   H762    1.082   .     S
C548   C549    1.398   .     A
C549   H763    1.082   .     S
C549   C550    1.398   .     A
C550   H765    1.083   .     S
C551   C553    1.407   .     A
C551   C557    1.404   .     A
C552   C603    1.465   .     S
C552   C650    1.405   .     A
C552   C1319   1.405   1_545 S
C553   H766    1.083   .     S
C553   C554    1.397   .     A
C554   C555    1.398   .     A
C554   H767    1.082   .     S
C555   H768    1.082   .     S
C555   C556    1.398   .     A
C556   H769    1.082   .     S
C556   C557    1.398   .     A
C557   H770    1.083   .     S
C558   C559    1.407   .     A
C558   C564    1.405   .     A
C559   H771    1.083   .     S
C559   C560    1.397   .     A
C560   C561    1.397   .     A
C560   H772    1.081   .     S
C561   H773    1.081   .     S
C561   C562    1.397   .     A
C562   H774    1.082   .     S
C562   C564    1.399   .     A
C563   C1286   1.404   1_545 A
C563   C604    1.462   .     S
C564   H776    1.083   .     S
C565   C570    1.405   .     A
C565   C566    1.407   .     A
C566   H777    1.083   .     S
C566   C567    1.397   .     A
C567   C568    1.397   .     A
C567   H778    1.081   .     S
C568   C569    1.397   .     A
C568   H779    1.081   .     S
C569   H780    1.082   .     S
C569   C570    1.399   .     A
C570   H781    1.083   .     S
C571   C577    1.404   .     A
C571   C572    1.407   .     A
C572   C573    1.397   .     A
C572   H782    1.083   .     S
C573   C575    1.398   .     A
C573   H783    1.082   .     S
C574   C601    1.462   .     S
C575   C576    1.398   .     A
C575   H784    1.082   .     S
C576   C577    1.398   .     A
C576   H785    1.082   .     S
C577   H787    1.083   .     S
C578   C602    1.466   .     S
C579   C658    1.425   .     A
C579   C585    1.391   .     A
C579   Cl661   1.777   .     S
C580   Cl672   1.779   .     S
C580   C659    1.413   .     A
C580   C583    1.391   .     A
C581   Cl683   1.779   .     S
C581   C660    1.413   .     A
C581   C587    1.391   .     A
C582   C586    1.391   .     A
C582   Cl694   1.777   .     S
C583   Cl704   1.777   .     S
C584   C1385   1.404   .     S
C585   Cl705   1.779   .     S
C586   Cl706   1.779   .     S
C587   Cl707   1.777   .     S
C588   Cl708   1.777   .     S
C588   C593    1.391   1_556 S
C589   Cl662   1.779   .     S
C589   C592    1.391   1_554 S
C590   Cl663   1.779   .     S
C590   C596    1.392   1_556 S
C591   Cl664   1.777   .     S
C591   C594    1.392   1_554 S
C592   Cl665   1.777   .     S
C592   C589    1.391   1_556 S
C593   Cl666   1.779   .     S
C593   C588    1.391   1_554 S
C594   Cl667   1.779   .     S
C594   C591    1.392   1_556 S
C596   Cl668   1.777   .     S
C596   C590    1.392   1_554 S
C597   O840    1.275   .     A
C597   O1689   1.275   1_545 S
C598   O1646   1.276   1_545 A
C598   O837    1.276   .     S
C599   O838    1.276   .     S
C600   O792    1.275   .     A
C601   O793    1.275   .     A
C601   O797    1.275   .     S
C602   O794    1.276   .     S
C602   O798    1.276   .     S
C603   O795    1.276   .     A
C603   O799    1.276   .     A
C604   O796    1.275   .     S
C604   O801    1.275   .     S
C605   O802    1.280   .     A
C605   O830    1.280   .     A
C606   C658    1.421   .     A
C606   C79     1.405   1_655 A
C607   O831    1.280   .     A
C607   O803    1.280   .     A
C608   O828    1.280   .     A
C608   O804    1.280   .     A
C609   O829    1.280   .     A
C609   O805    1.280   .     A
C610   O806    1.280   .     A
C610   O835    1.280   .     A
C611   O807    1.280   .     A
C611   O836    1.280   .     A
C612   O832    1.280   .     A
C612   O808    1.280   .     A
C613   O809    1.280   .     A
C613   O834    1.280   .     A
C614   O821    1.280   .     A
C614   O810    1.280   .     A
C615   O823    1.280   .     A
C615   O812    1.280   .     A
C616   O819    1.280   .     A
C616   O813    1.280   .     A
C617   C659    1.418   .     A
C618   O814    1.280   .     A
C618   O820    1.280   .     A
C619   O826    1.280   .     A
C619   O815    1.280   .     A
C620   O827    1.280   .     A
C620   O816    1.280   .     A
C621   O817    1.280   .     A
C621   O824    1.280   .     A
C622   O825    1.280   .     A
C622   O818    1.280   .     A
C623   Cl669   1.772   .     S
C623   C640    1.395   .     A
C624   C638    1.395   .     A
C624   Cl670   1.772   .     S
C625   Cl671   1.767   .     S
C625   C637    1.397   .     A
C626   Cl673   1.769   .     S
C626   C636    1.397   .     A
C627   Cl674   1.772   .     S
C627   C635    1.395   .     A
C628   C660    1.418   .     A
C629   C634    1.395   .     A
C629   Cl675   1.772   .     S
C630   Cl676   1.767   .     S
C630   C633    1.397   .     A
C631   Cl677   1.769   .     S
C631   C632    1.397   .     A
C632   Cl678   1.767   .     S
C633   Cl679   1.769   .     S
C634   Cl680   1.772   .     S
C635   Cl681   1.772   .     S
C636   Cl682   1.767   .     S
C637   Cl684   1.769   .     S
C638   Cl685   1.772   .     S
C639   C1397   1.405   .     S
C640   Cl686   1.772   .     S
C641   C657    1.395   .     A
C641   Cl687   1.772   .     S
C642   C656    1.395   .     A
C642   Cl688   1.772   .     S
C643   Cl689   1.767   .     S
C643   C655    1.397   .     A
C644   C654    1.397   .     A
C644   Cl690   1.769   .     S
C645   C653    1.395   .     A
C645   Cl691   1.772   .     S
C646   C652    1.395   .     A
C646   Cl692   1.772   .     S
C647   Cl693   1.767   .     S
C647   C651    1.397   .     A
C648   C649    1.397   .     A
C648   Cl695   1.769   .     S
C649   Cl696   1.767   .     S
C651   Cl697   1.769   .     S
C652   Cl698   1.772   .     S
C653   Cl699   1.772   .     S
C654   Cl700   1.767   .     S
C655   Cl701   1.769   .     S
C656   Cl702   1.772   .     S
C657   Cl703   1.772   .     S
C658   C34     1.432   1_655 A
H711   C1342   1.083   1_545 S
H719   C1351   1.082   .     S
H721   C1353   1.083   .     S
H727   C77     1.083   1_655 S
H733   C1368   1.083   .     S
H741   C1378   1.082   1_545 S
H742   C48     1.082   1_655 S
H743   C1379   1.083   1_545 S
H753   C49     1.083   1_655 S
O789   Zn844   1.948   .     S
O789   Zn852   1.948   .     S
O789   Zn841   1.948   .     S
O789   Zn1704  1.948   1_545 S
O790   C1454   1.276   .     A
O790   Zn843   1.957   .     S
O791   Zn846   1.957   .     S
O791   C171    1.276   1_655 A
O792   Zn845   1.957   .     S
O793   Zn855   1.957   .     S
O794   Zn854   1.957   .     S
O795   Zn849   1.957   .     S
O796   Zn841   1.957   .     S
O797   Zn851   1.957   .     S
O798   Zn850   1.957   .     S
O799   Zn853   1.957   .     S
O800   Zn853   1.948   .     S
O800   Zn1699  1.948   1_545 S
O800   Zn849   1.948   .     S
O800   Zn847   1.948   .     S
O801   Zn852   1.957   .     S
O802   Zn844   1.926   .     S
O803   Zn843   1.926   .     S
O804   Zn846   1.938   .     S
O805   Zn845   1.938   .     S
O806   Zn848   1.926   .     S
O807   Zn847   1.926   .     S
O808   Zn842   1.938   .     S
O809   Zn856   1.938   .     S
O810   Zn843   1.938   .     S
O811   Zn842   1.948   .     S
O811   Zn850   1.948   .     S
O811   Zn854   1.948   .     S
O812   Zn844   1.938   .     S
O813   Zn856   1.926   .     S
O814   Zn842   1.926   .     S
O815   Zn847   1.938   .     S
O816   Zn848   1.938   .     S
O817   Zn845   1.926   .     S
O818   Zn846   1.926   .     S
O819   Zn423   1.926   1_655 S
O820   Zn850   1.926   .     S
O821   Zn1709  1.938   .     S
O822   Zn845   1.948   .     S
O822   Zn851   1.948   .     S
O822   Zn855   1.948   .     S
O823   Zn852   1.938   .     S
O824   Zn855   1.926   .     S
O825   Zn426   1.926   1_655 S
O826   Zn849   1.938   .     S
O827   Zn1697  1.938   .     S
O828   Zn422   1.938   1_655 S
O829   Zn851   1.938   .     S
O830   Zn841   1.926   .     S
O831   Zn1705  1.926   .     S
O832   Zn854   1.938   .     S
O833   Zn848   1.957   .     S
O833   C1453   1.275   .     S
O834   Zn427   1.938   1_655 S
O835   Zn1708  1.926   .     S
O836   Zn853   1.926   .     S
O837   Zn847   1.957   .     S
O838   Zn842   1.957   .     S
O839   Zn856   1.957   .     S
O839   C172    1.275   1_655 S
O840   Zn844   1.957   .     S
Zn841  O1683   1.938   1_545 S
Zn843  O1656   1.948   .     S
Zn846  O383    1.948   1_655 S
Zn848  O1645   1.948   .     S
Zn849  O1687   1.926   1_545 S
Zn852  O1691   1.926   1_545 S
Zn853  O1677   1.938   1_545 S
Zn856  O394    1.948   1_655 S
C857   C899    1.487   .     S
C857   C860    1.421   .     A
C857   C935    1.405   .     S
C858   C870    1.418   .     A
C858   C135    1.404   1_565 A
C858   C959    1.491   .     S
C859   C1067   1.421   .     A
C859   C1010   1.425   .     A
C859   C38     1.432   1_565 S
C860   C1011   1.425   .     A
C860   C890    1.432   .     S
C861   C1320   1.425   .     A
C861   C968    1.418   .     A
C861   C1013   1.413   .     A
C862   C1014   1.413   .     A
C862   C1012   1.418   .     A
C862   C37     1.425   1_565 S
C863   C1015   1.425   .     A
C863   C1023   1.421   .     A
C863   C894    1.432   .     A
C864   C891    1.421   .     A
C864   C1016   1.425   .     A
C864   C39     1.432   1_565 A
C865   C902    1.418   .     A
C865   C1017   1.413   .     A
C865   C896    1.425   .     S
C866   C1018   1.413   .     A
C866   C913    1.418   .     A
C866   C897    1.425   .     S
C867   C1019   1.425   .     A
C867   C924    1.421   .     A
C867   C1326   1.432   .     A
C868   C1078   1.421   .     A
C868   C1020   1.425   .     A
C868   C895    1.432   .     S
C869   C965    1.491   .     S
C869   C1430   1.404   .     A
C869   C871    1.418   .     A
C870   C40     1.425   1_565 A
C870   C1021   1.413   .     A
C871   C1022   1.413   .     A
C871   C1325   1.425   .     A
C872   C880    1.421   .     A
C872   C1024   1.425   .     A
C872   C898    1.432   .     S
C873   C1040   1.457   .     S
C873   C1068   1.409   .     A
C873   C1070   1.409   .     A
C874   C1066   1.409   .     A
C874   C1041   1.457   .     S
C874   C1069   1.409   .     A
C875   C1065   1.404   .     A
C875   C1033   1.447   .     S
C875   C1072   1.404   .     A
C876   C1071   1.404   .     A
C876   C1035   1.448   .     S
C876   C1064   1.404   .     A
C877   C1036   1.457   .     S
C877   C1074   1.409   .     A
C877   C1063   1.409   .     A
C878   C1037   1.457   .     S
C878   C1062   1.409   .     A
C878   C1073   1.409   .     A
C879   C1038   1.447   .     S
C879   C1061   1.404   .     A
C879   C1076   1.404   .     A
C880   C973    1.487   .     S
C880   C1006   1.405   .     S
C881   C1060   1.404   .     A
C881   C1075   1.404   .     A
C881   C1039   1.448   .     S
C882   C1059   1.404   .     A
C882   C1079   1.404   .     A
C882   C1049   1.447   .     S
C883   C1058   1.404   .     A
C883   C1077   1.404   .     A
C883   C1050   1.448   .     S
C884   C1057   1.409   .     A
C884   C1042   1.457   .     S
C884   C1081   1.409   .     A
C885   C1055   1.409   .     A
C885   C1080   1.409   .     A
C885   C1043   1.457   .     S
C886   C1054   1.404   .     A
C886   C1044   1.447   .     S
C886   C1083   1.404   .     A
C887   C1046   1.448   .     S
C887   C1082   1.404   .     A
C887   C1053   1.404   .     A
C888   C1052   1.409   .     A
C888   C1085   1.409   .     A
C888   C1047   1.457   .     S
C889   C1051   1.409   .     A
C889   C1084   1.409   .     A
C889   C1048   1.457   .     S
C890   C892    1.425   .     A
C890   C1514   1.432   1_455 A
C891   C979    1.487   .     S
C891   C124    1.405   1_565 S
C892   C1289   1.425   1_455 A
C892   C1087   1.425   .     S
C893   C1088   1.425   .     A
C893   C894    1.425   .     A
C895   C896    1.425   1_556 S
C896   C895    1.425   1_554 S
C897   C1299   1.425   1_455 A
C897   C898    1.425   1_556 S
C898   C1295   1.432   1_455 A
C898   C897    1.425   1_554 S
C899   C900    1.407   .     A
C899   C905    1.404   .     A
C900   C901    1.397   .     A
C900   H1137   1.083   .     S
C901   C903    1.398   .     A
C901   H1148   1.082   .     S
C902   C986    1.491   .     S
C902   C991    1.404   .     S
C903   C904    1.398   .     A
C903   H1159   1.082   .     S
C904   C905    1.398   .     A
C904   H1598   1.082   1_455 S
C905   H1609   1.083   1_455 S
C906   C968    1.491   .     S
C906   C907    1.407   .     A
C906   C911    1.405   .     A
C907   C908    1.397   .     A
C907   H1620   1.083   .     S
C908   C909    1.397   .     A
C908   H1203   1.081   .     S
C909   H1214   1.081   .     S
C909   C910    1.397   .     A
C910   H1216   1.082   .     S
C910   C911    1.399   .     A
C911   H1138   1.083   .     S
C912   C918    1.405   .     A
C912   C1012   1.491   .     S
C912   C914    1.407   .     A
C913   C993    1.491   .     S
C913   C1002   1.404   .     S
C914   C915    1.397   .     A
C914   H283    1.083   1_565 S
C915   H1140   1.081   .     S
C915   C916    1.397   .     A
C916   H1141   1.081   .     S
C916   C917    1.397   .     A
C917   H1142   1.082   .     S
C917   C918    1.399   .     A
C918   H1143   1.083   .     S
C919   C920    1.407   .     A
C919   C925    1.404   .     A
C919   C1023   1.487   .     S
C920   H1144   1.083   .     S
C920   C921    1.397   .     A
C921   H1145   1.082   .     S
C921   C922    1.398   .     A
C922   C923    1.398   .     A
C922   H1146   1.082   .     S
C923   C925    1.398   .     A
C924   C999    1.487   .     S
C924   C1434   1.405   .     A
C926   C927    1.407   .     A
C926   C1034   1.487   .     S
C926   C931    1.404   .     A
C927   C928    1.397   .     A
C927   H1150   1.083   .     S
C928   C929    1.398   .     A
C928   H1151   1.082   .     S
C929   C930    1.398   .     A
C929   H1152   1.082   .     S
C930   C931    1.398   .     A
C930   H1581   1.082   .     S
C931   H1582   1.083   .     S
C932   C938    1.405   .     A
C932   C1045   1.491   .     S
C932   C933    1.407   .     A
C933   C934    1.397   .     A
C933   H1583   1.083   1_455 S
C934   C936    1.397   .     A
C934   H1156   1.081   .     S
C935   C1027   1.465   .     S
C935   C1462   1.405   1_455 A
C936   H1157   1.081   .     S
C936   C937    1.397   .     A
C937   H1158   1.082   .     S
C937   C938    1.399   .     A
C938   H1160   1.083   .     S
C939   C944    1.405   .     A
C939   C940    1.407   .     A
C939   C1056   1.491   .     S
C940   C941    1.397   .     A
C941   C942    1.397   .     A
C941   H1162   1.081   .     S
C942   C943    1.397   .     A
C942   H1163   1.081   .     S
C943   H1164   1.082   .     S
C943   C944    1.399   .     A
C944   H1165   1.083   .     S
C945   C947    1.407   .     A
C945   C1067   1.487   .     S
C945   C951    1.404   .     A
C946   C1396   1.404   1_455 A
C946   C1028   1.462   .     S
C946   C1045   1.404   .     S
C947   C948    1.397   .     A
C947   H1166   1.083   .     S
C948   H1167   1.082   .     S
C948   C949    1.398   .     A
C949   H1168   1.082   .     S
C949   C950    1.398   .     A
C950   C951    1.398   .     A
C950   H313    1.082   1_565 S
C951   H315    1.083   1_565 S
C952   C958    1.404   .     A
C952   C953    1.407   .     A
C952   C1078   1.487   .     S
C953   C954    1.397   .     A
C953   H1172   1.083   .     S
C954   H1173   1.082   .     S
C954   C955    1.398   .     A
C955   C956    1.398   .     A
C955   H1174   1.082   .     S
C956   C958    1.398   .     A
C956   H1175   1.082   .     S
C957   C1056   1.404   .     A
C957   C1025   1.462   .     S
C958   H1176   1.083   .     S
C959   C960    1.407   .     A
C959   C964    1.405   .     A
C960   C961    1.397   .     A
C960   H1177   1.083   .     S
C961   H1178   1.081   .     S
C961   C962    1.397   .     A
C962   C963    1.397   .     A
C962   H1179   1.081   .     S
C963   C964    1.399   .     A
C963   H1180   1.082   .     S
C964   H1182   1.083   .     S
C965   C972    1.405   .     A
C965   C966    1.407   .     A
C966   C967    1.397   .     A
C966   H1183   1.083   .     S
C967   H1184   1.081   .     S
C967   C970    1.397   .     A
C968   C1374   1.404   .     A
C969   C1023   1.405   .     A
C969   C1026   1.465   .     S
C970   C971    1.397   .     A
C970   H1185   1.081   .     S
C971   H1186   1.082   .     S
C971   C972    1.399   .     A
C972   H1187   1.083   .     S
C973   C978    1.404   .     A
C973   C974    1.407   .     A
C974   H1188   1.083   .     S
C974   C975    1.397   .     A
C975   H1189   1.082   .     S
C975   C976    1.398   .     A
C976   H1190   1.082   .     S
C976   C977    1.398   .     A
C977   H1191   1.082   .     S
C977   C978    1.398   .     A
C978   H1193   1.083   .     S
C979   C981    1.407   .     A
C979   C985    1.404   .     A
C980   C1031   1.465   .     S
C980   C1078   1.405   .     A
C981   H1194   1.083   .     S
C981   C982    1.397   .     A
C982   C983    1.398   .     A
C982   H1195   1.082   .     S
C983   H1196   1.082   .     S
C983   C984    1.398   .     A
C984   H1197   1.082   .     S
C984   C985    1.398   .     A
C985   H1198   1.083   .     S
C986   C987    1.407   .     A
C986   C992    1.405   .     A
C987   H1199   1.083   .     S
C987   C988    1.397   .     A
C988   C989    1.397   .     A
C988   H1200   1.081   .     S
C989   H1201   1.081   .     S
C989   C990    1.397   .     A
C990   H1202   1.082   .     S
C990   C992    1.399   .     A
C991   C1032   1.462   .     S
C992   H1204   1.083   .     S
C993   C998    1.405   .     A
C993   C994    1.407   .     A
C994   H1205   1.083   .     S
C994   C995    1.397   .     A
C995   C996    1.397   .     A
C995   H1206   1.081   .     S
C996   C997    1.397   .     A
C996   H1207   1.081   .     S
C997   H1208   1.082   .     S
C997   C998    1.399   .     A
C998   H1209   1.083   .     S
C999   C1005   1.404   .     A
C999   C1000   1.407   .     A
C1000  C1001   1.397   .     A
C1000  H1210   1.083   .     S
C1001  C1003   1.398   .     A
C1001  H1211   1.082   .     S
C1002  C1297   1.404   1_455 A
C1002  C1029   1.462   .     S
C1003  C1004   1.398   .     A
C1003  H1212   1.082   .     S
C1004  C1005   1.398   .     A
C1004  H1213   1.082   .     S
C1005  H1215   1.083   .     S
C1006  C1352   1.405   1_455 A
C1006  C1030   1.466   .     S
C1007  C1086   1.425   .     A
C1007  C1013   1.391   .     A
C1007  Cl1089  1.777   .     S
C1008  Cl1100  1.779   .     S
C1008  C1087   1.413   .     A
C1008  C1011   1.391   .     A
C1009  Cl1111  1.779   .     S
C1009  C1088   1.413   .     A
C1009  C1015   1.391   .     A
C1010  C1014   1.391   .     A
C1010  Cl1122  1.777   .     S
C1011  Cl1132  1.777   .     S
C1012  C101    1.404   1_565 S
C1013  Cl1133  1.779   .     S
C1014  Cl1134  1.779   .     S
C1015  Cl1135  1.777   .     S
C1016  Cl1136  1.777   .     S
C1016  C1021   1.391   1_556 S
C1017  Cl1090  1.779   .     S
C1017  C1020   1.391   1_554 S
C1018  Cl1091  1.779   .     S
C1018  C1024   1.392   1_556 S
C1019  Cl1092  1.777   .     S
C1019  C1022   1.392   1_554 S
C1020  Cl1093  1.777   .     S
C1020  C1017   1.391   1_556 S
C1021  Cl1094  1.779   .     S
C1021  C1016   1.391   1_554 S
C1022  Cl1095  1.779   .     S
C1022  C1019   1.392   1_556 S
C1024  Cl1096  1.777   .     S
C1024  C1018   1.392   1_554 S
C1025  O1268   1.275   .     A
C1026  O1265   1.276   .     S
C1027  O1647   1.276   1_455 A
C1027  O1266   1.276   .     S
C1028  O1220   1.275   .     A
C1028  O1695   1.275   1_455 S
C1029  O1221   1.275   .     A
C1029  O1225   1.275   .     S
C1030  O1222   1.276   .     S
C1030  O1226   1.276   .     S
C1031  O1223   1.276   .     A
C1031  O1227   1.276   .     A
C1032  O1224   1.275   .     S
C1032  O1229   1.275   .     S
C1033  O1230   1.280   .     A
C1033  O1258   1.280   .     A
C1034  C1086   1.421   .     A
C1034  C1363   1.405   .     A
C1035  O1259   1.280   .     A
C1035  O1231   1.280   .     A
C1036  O1256   1.280   .     A
C1036  O1232   1.280   .     A
C1037  O1257   1.280   .     A
C1037  O1233   1.280   .     A
C1038  O1234   1.280   .     A
C1038  O1263   1.280   .     A
C1039  O1235   1.280   .     A
C1039  O1264   1.280   .     A
C1040  O1260   1.280   .     A
C1040  O1236   1.280   .     A
C1041  O1237   1.280   .     A
C1041  O1262   1.280   .     A
C1042  O1249   1.280   .     A
C1042  O1238   1.280   .     A
C1043  O1251   1.280   .     A
C1043  O1240   1.280   .     A
C1044  O1247   1.280   .     A
C1044  O1241   1.280   .     A
C1045  C1087   1.418   .     A
C1046  O1242   1.280   .     A
C1046  O1248   1.280   .     A
C1047  O1254   1.280   .     A
C1047  O1243   1.280   .     A
C1048  O1255   1.280   .     A
C1048  O1244   1.280   .     A
C1049  O1245   1.280   .     A
C1049  O1252   1.280   .     A
C1050  O1253   1.280   .     A
C1050  O1246   1.280   .     A
C1051  Cl1097  1.772   .     S
C1051  C1068   1.395   .     A
C1052  C1066   1.395   .     A
C1052  Cl1098  1.772   .     S
C1053  Cl1099  1.767   .     S
C1053  C1065   1.397   .     A
C1054  Cl1101  1.769   .     S
C1054  C1064   1.397   .     A
C1055  Cl1102  1.772   .     S
C1055  C1063   1.395   .     A
C1056  C1088   1.418   .     A
C1057  C1062   1.395   .     A
C1057  Cl1103  1.772   .     S
C1058  Cl1104  1.767   .     S
C1058  C1061   1.397   .     A
C1059  Cl1105  1.769   .     S
C1059  C1060   1.397   .     A
C1060  Cl1106  1.767   .     S
C1061  Cl1107  1.769   .     S
C1062  Cl1108  1.772   .     S
C1063  Cl1109  1.772   .     S
C1064  Cl1110  1.767   .     S
C1065  Cl1112  1.769   .     S
C1066  Cl1113  1.772   .     S
C1067  C113    1.405   1_565 S
C1068  Cl1114  1.772   .     S
C1069  C1085   1.395   .     A
C1069  Cl1115  1.772   .     S
C1070  C1084   1.395   .     A
C1070  Cl1116  1.772   .     S
C1071  Cl1117  1.767   .     S
C1071  C1083   1.397   .     A
C1072  C1082   1.397   .     A
C1072  Cl1118  1.769   .     S
C1073  C1081   1.395   .     A
C1073  Cl1119  1.772   .     S
C1074  C1080   1.395   .     A
C1074  Cl1120  1.772   .     S
C1075  Cl1121  1.767   .     S
C1075  C1079   1.397   .     A
C1076  C1077   1.397   .     A
C1076  Cl1123  1.769   .     S
C1077  Cl1124  1.767   .     S
C1079  Cl1125  1.769   .     S
C1080  Cl1126  1.772   .     S
C1081  Cl1127  1.772   .     S
C1082  Cl1128  1.767   .     S
C1083  Cl1129  1.769   .     S
C1084  Cl1130  1.772   .     S
C1085  Cl1131  1.772   .     S
C1086  C1318   1.432   .     A
H1147  C67     1.082   1_565 S
H1149  C69     1.083   1_565 S
H1153  C1358   1.082   1_455 S
H1154  C1359   1.083   1_455 S
H1155  C1361   1.083   .     S
H1161  C84     1.083   1_565 S
H1170  C1332   1.082   .     S
H1181  C1333   1.083   .     S
H1192  C1335   1.083   1_455 S
O1217  Zn1272  1.948   .     S
O1217  Zn1280  1.948   .     S
O1217  Zn1269  1.948   .     S
O1218  C170    1.276   1_565 A
O1218  Zn1271  1.957   .     S
O1219  Zn1274  1.957   .     S
O1219  C1455   1.276   .     A
O1220  Zn1273  1.957   .     S
O1221  Zn1283  1.957   .     S
O1222  Zn1282  1.957   .     S
O1223  Zn1277  1.957   .     S
O1224  Zn1269  1.957   .     S
O1225  Zn1279  1.957   .     S
O1226  Zn1278  1.957   .     S
O1227  Zn1281  1.957   .     S
O1228  Zn1281  1.948   .     S
O1228  Zn1277  1.948   .     S
O1228  Zn1275  1.948   .     S
O1229  Zn1280  1.957   .     S
O1230  Zn1272  1.926   .     S
O1231  Zn1271  1.926   .     S
O1232  Zn1274  1.938   .     S
O1233  Zn1273  1.938   .     S
O1234  Zn1276  1.926   .     S
O1235  Zn1275  1.926   .     S
O1236  Zn1270  1.938   .     S
O1237  Zn1284  1.938   .     S
O1238  Zn1271  1.938   .     S
O1239  Zn1270  1.948   .     S
O1239  Zn1702  1.948   1_455 S
O1239  Zn1278  1.948   .     S
O1239  Zn1282  1.948   .     S
O1240  Zn1272  1.938   .     S
O1241  Zn1284  1.926   .     S
O1242  Zn1270  1.926   .     S
O1243  Zn1275  1.938   .     S
O1244  Zn1276  1.938   .     S
O1245  Zn1273  1.926   .     S
O1246  Zn1274  1.926   .     S
O1247  Zn1707  1.926   .     S
O1248  Zn1278  1.926   .     S
O1249  Zn425   1.938   1_565 S
O1250  Zn1273  1.948   .     S
O1250  Zn1279  1.948   .     S
O1250  Zn1283  1.948   .     S
O1250  Zn1712  1.948   1_455 S
O1251  Zn1280  1.938   .     S
O1252  Zn1283  1.926   .     S
O1253  Zn1710  1.926   .     S
O1254  Zn1277  1.938   .     S
O1255  Zn413   1.938   1_565 S
O1256  Zn1706  1.938   .     S
O1257  Zn1279  1.938   .     S
O1258  Zn1269  1.926   .     S
O1259  Zn421   1.926   1_565 S
O1260  Zn1282  1.938   .     S
O1261  Zn1276  1.957   .     S
O1261  C169    1.275   1_565 S
O1262  Zn1711  1.938   .     S
O1263  Zn424   1.926   1_565 S
O1264  Zn1281  1.926   .     S
O1265  Zn1275  1.957   .     S
O1266  Zn1270  1.957   .     S
O1267  Zn1284  1.957   .     S
O1267  C1456   1.275   .     S
O1268  Zn1272  1.957   .     S
Zn1271 O372    1.948   1_565 S
Zn1274 O1667   1.948   .     S
Zn1276 O361    1.948   1_565 S
Zn1278 O1684   1.938   1_455 S
Zn1279 O1675   1.926   1_455 S
Zn1282 O1681   1.926   1_455 S
Zn1283 O1690   1.938   1_455 S
Zn1284 O1678   1.948   .     S
C1285  C1327   1.487   .     S
C1285  C1288   1.421   .     A
C1285  C1363   1.405   .     S
C1286  C1298   1.418   .     A
C1286  C563    1.404   1_565 A
C1286  C1387   1.491   .     S
C1287  C1495   1.421   .     A
C1287  C1438   1.425   .     A
C1287  C466    1.432   1_565 S
C1288  C1439   1.425   .     A
C1288  C1318   1.432   .     S
C1289  C892    1.425   1_655 A
C1289  C1396   1.418   .     A
C1289  C1441   1.413   .     A
C1290  C1442   1.413   .     A
C1290  C1440   1.418   .     A
C1290  C465    1.425   1_565 S
C1291  C1443   1.425   .     A
C1291  C1451   1.421   .     A
C1291  C1322   1.432   .     A
C1292  C1319   1.421   .     A
C1292  C1444   1.425   .     A
C1292  C467    1.432   1_565 A
C1293  C1330   1.418   .     A
C1293  C1445   1.413   .     A
C1293  C1324   1.425   .     S
C1294  C1446   1.413   .     A
C1294  C1341   1.418   .     A
C1294  C1325   1.425   .     S
C1295  C1447   1.425   .     A
C1295  C1352   1.421   .     A
C1295  C898    1.432   1_655 A
C1296  C1506   1.421   .     A
C1296  C1448   1.425   .     A
C1296  C1323   1.432   .     S
C1297  C1393   1.491   .     S
C1297  C1002   1.404   1_655 A
C1297  C1299   1.418   .     A
C1298  C468    1.425   1_565 A
C1298  C1449   1.413   .     A
C1299  C1450   1.413   .     A
C1299  C897    1.425   1_655 A
C1300  C1308   1.421   .     A
C1300  C1452   1.425   .     A
C1300  C1326   1.432   .     S
C1301  C1468   1.457   .     S
C1301  C1496   1.409   .     A
C1301  C1498   1.409   .     A
C1302  C1494   1.409   .     A
C1302  C1469   1.457   .     S
C1302  C1497   1.409   .     A
C1303  C1493   1.404   .     A
C1303  C1461   1.447   .     S
C1303  C1500   1.404   .     A
C1304  C1499   1.404   .     A
C1304  C1463   1.448   .     S
C1304  C1492   1.404   .     A
C1305  C1464   1.457   .     S
C1305  C1502   1.409   .     A
C1305  C1491   1.409   .     A
C1306  C1465   1.457   .     S
C1306  C1490   1.409   .     A
C1306  C1501   1.409   .     A
C1307  C1466   1.447   .     S
C1307  C1489   1.404   .     A
C1307  C1504   1.404   .     A
C1308  C1401   1.487   .     S
C1308  C1434   1.405   .     S
C1309  C1488   1.404   .     A
C1309  C1503   1.404   .     A
C1309  C1467   1.448   .     S
C1310  C1487   1.404   .     A
C1310  C1507   1.404   .     A
C1310  C1477   1.447   .     S
C1311  C1486   1.404   .     A
C1311  C1505   1.404   .     A
C1311  C1478   1.448   .     S
C1312  C1485   1.409   .     A
C1312  C1470   1.457   .     S
C1312  C1509   1.409   .     A
C1313  C1483   1.409   .     A
C1313  C1508   1.409   .     A
C1313  C1471   1.457   .     S
C1314  C1482   1.404   .     A
C1314  C1472   1.447   .     S
C1314  C1511   1.404   .     A
C1315  C1474   1.448   .     S
C1315  C1510   1.404   .     A
C1315  C1481   1.404   .     A
C1316  C1480   1.409   .     A
C1316  C1513   1.409   .     A
C1316  C1475   1.457   .     S
C1317  C1479   1.409   .     A
C1317  C1512   1.409   .     A
C1317  C1476   1.457   .     S
C1318  C1320   1.425   .     A
C1319  C1407   1.487   .     S
C1319  C552    1.405   1_565 S
C1320  C1515   1.425   .     S
C1321  C1516   1.425   .     A
C1321  C1322   1.425   .     A
C1323  C1324   1.425   1_556 S
C1324  C1323   1.425   1_554 S
C1325  C1326   1.425   1_556 S
C1326  C1325   1.425   1_554 S
C1327  C1328   1.407   .     A
C1327  C1333   1.404   .     A
C1328  C1329   1.397   .     A
C1328  H1565   1.083   .     S
C1329  C1331   1.398   .     A
C1329  H1576   1.082   .     S
C1330  C1414   1.491   .     S
C1330  C1419   1.404   .     S
C1331  C1332   1.398   .     A
C1331  H1587   1.082   .     S
C1332  C1333   1.398   .     A
C1334  C1396   1.491   .     S
C1334  C1335   1.407   .     A
C1334  C1339   1.405   .     A
C1335  C1336   1.397   .     A
C1335  H1192   1.083   1_655 S
C1336  C1337   1.397   .     A
C1336  H1631   1.081   .     S
C1337  H1642   1.081   .     S
C1337  C1338   1.397   .     A
C1338  H1644   1.082   .     S
C1338  C1339   1.399   .     A
C1339  H1566   1.083   .     S
C1340  C1346   1.405   .     A
C1340  C1440   1.491   .     S
C1340  C1342   1.407   .     A
C1341  C1421   1.491   .     S
C1341  C1430   1.404   .     S
C1342  C1343   1.397   .     A
C1342  H711    1.083   1_565 S
C1343  H1568   1.081   .     S
C1343  C1344   1.397   .     A
C1344  H1569   1.081   .     S
C1344  C1345   1.397   .     A
C1345  H1570   1.082   .     S
C1345  C1346   1.399   .     A
C1346  H1571   1.083   .     S
C1347  C1348   1.407   .     A
C1347  C1353   1.404   .     A
C1347  C1451   1.487   .     S
C1348  H1572   1.083   .     S
C1348  C1349   1.397   .     A
C1349  H1573   1.082   .     S
C1349  C1350   1.398   .     A
C1350  C1351   1.398   .     A
C1350  H1574   1.082   .     S
C1351  C1353   1.398   .     A
C1352  C1427   1.487   .     S
C1352  C1006   1.405   1_655 A
C1354  C1355   1.407   .     A
C1354  C1462   1.487   .     S
C1354  C1359   1.404   .     A
C1355  C1356   1.397   .     A
C1355  H1578   1.083   .     S
C1356  C1357   1.398   .     A
C1356  H1579   1.082   .     S
C1357  C1358   1.398   .     A
C1357  H1580   1.082   .     S
C1358  C1359   1.398   .     A
C1358  H1153   1.082   1_655 S
C1359  H1154   1.083   1_655 S
C1360  C1366   1.405   .     A
C1360  C1473   1.491   .     S
C1360  C1361   1.407   .     A
C1361  C1362   1.397   .     A
C1362  C1364   1.397   .     A
C1362  H1584   1.081   .     S
C1363  C1455   1.465   .     S
C1364  H1585   1.081   .     S
C1364  C1365   1.397   .     A
C1365  H1586   1.082   .     S
C1365  C1366   1.399   .     A
C1366  H1588   1.083   .     S
C1367  C1372   1.405   .     A
C1367  C1368   1.407   .     A
C1367  C1484   1.491   .     S
C1368  C1369   1.397   .     A
C1369  C1370   1.397   .     A
C1369  H1590   1.081   .     S
C1370  C1371   1.397   .     A
C1370  H1591   1.081   .     S
C1371  H1592   1.082   .     S
C1371  C1372   1.399   .     A
C1372  H1593   1.083   .     S
C1373  C1375   1.407   .     A
C1373  C1495   1.487   .     S
C1373  C1379   1.404   .     A
C1374  C1456   1.462   .     S
C1374  C1473   1.404   .     S
C1375  C1376   1.397   .     A
C1375  H1594   1.083   .     S
C1376  H1595   1.082   .     S
C1376  C1377   1.398   .     A
C1377  H1596   1.082   .     S
C1377  C1378   1.398   .     A
C1378  C1379   1.398   .     A
C1378  H741    1.082   1_565 S
C1379  H743    1.083   1_565 S
C1380  C1386   1.404   .     A
C1380  C1381   1.407   .     A
C1380  C1506   1.487   .     S
C1381  C1382   1.397   .     A
C1381  H1600   1.083   .     S
C1382  H1601   1.082   .     S
C1382  C1383   1.398   .     A
C1383  C1384   1.398   .     A
C1383  H1602   1.082   .     S
C1384  C1386   1.398   .     A
C1384  H1603   1.082   .     S
C1385  C1484   1.404   .     A
C1385  C1453   1.462   .     S
C1386  H1604   1.083   .     S
C1387  C1388   1.407   .     A
C1387  C1392   1.405   .     A
C1388  C1389   1.397   .     A
C1388  H1605   1.083   .     S
C1389  H1606   1.081   .     S
C1389  C1390   1.397   .     A
C1390  C1391   1.397   .     A
C1390  H1607   1.081   .     S
C1391  C1392   1.399   .     A
C1391  H1608   1.082   .     S
C1392  H1610   1.083   .     S
C1393  C1400   1.405   .     A
C1393  C1394   1.407   .     A
C1394  C1395   1.397   .     A
C1394  H1611   1.083   .     S
C1395  H1612   1.081   .     S
C1395  C1398   1.397   .     A
C1396  C946    1.404   1_655 A
C1397  C1451   1.405   .     A
C1397  C1454   1.465   .     S
C1398  C1399   1.397   .     A
C1398  H1613   1.081   .     S
C1399  H1614   1.082   .     S
C1399  C1400   1.399   .     A
C1400  H1615   1.083   .     S
C1401  C1406   1.404   .     A
C1401  C1402   1.407   .     A
C1402  H1616   1.083   .     S
C1402  C1403   1.397   .     A
C1403  H1617   1.082   .     S
C1403  C1404   1.398   .     A
C1404  H1618   1.082   .     S
C1404  C1405   1.398   .     A
C1405  H1619   1.082   .     S
C1405  C1406   1.398   .     A
C1406  H1621   1.083   .     S
C1407  C1409   1.407   .     A
C1407  C1413   1.404   .     A
C1408  C1459   1.465   .     S
C1408  C1506   1.405   .     A
C1409  H1622   1.083   .     S
C1409  C1410   1.397   .     A
C1410  C1411   1.398   .     A
C1410  H1623   1.082   .     S
C1411  H1624   1.082   .     S
C1411  C1412   1.398   .     A
C1412  H1625   1.082   .     S
C1412  C1413   1.398   .     A
C1413  H1626   1.083   .     S
C1414  C1415   1.407   .     A
C1414  C1420   1.405   .     A
C1415  H1627   1.083   .     S
C1415  C1416   1.397   .     A
C1416  C1417   1.397   .     A
C1416  H1628   1.081   .     S
C1417  H1629   1.081   .     S
C1417  C1418   1.397   .     A
C1418  H1630   1.082   .     S
C1418  C1420   1.399   .     A
C1419  C1460   1.462   .     S
C1420  H1632   1.083   .     S
C1421  C1426   1.405   .     A
C1421  C1422   1.407   .     A
C1422  H1633   1.083   .     S
C1422  C1423   1.397   .     A
C1423  C1424   1.397   .     A
C1423  H1634   1.081   .     S
C1424  C1425   1.397   .     A
C1424  H1635   1.081   .     S
C1425  H1636   1.082   .     S
C1425  C1426   1.399   .     A
C1426  H1637   1.083   .     S
C1427  C1433   1.404   .     A
C1427  C1428   1.407   .     A
C1428  C1429   1.397   .     A
C1428  H1638   1.083   .     S
C1429  C1431   1.398   .     A
C1429  H1639   1.082   .     S
C1430  C1457   1.462   .     S
C1431  C1432   1.398   .     A
C1431  H1640   1.082   .     S
C1432  C1433   1.398   .     A
C1432  H1641   1.082   .     S
C1433  H1643   1.083   .     S
C1434  C1458   1.466   .     S
C1435  C1514   1.425   .     A
C1435  C1441   1.391   .     A
C1435  Cl1517  1.777   .     S
C1436  Cl1528  1.779   .     S
C1436  C1515   1.413   .     A
C1436  C1439   1.391   .     A
C1437  Cl1539  1.779   .     S
C1437  C1516   1.413   .     A
C1437  C1443   1.391   .     A
C1438  C1442   1.391   .     A
C1438  Cl1550  1.777   .     S
C1439  Cl1560  1.777   .     S
C1440  C529    1.404   1_565 S
C1441  Cl1561  1.779   .     S
C1442  Cl1562  1.779   .     S
C1443  Cl1563  1.777   .     S
C1444  Cl1564  1.777   .     S
C1444  C1449   1.391   1_556 S
C1445  Cl1518  1.779   .     S
C1445  C1448   1.391   1_554 S
C1446  Cl1519  1.779   .     S
C1446  C1452   1.392   1_556 S
C1447  Cl1520  1.777   .     S
C1447  C1450   1.392   1_554 S
C1448  Cl1521  1.777   .     S
C1448  C1445   1.391   1_556 S
C1449  Cl1522  1.779   .     S
C1449  C1444   1.391   1_554 S
C1450  Cl1523  1.779   .     S
C1450  C1447   1.392   1_556 S
C1452  Cl1524  1.777   .     S
C1452  C1446   1.392   1_554 S
C1453  O1696   1.275   .     A
C1454  O1693   1.276   .     S
C1455  O1694   1.276   .     S
C1456  O1648   1.275   .     A
C1457  O1649   1.275   .     A
C1457  O1653   1.275   .     S
C1458  O1650   1.276   .     S
C1458  O1654   1.276   .     S
C1459  O1651   1.276   .     A
C1459  O1655   1.276   .     A
C1460  O1652   1.275   .     S
C1460  O1657   1.275   .     S
C1461  O1658   1.280   .     A
C1461  O1686   1.280   .     A
C1462  C1514   1.421   .     A
C1462  C935    1.405   1_655 A
C1463  O1687   1.280   .     A
C1463  O1659   1.280   .     A
C1464  O1684   1.280   .     A
C1464  O1660   1.280   .     A
C1465  O1685   1.280   .     A
C1465  O1661   1.280   .     A
C1466  O1662   1.280   .     A
C1466  O1691   1.280   .     A
C1467  O1663   1.280   .     A
C1467  O1692   1.280   .     A
C1468  O1688   1.280   .     A
C1468  O1664   1.280   .     A
C1469  O1665   1.280   .     A
C1469  O1690   1.280   .     A
C1470  O1677   1.280   .     A
C1470  O1666   1.280   .     A
C1471  O1679   1.280   .     A
C1471  O1668   1.280   .     A
C1472  O1675   1.280   .     A
C1472  O1669   1.280   .     A
C1473  C1515   1.418   .     A
C1474  O1670   1.280   .     A
C1474  O1676   1.280   .     A
C1475  O1682   1.280   .     A
C1475  O1671   1.280   .     A
C1476  O1683   1.280   .     A
C1476  O1672   1.280   .     A
C1477  O1673   1.280   .     A
C1477  O1680   1.280   .     A
C1478  O1681   1.280   .     A
C1478  O1674   1.280   .     A
C1479  Cl1525  1.772   .     S
C1479  C1496   1.395   .     A
C1480  C1494   1.395   .     A
C1480  Cl1526  1.772   .     S
C1481  Cl1527  1.767   .     S
C1481  C1493   1.397   .     A
C1482  Cl1529  1.769   .     S
C1482  C1492   1.397   .     A
C1483  Cl1530  1.772   .     S
C1483  C1491   1.395   .     A
C1484  C1516   1.418   .     A
C1485  C1490   1.395   .     A
C1485  Cl1531  1.772   .     S
C1486  Cl1532  1.767   .     S
C1486  C1489   1.397   .     A
C1487  Cl1533  1.769   .     S
C1487  C1488   1.397   .     A
C1488  Cl1534  1.767   .     S
C1489  Cl1535  1.769   .     S
C1490  Cl1536  1.772   .     S
C1491  Cl1537  1.772   .     S
C1492  Cl1538  1.767   .     S
C1493  Cl1540  1.769   .     S
C1494  Cl1541  1.772   .     S
C1495  C541    1.405   1_565 S
C1496  Cl1542  1.772   .     S
C1497  C1513   1.395   .     A
C1497  Cl1543  1.772   .     S
C1498  C1512   1.395   .     A
C1498  Cl1544  1.772   .     S
C1499  Cl1545  1.767   .     S
C1499  C1511   1.397   .     A
C1500  C1510   1.397   .     A
C1500  Cl1546  1.769   .     S
C1501  C1509   1.395   .     A
C1501  Cl1547  1.772   .     S
C1502  C1508   1.395   .     A
C1502  Cl1548  1.772   .     S
C1503  Cl1549  1.767   .     S
C1503  C1507   1.397   .     A
C1504  C1505   1.397   .     A
C1504  Cl1551  1.769   .     S
C1505  Cl1552  1.767   .     S
C1507  Cl1553  1.769   .     S
C1508  Cl1554  1.772   .     S
C1509  Cl1555  1.772   .     S
C1510  Cl1556  1.767   .     S
C1511  Cl1557  1.769   .     S
C1512  Cl1558  1.772   .     S
C1513  Cl1559  1.772   .     S
C1514  C890    1.432   1_655 A
H1575  C495    1.082   1_565 S
H1577  C497    1.083   1_565 S
H1583  C933    1.083   1_655 S
H1589  C512    1.083   1_565 S
H1598  C904    1.082   1_655 S
H1609  C905    1.083   1_655 S
O1645  Zn1700  1.948   .     S
O1645  Zn1708  1.948   .     S
O1645  Zn1697  1.948   .     S
O1646  C598    1.276   1_565 A
O1646  Zn1699  1.957   .     S
O1647  Zn1702  1.957   .     S
O1647  C1027   1.276   1_655 A
O1648  Zn1701  1.957   .     S
O1649  Zn1711  1.957   .     S
O1650  Zn1710  1.957   .     S
O1651  Zn1705  1.957   .     S
O1652  Zn1697  1.957   .     S
O1653  Zn1707  1.957   .     S
O1654  Zn1706  1.957   .     S
O1655  Zn1709  1.957   .     S
O1656  Zn1709  1.948   .     S
O1656  Zn1705  1.948   .     S
O1656  Zn1703  1.948   .     S
O1657  Zn1708  1.957   .     S
O1658  Zn1700  1.926   .     S
O1659  Zn1699  1.926   .     S
O1660  Zn1702  1.938   .     S
O1661  Zn1701  1.938   .     S
O1662  Zn1704  1.926   .     S
O1663  Zn1703  1.926   .     S
O1664  Zn1698  1.938   .     S
O1665  Zn1712  1.938   .     S
O1666  Zn1699  1.938   .     S
O1667  Zn1698  1.948   .     S
O1667  Zn1706  1.948   .     S
O1667  Zn1710  1.948   .     S
O1668  Zn1700  1.938   .     S
O1669  Zn1712  1.926   .     S
O1670  Zn1698  1.926   .     S
O1671  Zn1703  1.938   .     S
O1672  Zn1704  1.938   .     S
O1673  Zn1701  1.926   .     S
O1674  Zn1702  1.926   .     S
O1675  Zn1279  1.926   1_655 S
O1676  Zn1706  1.926   .     S
O1677  Zn853   1.938   1_565 S
O1678  Zn1701  1.948   .     S
O1678  Zn1707  1.948   .     S
O1678  Zn1711  1.948   .     S
O1679  Zn1708  1.938   .     S
O1680  Zn1711  1.926   .     S
O1681  Zn1282  1.926   1_655 S
O1682  Zn1705  1.938   .     S
O1683  Zn841   1.938   1_565 S
O1684  Zn1278  1.938   1_655 S
O1685  Zn1707  1.938   .     S
O1686  Zn1697  1.926   .     S
O1687  Zn849   1.926   1_565 S
O1688  Zn1710  1.938   .     S
O1689  Zn1704  1.957   .     S
O1689  C597    1.275   1_565 S
O1690  Zn1283  1.938   1_655 S
O1691  Zn852   1.926   1_565 S
O1692  Zn1709  1.926   .     S
O1693  Zn1703  1.957   .     S
O1694  Zn1698  1.957   .     S
O1695  Zn1712  1.957   .     S
O1695  C1028   1.275   1_655 S
O1696  Zn1700  1.957   .     S
Zn1699 O800    1.948   1_565 S
Zn1702 O1239   1.948   1_655 S
Zn1704 O789    1.948   1_565 S
Zn1712 O1250   1.948   1_655 S
