data_str_m2_o1_o10_pcu_sym.137
_audit_creation_date              2020-01-03
_audit_creation_method            'Materials Studio'
_symmetry_space_group_name_H-M    'P1'
_symmetry_Int_Tables_number       1
_symmetry_cell_setting            triclinic
loop_
_symmetry_equiv_pos_as_xyz
  x,y,z
_cell_length_a                    26.1728
_cell_length_b                    32.6808
_cell_length_c                    28.7867
_cell_angle_alpha                 90.3636
_cell_angle_beta                  97.5784
_cell_angle_gamma                 92.5501
loop_
_atom_site_label
_atom_site_type_symbol
_atom_site_fract_x
_atom_site_fract_y
_atom_site_fract_z
_atom_site_U_iso_or_equiv
_atom_site_adp_type
_atom_site_occupancy
C1     C     0.16728   0.08744   0.16640   0.00000  Uiso   1.00
C2     C     0.16466   0.24581   0.16682   0.00000  Uiso   1.00
C3     C     0.06803   0.16669   0.15470   0.00000  Uiso   1.00
C4     C     0.26530   0.16808   0.17854   0.00000  Uiso   1.00
C5     C     0.01269   0.16543   0.14815   0.00000  Uiso   1.00
C6     C     0.32056   0.17185   0.18452   0.00000  Uiso   1.00
C7     C     0.17108   0.01998   0.12462   0.00000  Uiso   1.00
C8     C     0.15713   0.31305   0.20837   0.00000  Uiso   1.00
C9     C     0.16651   0.31107   0.12562   0.00000  Uiso   1.00
C10    C     0.15959   0.02210   0.20700   0.00000  Uiso   1.00
C11    C     0.16218   0.29039   0.16735   0.00000  Uiso   1.00
C12    C     0.16666   0.04274   0.16568   0.00000  Uiso   1.00
C13    C     0.13281   0.14144   0.02046   0.00000  Uiso   1.00
C14    C     0.20111   0.19140   0.31297   0.00000  Uiso   1.00
C15    C     0.13320   0.14099   0.30422   0.00000  Uiso   1.00
C16    C     0.20169   0.19099   0.02931   0.00000  Uiso   1.00
Cu17   Cu    0.16667   0.16667   0.21355   0.00000  Uiso   1.00
Cu18   Cu    0.16667   0.16666   0.11978   0.00000  Uiso   1.00
H19    H     0.32618   0.15786   0.11341   0.00000  Uiso   1.00
H20    H     0.00710   0.18029   0.21892   0.00000  Uiso   1.00
H21    H     0.16722   0.29439   0.09334   0.00000  Uiso   1.00
H22    H     0.15595   0.03884   0.23878   0.00000  Uiso   1.00
N23    N     0.16668   0.16668   0.28403   0.00000  Uiso   1.00
N24    N     0.16665   0.16666   0.04931   0.00000  Uiso   1.00
O25    O     0.16666   0.10655   0.20625   0.00000  Uiso   1.00
O26    O     0.16667   0.22678   0.12709   0.00000  Uiso   1.00
O27    O     0.16666   0.10654   0.12706   0.00000  Uiso   1.00
O28    O     0.16667   0.22679   0.20628   0.00000  Uiso   1.00
O29    O     0.09161   0.16667   0.19712   0.00000  Uiso   1.00
O30    O     0.24172   0.16666   0.13621   0.00000  Uiso   1.00
O31    O     0.09161   0.16666   0.11793   0.00000  Uiso   1.00
O32    O     0.24172   0.16667   0.21540   0.00000  Uiso   1.00
Cl33   Cl    0.18545   0.04133   0.07139   0.00000  Uiso   1.00
Cl34   Cl    0.14530   0.29115   0.26208   0.00000  Uiso   1.00
Cl35   Cl    0.08968   0.10749   0.04483   0.00000  Uiso   1.00
Cl36   Cl    0.24689   0.22322   0.28908   0.00000  Uiso   1.00
N37    N     0.10304   0.11058   0.27597   0.00000  Uiso   1.00
H38    H     0.11473   0.08138   0.28334   0.00000  Uiso   1.00
C39    C     0.04748   0.11309   0.27134   0.00000  Uiso   1.00
H40    H     0.03038   0.08860   0.29188   0.00000  Uiso   1.00
H41    H     0.03134   0.10789   0.23413   0.00000  Uiso   1.00
H42    H     0.03609   0.14325   0.28362   0.00000  Uiso   1.00
N43    N     0.24247   0.21209   0.05878   0.00000  Uiso   1.00
H44    H     0.27780   0.19963   0.05772   0.00000  Uiso   1.00
C45    C     0.24500   0.25641   0.05741   0.00000  Uiso   1.00
H46    H     0.27909   0.26749   0.04101   0.00000  Uiso   1.00
H47    H     0.24993   0.26870   0.09379   0.00000  Uiso   1.00
H48    H     0.20983   0.26843   0.03716   0.00000  Uiso   1.00
C49    C     0.50062   0.08744   0.16640   0.00000  Uiso   1.00
C50    C     0.49799   0.24581   0.16682   0.00000  Uiso   1.00
C51    C     0.40136   0.16669   0.15470   0.00000  Uiso   1.00
C52    C     0.59863   0.16808   0.17854   0.00000  Uiso   1.00
C53    C     0.34603   0.16543   0.14815   0.00000  Uiso   1.00
C54    C     0.65390   0.17185   0.18452   0.00000  Uiso   1.00
C55    C     0.50441   0.01998   0.12462   0.00000  Uiso   1.00
C56    C     0.49046   0.31305   0.20837   0.00000  Uiso   1.00
C57    C     0.49985   0.31107   0.12562   0.00000  Uiso   1.00
C58    C     0.49292   0.02210   0.20700   0.00000  Uiso   1.00
C59    C     0.49551   0.29039   0.16735   0.00000  Uiso   1.00
C60    C     0.49999   0.04274   0.16568   0.00000  Uiso   1.00
C61    C     0.46614   0.14144   0.02046   0.00000  Uiso   1.00
C62    C     0.53445   0.19140   0.31297   0.00000  Uiso   1.00
C63    C     0.46653   0.14099   0.30422   0.00000  Uiso   1.00
C64    C     0.53503   0.19099   0.02931   0.00000  Uiso   1.00
Cu65   Cu    0.50000   0.16667   0.21355   0.00000  Uiso   1.00
Cu66   Cu    0.50000   0.16666   0.11978   0.00000  Uiso   1.00
H67    H     0.65951   0.15786   0.11341   0.00000  Uiso   1.00
H68    H     0.34044   0.18029   0.21892   0.00000  Uiso   1.00
H69    H     0.50056   0.29439   0.09334   0.00000  Uiso   1.00
H70    H     0.48929   0.03884   0.23878   0.00000  Uiso   1.00
N71    N     0.50001   0.16668   0.28403   0.00000  Uiso   1.00
N72    N     0.49999   0.16666   0.04931   0.00000  Uiso   1.00
O73    O     0.50000   0.10655   0.20625   0.00000  Uiso   1.00
O74    O     0.50000   0.22678   0.12709   0.00000  Uiso   1.00
O75    O     0.50000   0.10654   0.12706   0.00000  Uiso   1.00
O76    O     0.50000   0.22679   0.20628   0.00000  Uiso   1.00
O77    O     0.42495   0.16667   0.19712   0.00000  Uiso   1.00
O78    O     0.57505   0.16666   0.13621   0.00000  Uiso   1.00
O79    O     0.42494   0.16666   0.11793   0.00000  Uiso   1.00
O80    O     0.57506   0.16667   0.21540   0.00000  Uiso   1.00
Cl81   Cl    0.51878   0.04133   0.07139   0.00000  Uiso   1.00
Cl82   Cl    0.47863   0.29115   0.26208   0.00000  Uiso   1.00
Cl83   Cl    0.42301   0.10749   0.04483   0.00000  Uiso   1.00
Cl84   Cl    0.58023   0.22322   0.28908   0.00000  Uiso   1.00
N85    N     0.43638   0.11058   0.27597   0.00000  Uiso   1.00
H86    H     0.44806   0.08138   0.28334   0.00000  Uiso   1.00
C87    C     0.38081   0.11309   0.27134   0.00000  Uiso   1.00
H88    H     0.36371   0.08860   0.29188   0.00000  Uiso   1.00
H89    H     0.36467   0.10789   0.23413   0.00000  Uiso   1.00
H90    H     0.36942   0.14325   0.28362   0.00000  Uiso   1.00
N91    N     0.57580   0.21209   0.05878   0.00000  Uiso   1.00
H92    H     0.61113   0.19963   0.05772   0.00000  Uiso   1.00
C93    C     0.57834   0.25641   0.05741   0.00000  Uiso   1.00
H94    H     0.61242   0.26749   0.04101   0.00000  Uiso   1.00
H95    H     0.58327   0.26870   0.09379   0.00000  Uiso   1.00
H96    H     0.54316   0.26843   0.03716   0.00000  Uiso   1.00
C97    C     0.83395   0.08744   0.16640   0.00000  Uiso   1.00
C98    C     0.83133   0.24581   0.16682   0.00000  Uiso   1.00
C99    C     0.73469   0.16669   0.15470   0.00000  Uiso   1.00
C100   C     0.93197   0.16808   0.17854   0.00000  Uiso   1.00
C101   C     0.67936   0.16543   0.14815   0.00000  Uiso   1.00
C102   C     0.98723   0.17185   0.18452   0.00000  Uiso   1.00
C103   C     0.83774   0.01998   0.12462   0.00000  Uiso   1.00
C104   C     0.82380   0.31305   0.20837   0.00000  Uiso   1.00
C105   C     0.83318   0.31107   0.12562   0.00000  Uiso   1.00
C106   C     0.82626   0.02210   0.20700   0.00000  Uiso   1.00
C107   C     0.82885   0.29039   0.16735   0.00000  Uiso   1.00
C108   C     0.83333   0.04274   0.16568   0.00000  Uiso   1.00
C109   C     0.79947   0.14144   0.02046   0.00000  Uiso   1.00
C110   C     0.86778   0.19140   0.31297   0.00000  Uiso   1.00
C111   C     0.79986   0.14099   0.30422   0.00000  Uiso   1.00
C112   C     0.86836   0.19099   0.02931   0.00000  Uiso   1.00
Cu113  Cu    0.83333   0.16667   0.21355   0.00000  Uiso   1.00
Cu114  Cu    0.83333   0.16666   0.11978   0.00000  Uiso   1.00
H115   H     0.99284   0.15786   0.11341   0.00000  Uiso   1.00
H116   H     0.67377   0.18029   0.21892   0.00000  Uiso   1.00
H117   H     0.83389   0.29439   0.09334   0.00000  Uiso   1.00
H118   H     0.82262   0.03884   0.23878   0.00000  Uiso   1.00
N119   N     0.83335   0.16668   0.28403   0.00000  Uiso   1.00
N120   N     0.83332   0.16666   0.04931   0.00000  Uiso   1.00
O121   O     0.83333   0.10655   0.20625   0.00000  Uiso   1.00
O122   O     0.83334   0.22678   0.12709   0.00000  Uiso   1.00
O123   O     0.83333   0.10654   0.12706   0.00000  Uiso   1.00
O124   O     0.83334   0.22679   0.20628   0.00000  Uiso   1.00
O125   O     0.75828   0.16667   0.19712   0.00000  Uiso   1.00
O126   O     0.90839   0.16666   0.13621   0.00000  Uiso   1.00
O127   O     0.75828   0.16666   0.11793   0.00000  Uiso   1.00
O128   O     0.90839   0.16667   0.21540   0.00000  Uiso   1.00
Cl129  Cl    0.85211   0.04133   0.07139   0.00000  Uiso   1.00
Cl130  Cl    0.81196   0.29115   0.26208   0.00000  Uiso   1.00
Cl131  Cl    0.75634   0.10749   0.04483   0.00000  Uiso   1.00
Cl132  Cl    0.91356   0.22322   0.28908   0.00000  Uiso   1.00
N133   N     0.76971   0.11058   0.27597   0.00000  Uiso   1.00
H134   H     0.78139   0.08138   0.28334   0.00000  Uiso   1.00
C135   C     0.71415   0.11309   0.27134   0.00000  Uiso   1.00
H136   H     0.69705   0.08860   0.29188   0.00000  Uiso   1.00
H137   H     0.69801   0.10789   0.23413   0.00000  Uiso   1.00
H138   H     0.70276   0.14325   0.28362   0.00000  Uiso   1.00
N139   N     0.90914   0.21209   0.05878   0.00000  Uiso   1.00
H140   H     0.94446   0.19963   0.05772   0.00000  Uiso   1.00
C141   C     0.91167   0.25641   0.05741   0.00000  Uiso   1.00
H142   H     0.94576   0.26749   0.04101   0.00000  Uiso   1.00
H143   H     0.91660   0.26870   0.09379   0.00000  Uiso   1.00
H144   H     0.87650   0.26843   0.03716   0.00000  Uiso   1.00
C145   C     0.16728   0.42078   0.16640   0.00000  Uiso   1.00
C146   C     0.16466   0.57914   0.16682   0.00000  Uiso   1.00
C147   C     0.06803   0.50002   0.15470   0.00000  Uiso   1.00
C148   C     0.26530   0.50141   0.17854   0.00000  Uiso   1.00
C149   C     0.01269   0.49876   0.14815   0.00000  Uiso   1.00
C150   C     0.32056   0.50518   0.18452   0.00000  Uiso   1.00
C151   C     0.17108   0.35332   0.12462   0.00000  Uiso   1.00
C152   C     0.15713   0.64639   0.20837   0.00000  Uiso   1.00
C153   C     0.16651   0.64441   0.12562   0.00000  Uiso   1.00
C154   C     0.15959   0.35543   0.20700   0.00000  Uiso   1.00
C155   C     0.16218   0.62373   0.16735   0.00000  Uiso   1.00
C156   C     0.16666   0.37607   0.16568   0.00000  Uiso   1.00
C157   C     0.13281   0.47477   0.02046   0.00000  Uiso   1.00
C158   C     0.20111   0.52474   0.31297   0.00000  Uiso   1.00
C159   C     0.13320   0.47433   0.30422   0.00000  Uiso   1.00
C160   C     0.20169   0.52432   0.02931   0.00000  Uiso   1.00
Cu161  Cu    0.16667   0.50001   0.21355   0.00000  Uiso   1.00
Cu162  Cu    0.16667   0.49999   0.11978   0.00000  Uiso   1.00
H163   H     0.32618   0.49119   0.11341   0.00000  Uiso   1.00
H164   H     0.00710   0.51362   0.21892   0.00000  Uiso   1.00
H165   H     0.16722   0.62772   0.09334   0.00000  Uiso   1.00
H166   H     0.15595   0.37217   0.23878   0.00000  Uiso   1.00
N167   N     0.16668   0.50001   0.28403   0.00000  Uiso   1.00
N168   N     0.16665   0.49999   0.04931   0.00000  Uiso   1.00
O169   O     0.16666   0.43989   0.20625   0.00000  Uiso   1.00
O170   O     0.16667   0.56011   0.12709   0.00000  Uiso   1.00
O171   O     0.16666   0.43988   0.12706   0.00000  Uiso   1.00
O172   O     0.16667   0.56012   0.20628   0.00000  Uiso   1.00
O173   O     0.09161   0.50000   0.19712   0.00000  Uiso   1.00
O174   O     0.24172   0.50000   0.13621   0.00000  Uiso   1.00
O175   O     0.09161   0.49999   0.11793   0.00000  Uiso   1.00
O176   O     0.24172   0.50001   0.21540   0.00000  Uiso   1.00
Cl177  Cl    0.18545   0.37466   0.07139   0.00000  Uiso   1.00
Cl178  Cl    0.14530   0.62449   0.26208   0.00000  Uiso   1.00
Cl179  Cl    0.08968   0.44083   0.04483   0.00000  Uiso   1.00
Cl180  Cl    0.24689   0.55655   0.28908   0.00000  Uiso   1.00
N181   N     0.10304   0.44392   0.27597   0.00000  Uiso   1.00
H182   H     0.11473   0.41471   0.28334   0.00000  Uiso   1.00
C183   C     0.04748   0.44642   0.27134   0.00000  Uiso   1.00
H184   H     0.03038   0.42194   0.29188   0.00000  Uiso   1.00
H185   H     0.03134   0.44122   0.23413   0.00000  Uiso   1.00
H186   H     0.03609   0.47658   0.28362   0.00000  Uiso   1.00
N187   N     0.24247   0.54542   0.05878   0.00000  Uiso   1.00
H188   H     0.27780   0.53296   0.05772   0.00000  Uiso   1.00
C189   C     0.24500   0.58975   0.05741   0.00000  Uiso   1.00
H190   H     0.27909   0.60082   0.04101   0.00000  Uiso   1.00
H191   H     0.24993   0.60203   0.09379   0.00000  Uiso   1.00
H192   H     0.20983   0.60177   0.03716   0.00000  Uiso   1.00
C193   C     0.50062   0.42078   0.16640   0.00000  Uiso   1.00
C194   C     0.49799   0.57914   0.16682   0.00000  Uiso   1.00
C195   C     0.40136   0.50002   0.15470   0.00000  Uiso   1.00
C196   C     0.59863   0.50141   0.17854   0.00000  Uiso   1.00
C197   C     0.34603   0.49876   0.14815   0.00000  Uiso   1.00
C198   C     0.65390   0.50518   0.18452   0.00000  Uiso   1.00
C199   C     0.50441   0.35332   0.12462   0.00000  Uiso   1.00
C200   C     0.49046   0.64639   0.20837   0.00000  Uiso   1.00
C201   C     0.49985   0.64441   0.12562   0.00000  Uiso   1.00
C202   C     0.49292   0.35543   0.20700   0.00000  Uiso   1.00
C203   C     0.49551   0.62373   0.16735   0.00000  Uiso   1.00
C204   C     0.49999   0.37607   0.16568   0.00000  Uiso   1.00
C205   C     0.46614   0.47477   0.02046   0.00000  Uiso   1.00
C206   C     0.53445   0.52474   0.31297   0.00000  Uiso   1.00
C207   C     0.46653   0.47433   0.30422   0.00000  Uiso   1.00
C208   C     0.53503   0.52432   0.02931   0.00000  Uiso   1.00
Cu209  Cu    0.50000   0.50001   0.21355   0.00000  Uiso   1.00
Cu210  Cu    0.50000   0.49999   0.11978   0.00000  Uiso   1.00
H211   H     0.65951   0.49119   0.11341   0.00000  Uiso   1.00
H212   H     0.34044   0.51362   0.21892   0.00000  Uiso   1.00
H213   H     0.50056   0.62772   0.09334   0.00000  Uiso   1.00
H214   H     0.48929   0.37217   0.23878   0.00000  Uiso   1.00
N215   N     0.50001   0.50001   0.28403   0.00000  Uiso   1.00
N216   N     0.49999   0.49999   0.04931   0.00000  Uiso   1.00
O217   O     0.50000   0.43989   0.20625   0.00000  Uiso   1.00
O218   O     0.50000   0.56011   0.12709   0.00000  Uiso   1.00
O219   O     0.50000   0.43988   0.12706   0.00000  Uiso   1.00
O220   O     0.50000   0.56012   0.20628   0.00000  Uiso   1.00
O221   O     0.42495   0.50000   0.19712   0.00000  Uiso   1.00
O222   O     0.57505   0.50000   0.13621   0.00000  Uiso   1.00
O223   O     0.42494   0.49999   0.11793   0.00000  Uiso   1.00
O224   O     0.57506   0.50001   0.21540   0.00000  Uiso   1.00
Cl225  Cl    0.51878   0.37466   0.07139   0.00000  Uiso   1.00
Cl226  Cl    0.47863   0.62449   0.26208   0.00000  Uiso   1.00
Cl227  Cl    0.42301   0.44083   0.04483   0.00000  Uiso   1.00
Cl228  Cl    0.58023   0.55655   0.28908   0.00000  Uiso   1.00
N229   N     0.43638   0.44392   0.27597   0.00000  Uiso   1.00
H230   H     0.44806   0.41471   0.28334   0.00000  Uiso   1.00
C231   C     0.38081   0.44642   0.27134   0.00000  Uiso   1.00
H232   H     0.36371   0.42194   0.29188   0.00000  Uiso   1.00
H233   H     0.36467   0.44122   0.23413   0.00000  Uiso   1.00
H234   H     0.36942   0.47658   0.28362   0.00000  Uiso   1.00
N235   N     0.57580   0.54542   0.05878   0.00000  Uiso   1.00
H236   H     0.61113   0.53296   0.05772   0.00000  Uiso   1.00
C237   C     0.57834   0.58975   0.05741   0.00000  Uiso   1.00
H238   H     0.61242   0.60082   0.04101   0.00000  Uiso   1.00
H239   H     0.58327   0.60203   0.09379   0.00000  Uiso   1.00
H240   H     0.54316   0.60177   0.03716   0.00000  Uiso   1.00
C241   C     0.83395   0.42078   0.16640   0.00000  Uiso   1.00
C242   C     0.83133   0.57914   0.16682   0.00000  Uiso   1.00
C243   C     0.73469   0.50002   0.15470   0.00000  Uiso   1.00
C244   C     0.93197   0.50141   0.17854   0.00000  Uiso   1.00
C245   C     0.67936   0.49876   0.14815   0.00000  Uiso   1.00
C246   C     0.98723   0.50518   0.18452   0.00000  Uiso   1.00
C247   C     0.83774   0.35332   0.12462   0.00000  Uiso   1.00
C248   C     0.82380   0.64639   0.20837   0.00000  Uiso   1.00
C249   C     0.83318   0.64441   0.12562   0.00000  Uiso   1.00
C250   C     0.82626   0.35543   0.20700   0.00000  Uiso   1.00
C251   C     0.82885   0.62373   0.16735   0.00000  Uiso   1.00
C252   C     0.83333   0.37607   0.16568   0.00000  Uiso   1.00
C253   C     0.79947   0.47477   0.02046   0.00000  Uiso   1.00
C254   C     0.86778   0.52474   0.31297   0.00000  Uiso   1.00
C255   C     0.79986   0.47433   0.30422   0.00000  Uiso   1.00
C256   C     0.86836   0.52432   0.02931   0.00000  Uiso   1.00
Cu257  Cu    0.83333   0.50001   0.21355   0.00000  Uiso   1.00
Cu258  Cu    0.83333   0.49999   0.11978   0.00000  Uiso   1.00
H259   H     0.99284   0.49119   0.11341   0.00000  Uiso   1.00
H260   H     0.67377   0.51362   0.21892   0.00000  Uiso   1.00
H261   H     0.83389   0.62772   0.09334   0.00000  Uiso   1.00
H262   H     0.82262   0.37217   0.23878   0.00000  Uiso   1.00
N263   N     0.83335   0.50001   0.28403   0.00000  Uiso   1.00
N264   N     0.83332   0.49999   0.04931   0.00000  Uiso   1.00
O265   O     0.83333   0.43989   0.20625   0.00000  Uiso   1.00
O266   O     0.83334   0.56011   0.12709   0.00000  Uiso   1.00
O267   O     0.83333   0.43988   0.12706   0.00000  Uiso   1.00
O268   O     0.83334   0.56012   0.20628   0.00000  Uiso   1.00
O269   O     0.75828   0.50000   0.19712   0.00000  Uiso   1.00
O270   O     0.90839   0.50000   0.13621   0.00000  Uiso   1.00
O271   O     0.75828   0.49999   0.11793   0.00000  Uiso   1.00
O272   O     0.90839   0.50001   0.21540   0.00000  Uiso   1.00
Cl273  Cl    0.85211   0.37466   0.07139   0.00000  Uiso   1.00
Cl274  Cl    0.81196   0.62449   0.26208   0.00000  Uiso   1.00
Cl275  Cl    0.75634   0.44083   0.04483   0.00000  Uiso   1.00
Cl276  Cl    0.91356   0.55655   0.28908   0.00000  Uiso   1.00
N277   N     0.76971   0.44392   0.27597   0.00000  Uiso   1.00
H278   H     0.78139   0.41471   0.28334   0.00000  Uiso   1.00
C279   C     0.71415   0.44642   0.27134   0.00000  Uiso   1.00
H280   H     0.69705   0.42194   0.29188   0.00000  Uiso   1.00
H281   H     0.69801   0.44122   0.23413   0.00000  Uiso   1.00
H282   H     0.70276   0.47658   0.28362   0.00000  Uiso   1.00
N283   N     0.90914   0.54542   0.05878   0.00000  Uiso   1.00
H284   H     0.94446   0.53296   0.05772   0.00000  Uiso   1.00
C285   C     0.91167   0.58975   0.05741   0.00000  Uiso   1.00
H286   H     0.94576   0.60082   0.04101   0.00000  Uiso   1.00
H287   H     0.91660   0.60203   0.09379   0.00000  Uiso   1.00
H288   H     0.87650   0.60177   0.03716   0.00000  Uiso   1.00
C289   C     0.16728   0.75411   0.16640   0.00000  Uiso   1.00
C290   C     0.16466   0.91247   0.16682   0.00000  Uiso   1.00
C291   C     0.06803   0.83335   0.15470   0.00000  Uiso   1.00
C292   C     0.26530   0.83474   0.17854   0.00000  Uiso   1.00
C293   C     0.01269   0.83210   0.14815   0.00000  Uiso   1.00
C294   C     0.32056   0.83851   0.18452   0.00000  Uiso   1.00
C295   C     0.17108   0.68665   0.12462   0.00000  Uiso   1.00
C296   C     0.15713   0.97972   0.20837   0.00000  Uiso   1.00
C297   C     0.16651   0.97774   0.12562   0.00000  Uiso   1.00
C298   C     0.15959   0.68876   0.20700   0.00000  Uiso   1.00
C299   C     0.16218   0.95706   0.16735   0.00000  Uiso   1.00
C300   C     0.16666   0.70941   0.16568   0.00000  Uiso   1.00
C301   C     0.13281   0.80811   0.02046   0.00000  Uiso   1.00
C302   C     0.20111   0.85807   0.31297   0.00000  Uiso   1.00
C303   C     0.13320   0.80766   0.30422   0.00000  Uiso   1.00
C304   C     0.20169   0.85765   0.02931   0.00000  Uiso   1.00
Cu305  Cu    0.16667   0.83334   0.21355   0.00000  Uiso   1.00
Cu306  Cu    0.16667   0.83333   0.11978   0.00000  Uiso   1.00
H307   H     0.32618   0.82453   0.11341   0.00000  Uiso   1.00
H308   H     0.00710   0.84696   0.21892   0.00000  Uiso   1.00
H309   H     0.16722   0.96106   0.09334   0.00000  Uiso   1.00
H310   H     0.15595   0.70551   0.23878   0.00000  Uiso   1.00
N311   N     0.16668   0.83334   0.28403   0.00000  Uiso   1.00
N312   N     0.16665   0.83332   0.04931   0.00000  Uiso   1.00
O313   O     0.16666   0.77322   0.20625   0.00000  Uiso   1.00
O314   O     0.16667   0.89345   0.12709   0.00000  Uiso   1.00
O315   O     0.16666   0.77321   0.12706   0.00000  Uiso   1.00
O316   O     0.16667   0.89346   0.20628   0.00000  Uiso   1.00
O317   O     0.09161   0.83334   0.19712   0.00000  Uiso   1.00
O318   O     0.24172   0.83333   0.13621   0.00000  Uiso   1.00
O319   O     0.09161   0.83333   0.11793   0.00000  Uiso   1.00
O320   O     0.24172   0.83334   0.21540   0.00000  Uiso   1.00
Cl321  Cl    0.18545   0.70799   0.07139   0.00000  Uiso   1.00
Cl322  Cl    0.14530   0.95782   0.26208   0.00000  Uiso   1.00
Cl323  Cl    0.08968   0.77416   0.04483   0.00000  Uiso   1.00
Cl324  Cl    0.24689   0.88989   0.28908   0.00000  Uiso   1.00
N325   N     0.10304   0.77725   0.27597   0.00000  Uiso   1.00
H326   H     0.11473   0.74805   0.28334   0.00000  Uiso   1.00
C327   C     0.04748   0.77975   0.27134   0.00000  Uiso   1.00
H328   H     0.03038   0.75527   0.29188   0.00000  Uiso   1.00
H329   H     0.03134   0.77456   0.23413   0.00000  Uiso   1.00
H330   H     0.03609   0.80992   0.28362   0.00000  Uiso   1.00
N331   N     0.24247   0.87876   0.05878   0.00000  Uiso   1.00
H332   H     0.27780   0.86629   0.05772   0.00000  Uiso   1.00
C333   C     0.24500   0.92308   0.05741   0.00000  Uiso   1.00
H334   H     0.27909   0.93416   0.04101   0.00000  Uiso   1.00
H335   H     0.24993   0.93537   0.09379   0.00000  Uiso   1.00
H336   H     0.20983   0.93510   0.03716   0.00000  Uiso   1.00
C337   C     0.50062   0.75411   0.16640   0.00000  Uiso   1.00
C338   C     0.49799   0.91247   0.16682   0.00000  Uiso   1.00
C339   C     0.40136   0.83335   0.15470   0.00000  Uiso   1.00
C340   C     0.59863   0.83474   0.17854   0.00000  Uiso   1.00
C341   C     0.34603   0.83210   0.14815   0.00000  Uiso   1.00
C342   C     0.65390   0.83851   0.18452   0.00000  Uiso   1.00
C343   C     0.50441   0.68665   0.12462   0.00000  Uiso   1.00
C344   C     0.49046   0.97972   0.20837   0.00000  Uiso   1.00
C345   C     0.49985   0.97774   0.12562   0.00000  Uiso   1.00
C346   C     0.49292   0.68876   0.20700   0.00000  Uiso   1.00
C347   C     0.49551   0.95706   0.16735   0.00000  Uiso   1.00
C348   C     0.49999   0.70941   0.16568   0.00000  Uiso   1.00
C349   C     0.46614   0.80811   0.02046   0.00000  Uiso   1.00
C350   C     0.53445   0.85807   0.31297   0.00000  Uiso   1.00
C351   C     0.46653   0.80766   0.30422   0.00000  Uiso   1.00
C352   C     0.53503   0.85765   0.02931   0.00000  Uiso   1.00
Cu353  Cu    0.50000   0.83334   0.21355   0.00000  Uiso   1.00
Cu354  Cu    0.50000   0.83333   0.11978   0.00000  Uiso   1.00
H355   H     0.65951   0.82453   0.11341   0.00000  Uiso   1.00
H356   H     0.34044   0.84696   0.21892   0.00000  Uiso   1.00
H357   H     0.50056   0.96106   0.09334   0.00000  Uiso   1.00
H358   H     0.48929   0.70551   0.23878   0.00000  Uiso   1.00
N359   N     0.50001   0.83334   0.28403   0.00000  Uiso   1.00
N360   N     0.49999   0.83332   0.04931   0.00000  Uiso   1.00
O361   O     0.50000   0.77322   0.20625   0.00000  Uiso   1.00
O362   O     0.50000   0.89345   0.12709   0.00000  Uiso   1.00
O363   O     0.50000   0.77321   0.12706   0.00000  Uiso   1.00
O364   O     0.50000   0.89346   0.20628   0.00000  Uiso   1.00
O365   O     0.42495   0.83334   0.19712   0.00000  Uiso   1.00
O366   O     0.57505   0.83333   0.13621   0.00000  Uiso   1.00
O367   O     0.42494   0.83333   0.11793   0.00000  Uiso   1.00
O368   O     0.57506   0.83334   0.21540   0.00000  Uiso   1.00
Cl369  Cl    0.51878   0.70799   0.07139   0.00000  Uiso   1.00
Cl370  Cl    0.47863   0.95782   0.26208   0.00000  Uiso   1.00
Cl371  Cl    0.42301   0.77416   0.04483   0.00000  Uiso   1.00
Cl372  Cl    0.58023   0.88989   0.28908   0.00000  Uiso   1.00
N373   N     0.43638   0.77725   0.27597   0.00000  Uiso   1.00
H374   H     0.44806   0.74805   0.28334   0.00000  Uiso   1.00
C375   C     0.38081   0.77975   0.27134   0.00000  Uiso   1.00
H376   H     0.36371   0.75527   0.29188   0.00000  Uiso   1.00
H377   H     0.36467   0.77456   0.23413   0.00000  Uiso   1.00
H378   H     0.36942   0.80992   0.28362   0.00000  Uiso   1.00
N379   N     0.57580   0.87876   0.05878   0.00000  Uiso   1.00
H380   H     0.61113   0.86629   0.05772   0.00000  Uiso   1.00
C381   C     0.57834   0.92308   0.05741   0.00000  Uiso   1.00
H382   H     0.61242   0.93416   0.04101   0.00000  Uiso   1.00
H383   H     0.58327   0.93537   0.09379   0.00000  Uiso   1.00
H384   H     0.54316   0.93510   0.03716   0.00000  Uiso   1.00
C385   C     0.83395   0.75411   0.16640   0.00000  Uiso   1.00
C386   C     0.83133   0.91247   0.16682   0.00000  Uiso   1.00
C387   C     0.73469   0.83335   0.15470   0.00000  Uiso   1.00
C388   C     0.93197   0.83474   0.17854   0.00000  Uiso   1.00
C389   C     0.67936   0.83210   0.14815   0.00000  Uiso   1.00
C390   C     0.98723   0.83851   0.18452   0.00000  Uiso   1.00
C391   C     0.83774   0.68665   0.12462   0.00000  Uiso   1.00
C392   C     0.82380   0.97972   0.20837   0.00000  Uiso   1.00
C393   C     0.83318   0.97774   0.12562   0.00000  Uiso   1.00
C394   C     0.82626   0.68876   0.20700   0.00000  Uiso   1.00
C395   C     0.82885   0.95706   0.16735   0.00000  Uiso   1.00
C396   C     0.83333   0.70941   0.16568   0.00000  Uiso   1.00
C397   C     0.79947   0.80811   0.02046   0.00000  Uiso   1.00
C398   C     0.86778   0.85807   0.31297   0.00000  Uiso   1.00
C399   C     0.79986   0.80766   0.30422   0.00000  Uiso   1.00
C400   C     0.86836   0.85765   0.02931   0.00000  Uiso   1.00
Cu401  Cu    0.83333   0.83334   0.21355   0.00000  Uiso   1.00
Cu402  Cu    0.83333   0.83333   0.11978   0.00000  Uiso   1.00
H403   H     0.99284   0.82453   0.11341   0.00000  Uiso   1.00
H404   H     0.67377   0.84696   0.21892   0.00000  Uiso   1.00
H405   H     0.83389   0.96106   0.09334   0.00000  Uiso   1.00
H406   H     0.82262   0.70551   0.23878   0.00000  Uiso   1.00
N407   N     0.83335   0.83334   0.28403   0.00000  Uiso   1.00
N408   N     0.83332   0.83332   0.04931   0.00000  Uiso   1.00
O409   O     0.83333   0.77322   0.20625   0.00000  Uiso   1.00
O410   O     0.83334   0.89345   0.12709   0.00000  Uiso   1.00
O411   O     0.83333   0.77321   0.12706   0.00000  Uiso   1.00
O412   O     0.83334   0.89346   0.20628   0.00000  Uiso   1.00
O413   O     0.75828   0.83334   0.19712   0.00000  Uiso   1.00
O414   O     0.90839   0.83333   0.13621   0.00000  Uiso   1.00
O415   O     0.75828   0.83333   0.11793   0.00000  Uiso   1.00
O416   O     0.90839   0.83334   0.21540   0.00000  Uiso   1.00
Cl417  Cl    0.85211   0.70799   0.07139   0.00000  Uiso   1.00
Cl418  Cl    0.81196   0.95782   0.26208   0.00000  Uiso   1.00
Cl419  Cl    0.75634   0.77416   0.04483   0.00000  Uiso   1.00
Cl420  Cl    0.91356   0.88989   0.28908   0.00000  Uiso   1.00
N421   N     0.76971   0.77725   0.27597   0.00000  Uiso   1.00
H422   H     0.78139   0.74805   0.28334   0.00000  Uiso   1.00
C423   C     0.71415   0.77975   0.27134   0.00000  Uiso   1.00
H424   H     0.69705   0.75527   0.29188   0.00000  Uiso   1.00
H425   H     0.69801   0.77456   0.23413   0.00000  Uiso   1.00
H426   H     0.70276   0.80992   0.28362   0.00000  Uiso   1.00
N427   N     0.90914   0.87876   0.05878   0.00000  Uiso   1.00
H428   H     0.94446   0.86629   0.05772   0.00000  Uiso   1.00
C429   C     0.91167   0.92308   0.05741   0.00000  Uiso   1.00
H430   H     0.94576   0.93416   0.04101   0.00000  Uiso   1.00
H431   H     0.91660   0.93537   0.09379   0.00000  Uiso   1.00
H432   H     0.87650   0.93510   0.03716   0.00000  Uiso   1.00
C433   C     0.16728   0.08744   0.49974   0.00000  Uiso   1.00
C434   C     0.16466   0.24581   0.50015   0.00000  Uiso   1.00
C435   C     0.06803   0.16669   0.48803   0.00000  Uiso   1.00
C436   C     0.26530   0.16808   0.51187   0.00000  Uiso   1.00
C437   C     0.01269   0.16543   0.48148   0.00000  Uiso   1.00
C438   C     0.32056   0.17185   0.51785   0.00000  Uiso   1.00
C439   C     0.17108   0.01998   0.45795   0.00000  Uiso   1.00
C440   C     0.15713   0.31305   0.54170   0.00000  Uiso   1.00
C441   C     0.16651   0.31107   0.45895   0.00000  Uiso   1.00
C442   C     0.15959   0.02210   0.54034   0.00000  Uiso   1.00
C443   C     0.16218   0.29039   0.50068   0.00000  Uiso   1.00
C444   C     0.16666   0.04274   0.49901   0.00000  Uiso   1.00
C445   C     0.13281   0.14144   0.35380   0.00000  Uiso   1.00
C446   C     0.20111   0.19140   0.64630   0.00000  Uiso   1.00
C447   C     0.13320   0.14099   0.63755   0.00000  Uiso   1.00
C448   C     0.20169   0.19099   0.36265   0.00000  Uiso   1.00
Cu449  Cu    0.16667   0.16667   0.54689   0.00000  Uiso   1.00
Cu450  Cu    0.16667   0.16666   0.45311   0.00000  Uiso   1.00
H451   H     0.32618   0.15786   0.44674   0.00000  Uiso   1.00
H452   H     0.00710   0.18029   0.55225   0.00000  Uiso   1.00
H453   H     0.16722   0.29439   0.42667   0.00000  Uiso   1.00
H454   H     0.15595   0.03884   0.57211   0.00000  Uiso   1.00
N455   N     0.16668   0.16668   0.61736   0.00000  Uiso   1.00
N456   N     0.16665   0.16666   0.38264   0.00000  Uiso   1.00
O457   O     0.16666   0.10655   0.53958   0.00000  Uiso   1.00
O458   O     0.16667   0.22678   0.46042   0.00000  Uiso   1.00
O459   O     0.16666   0.10654   0.46039   0.00000  Uiso   1.00
O460   O     0.16667   0.22679   0.53961   0.00000  Uiso   1.00
O461   O     0.09161   0.16667   0.53046   0.00000  Uiso   1.00
O462   O     0.24172   0.16666   0.46954   0.00000  Uiso   1.00
O463   O     0.09161   0.16666   0.45127   0.00000  Uiso   1.00
O464   O     0.24172   0.16667   0.54873   0.00000  Uiso   1.00
Cl465  Cl    0.18545   0.04133   0.40472   0.00000  Uiso   1.00
Cl466  Cl    0.14530   0.29115   0.59541   0.00000  Uiso   1.00
Cl467  Cl    0.08968   0.10749   0.37817   0.00000  Uiso   1.00
Cl468  Cl    0.24689   0.22322   0.62241   0.00000  Uiso   1.00
N469   N     0.10304   0.11058   0.60930   0.00000  Uiso   1.00
H470   H     0.11473   0.08138   0.61668   0.00000  Uiso   1.00
C471   C     0.04748   0.11309   0.60468   0.00000  Uiso   1.00
H472   H     0.03038   0.08860   0.62521   0.00000  Uiso   1.00
H473   H     0.03134   0.10789   0.56746   0.00000  Uiso   1.00
H474   H     0.03609   0.14325   0.61696   0.00000  Uiso   1.00
N475   N     0.24247   0.21209   0.39212   0.00000  Uiso   1.00
H476   H     0.27780   0.19963   0.39106   0.00000  Uiso   1.00
C477   C     0.24500   0.25641   0.39075   0.00000  Uiso   1.00
H478   H     0.27909   0.26749   0.37434   0.00000  Uiso   1.00
H479   H     0.24993   0.26870   0.42712   0.00000  Uiso   1.00
H480   H     0.20983   0.26843   0.37049   0.00000  Uiso   1.00
C481   C     0.50062   0.08744   0.49974   0.00000  Uiso   1.00
C482   C     0.49799   0.24581   0.50015   0.00000  Uiso   1.00
C483   C     0.40136   0.16669   0.48803   0.00000  Uiso   1.00
C484   C     0.59863   0.16808   0.51187   0.00000  Uiso   1.00
C485   C     0.34603   0.16543   0.48148   0.00000  Uiso   1.00
C486   C     0.65390   0.17185   0.51785   0.00000  Uiso   1.00
C487   C     0.50441   0.01998   0.45795   0.00000  Uiso   1.00
C488   C     0.49046   0.31305   0.54170   0.00000  Uiso   1.00
C489   C     0.49985   0.31107   0.45895   0.00000  Uiso   1.00
C490   C     0.49292   0.02210   0.54034   0.00000  Uiso   1.00
C491   C     0.49551   0.29039   0.50068   0.00000  Uiso   1.00
C492   C     0.49999   0.04274   0.49901   0.00000  Uiso   1.00
C493   C     0.46614   0.14144   0.35380   0.00000  Uiso   1.00
C494   C     0.53445   0.19140   0.64630   0.00000  Uiso   1.00
C495   C     0.46653   0.14099   0.63755   0.00000  Uiso   1.00
C496   C     0.53503   0.19099   0.36265   0.00000  Uiso   1.00
Cu497  Cu    0.50000   0.16667   0.54689   0.00000  Uiso   1.00
Cu498  Cu    0.50000   0.16666   0.45311   0.00000  Uiso   1.00
H499   H     0.65951   0.15786   0.44674   0.00000  Uiso   1.00
H500   H     0.34044   0.18029   0.55225   0.00000  Uiso   1.00
H501   H     0.50056   0.29439   0.42667   0.00000  Uiso   1.00
H502   H     0.48929   0.03884   0.57211   0.00000  Uiso   1.00
N503   N     0.50001   0.16668   0.61736   0.00000  Uiso   1.00
N504   N     0.49999   0.16666   0.38264   0.00000  Uiso   1.00
O505   O     0.50000   0.10655   0.53958   0.00000  Uiso   1.00
O506   O     0.50000   0.22678   0.46042   0.00000  Uiso   1.00
O507   O     0.50000   0.10654   0.46039   0.00000  Uiso   1.00
O508   O     0.50000   0.22679   0.53961   0.00000  Uiso   1.00
O509   O     0.42495   0.16667   0.53046   0.00000  Uiso   1.00
O510   O     0.57505   0.16666   0.46954   0.00000  Uiso   1.00
O511   O     0.42494   0.16666   0.45127   0.00000  Uiso   1.00
O512   O     0.57506   0.16667   0.54873   0.00000  Uiso   1.00
Cl513  Cl    0.51878   0.04133   0.40472   0.00000  Uiso   1.00
Cl514  Cl    0.47863   0.29115   0.59541   0.00000  Uiso   1.00
Cl515  Cl    0.42301   0.10749   0.37817   0.00000  Uiso   1.00
Cl516  Cl    0.58023   0.22322   0.62241   0.00000  Uiso   1.00
N517   N     0.43638   0.11058   0.60930   0.00000  Uiso   1.00
H518   H     0.44806   0.08138   0.61668   0.00000  Uiso   1.00
C519   C     0.38081   0.11309   0.60468   0.00000  Uiso   1.00
H520   H     0.36371   0.08860   0.62521   0.00000  Uiso   1.00
H521   H     0.36467   0.10789   0.56746   0.00000  Uiso   1.00
H522   H     0.36942   0.14325   0.61696   0.00000  Uiso   1.00
N523   N     0.57580   0.21209   0.39212   0.00000  Uiso   1.00
H524   H     0.61113   0.19963   0.39106   0.00000  Uiso   1.00
C525   C     0.57834   0.25641   0.39075   0.00000  Uiso   1.00
H526   H     0.61242   0.26749   0.37434   0.00000  Uiso   1.00
H527   H     0.58327   0.26870   0.42712   0.00000  Uiso   1.00
H528   H     0.54316   0.26843   0.37049   0.00000  Uiso   1.00
C529   C     0.83395   0.08744   0.49974   0.00000  Uiso   1.00
C530   C     0.83133   0.24581   0.50015   0.00000  Uiso   1.00
C531   C     0.73469   0.16669   0.48803   0.00000  Uiso   1.00
C532   C     0.93197   0.16808   0.51187   0.00000  Uiso   1.00
C533   C     0.67936   0.16543   0.48148   0.00000  Uiso   1.00
C534   C     0.98723   0.17185   0.51785   0.00000  Uiso   1.00
C535   C     0.83774   0.01998   0.45795   0.00000  Uiso   1.00
C536   C     0.82380   0.31305   0.54170   0.00000  Uiso   1.00
C537   C     0.83318   0.31107   0.45895   0.00000  Uiso   1.00
C538   C     0.82626   0.02210   0.54034   0.00000  Uiso   1.00
C539   C     0.82885   0.29039   0.50068   0.00000  Uiso   1.00
C540   C     0.83333   0.04274   0.49901   0.00000  Uiso   1.00
C541   C     0.79947   0.14144   0.35380   0.00000  Uiso   1.00
C542   C     0.86778   0.19140   0.64630   0.00000  Uiso   1.00
C543   C     0.79986   0.14099   0.63755   0.00000  Uiso   1.00
C544   C     0.86836   0.19099   0.36265   0.00000  Uiso   1.00
Cu545  Cu    0.83333   0.16667   0.54689   0.00000  Uiso   1.00
Cu546  Cu    0.83333   0.16666   0.45311   0.00000  Uiso   1.00
H547   H     0.99284   0.15786   0.44674   0.00000  Uiso   1.00
H548   H     0.67377   0.18029   0.55225   0.00000  Uiso   1.00
H549   H     0.83389   0.29439   0.42667   0.00000  Uiso   1.00
H550   H     0.82262   0.03884   0.57211   0.00000  Uiso   1.00
N551   N     0.83335   0.16668   0.61736   0.00000  Uiso   1.00
N552   N     0.83332   0.16666   0.38264   0.00000  Uiso   1.00
O553   O     0.83333   0.10655   0.53958   0.00000  Uiso   1.00
O554   O     0.83334   0.22678   0.46042   0.00000  Uiso   1.00
O555   O     0.83333   0.10654   0.46039   0.00000  Uiso   1.00
O556   O     0.83334   0.22679   0.53961   0.00000  Uiso   1.00
O557   O     0.75828   0.16667   0.53046   0.00000  Uiso   1.00
O558   O     0.90839   0.16666   0.46954   0.00000  Uiso   1.00
O559   O     0.75828   0.16666   0.45127   0.00000  Uiso   1.00
O560   O     0.90839   0.16667   0.54873   0.00000  Uiso   1.00
Cl561  Cl    0.85211   0.04133   0.40472   0.00000  Uiso   1.00
Cl562  Cl    0.81196   0.29115   0.59541   0.00000  Uiso   1.00
Cl563  Cl    0.75634   0.10749   0.37817   0.00000  Uiso   1.00
Cl564  Cl    0.91356   0.22322   0.62241   0.00000  Uiso   1.00
N565   N     0.76971   0.11058   0.60930   0.00000  Uiso   1.00
H566   H     0.78139   0.08138   0.61668   0.00000  Uiso   1.00
C567   C     0.71415   0.11309   0.60468   0.00000  Uiso   1.00
H568   H     0.69705   0.08860   0.62521   0.00000  Uiso   1.00
H569   H     0.69801   0.10789   0.56746   0.00000  Uiso   1.00
H570   H     0.70276   0.14325   0.61696   0.00000  Uiso   1.00
N571   N     0.90914   0.21209   0.39212   0.00000  Uiso   1.00
H572   H     0.94446   0.19963   0.39106   0.00000  Uiso   1.00
C573   C     0.91167   0.25641   0.39075   0.00000  Uiso   1.00
H574   H     0.94576   0.26749   0.37434   0.00000  Uiso   1.00
H575   H     0.91660   0.26870   0.42712   0.00000  Uiso   1.00
H576   H     0.87650   0.26843   0.37049   0.00000  Uiso   1.00
C577   C     0.16728   0.42078   0.49974   0.00000  Uiso   1.00
C578   C     0.16466   0.57914   0.50015   0.00000  Uiso   1.00
C579   C     0.06803   0.50002   0.48803   0.00000  Uiso   1.00
C580   C     0.26530   0.50141   0.51187   0.00000  Uiso   1.00
C581   C     0.01269   0.49876   0.48148   0.00000  Uiso   1.00
C582   C     0.32056   0.50518   0.51785   0.00000  Uiso   1.00
C583   C     0.17108   0.35332   0.45795   0.00000  Uiso   1.00
C584   C     0.15713   0.64639   0.54170   0.00000  Uiso   1.00
C585   C     0.16651   0.64441   0.45895   0.00000  Uiso   1.00
C586   C     0.15959   0.35543   0.54034   0.00000  Uiso   1.00
C587   C     0.16218   0.62373   0.50068   0.00000  Uiso   1.00
C588   C     0.16666   0.37607   0.49901   0.00000  Uiso   1.00
C589   C     0.13281   0.47477   0.35380   0.00000  Uiso   1.00
C590   C     0.20111   0.52474   0.64630   0.00000  Uiso   1.00
C591   C     0.13320   0.47433   0.63755   0.00000  Uiso   1.00
C592   C     0.20169   0.52432   0.36265   0.00000  Uiso   1.00
Cu593  Cu    0.16667   0.50001   0.54689   0.00000  Uiso   1.00
Cu594  Cu    0.16667   0.49999   0.45311   0.00000  Uiso   1.00
H595   H     0.32618   0.49119   0.44674   0.00000  Uiso   1.00
H596   H     0.00710   0.51362   0.55225   0.00000  Uiso   1.00
H597   H     0.16722   0.62772   0.42667   0.00000  Uiso   1.00
H598   H     0.15595   0.37217   0.57211   0.00000  Uiso   1.00
N599   N     0.16668   0.50001   0.61736   0.00000  Uiso   1.00
N600   N     0.16665   0.49999   0.38264   0.00000  Uiso   1.00
O601   O     0.16666   0.43989   0.53958   0.00000  Uiso   1.00
O602   O     0.16667   0.56011   0.46042   0.00000  Uiso   1.00
O603   O     0.16666   0.43988   0.46039   0.00000  Uiso   1.00
O604   O     0.16667   0.56012   0.53961   0.00000  Uiso   1.00
O605   O     0.09161   0.50000   0.53046   0.00000  Uiso   1.00
O606   O     0.24172   0.50000   0.46954   0.00000  Uiso   1.00
O607   O     0.09161   0.49999   0.45127   0.00000  Uiso   1.00
O608   O     0.24172   0.50001   0.54873   0.00000  Uiso   1.00
Cl609  Cl    0.18545   0.37466   0.40472   0.00000  Uiso   1.00
Cl610  Cl    0.14530   0.62449   0.59541   0.00000  Uiso   1.00
Cl611  Cl    0.08968   0.44083   0.37817   0.00000  Uiso   1.00
Cl612  Cl    0.24689   0.55655   0.62241   0.00000  Uiso   1.00
N613   N     0.10304   0.44392   0.60930   0.00000  Uiso   1.00
H614   H     0.11473   0.41471   0.61668   0.00000  Uiso   1.00
C615   C     0.04748   0.44642   0.60468   0.00000  Uiso   1.00
H616   H     0.03038   0.42194   0.62521   0.00000  Uiso   1.00
H617   H     0.03134   0.44122   0.56746   0.00000  Uiso   1.00
H618   H     0.03609   0.47658   0.61696   0.00000  Uiso   1.00
N619   N     0.24247   0.54542   0.39212   0.00000  Uiso   1.00
H620   H     0.27780   0.53296   0.39106   0.00000  Uiso   1.00
C621   C     0.24500   0.58975   0.39075   0.00000  Uiso   1.00
H622   H     0.27909   0.60082   0.37434   0.00000  Uiso   1.00
H623   H     0.24993   0.60203   0.42712   0.00000  Uiso   1.00
H624   H     0.20983   0.60177   0.37049   0.00000  Uiso   1.00
C625   C     0.50062   0.42078   0.49974   0.00000  Uiso   1.00
C626   C     0.49799   0.57914   0.50015   0.00000  Uiso   1.00
C627   C     0.40136   0.50002   0.48803   0.00000  Uiso   1.00
C628   C     0.59863   0.50141   0.51187   0.00000  Uiso   1.00
C629   C     0.34603   0.49876   0.48148   0.00000  Uiso   1.00
C630   C     0.65390   0.50518   0.51785   0.00000  Uiso   1.00
C631   C     0.50441   0.35332   0.45795   0.00000  Uiso   1.00
C632   C     0.49046   0.64639   0.54170   0.00000  Uiso   1.00
C633   C     0.49985   0.64441   0.45895   0.00000  Uiso   1.00
C634   C     0.49292   0.35543   0.54034   0.00000  Uiso   1.00
C635   C     0.49551   0.62373   0.50068   0.00000  Uiso   1.00
C636   C     0.49999   0.37607   0.49901   0.00000  Uiso   1.00
C637   C     0.46614   0.47477   0.35380   0.00000  Uiso   1.00
C638   C     0.53445   0.52474   0.64630   0.00000  Uiso   1.00
C639   C     0.46653   0.47433   0.63755   0.00000  Uiso   1.00
C640   C     0.53503   0.52432   0.36265   0.00000  Uiso   1.00
Cu641  Cu    0.50000   0.50001   0.54689   0.00000  Uiso   1.00
Cu642  Cu    0.50000   0.49999   0.45311   0.00000  Uiso   1.00
H643   H     0.65951   0.49119   0.44674   0.00000  Uiso   1.00
H644   H     0.34044   0.51362   0.55225   0.00000  Uiso   1.00
H645   H     0.50056   0.62772   0.42667   0.00000  Uiso   1.00
H646   H     0.48929   0.37217   0.57211   0.00000  Uiso   1.00
N647   N     0.50001   0.50001   0.61736   0.00000  Uiso   1.00
N648   N     0.49999   0.49999   0.38264   0.00000  Uiso   1.00
O649   O     0.50000   0.43989   0.53958   0.00000  Uiso   1.00
O650   O     0.50000   0.56011   0.46042   0.00000  Uiso   1.00
O651   O     0.50000   0.43988   0.46039   0.00000  Uiso   1.00
O652   O     0.50000   0.56012   0.53961   0.00000  Uiso   1.00
O653   O     0.42495   0.50000   0.53046   0.00000  Uiso   1.00
O654   O     0.57505   0.50000   0.46954   0.00000  Uiso   1.00
O655   O     0.42494   0.49999   0.45127   0.00000  Uiso   1.00
O656   O     0.57506   0.50001   0.54873   0.00000  Uiso   1.00
Cl657  Cl    0.51878   0.37466   0.40472   0.00000  Uiso   1.00
Cl658  Cl    0.47863   0.62449   0.59541   0.00000  Uiso   1.00
Cl659  Cl    0.42301   0.44083   0.37817   0.00000  Uiso   1.00
Cl660  Cl    0.58023   0.55655   0.62241   0.00000  Uiso   1.00
N661   N     0.43638   0.44392   0.60930   0.00000  Uiso   1.00
H662   H     0.44806   0.41471   0.61668   0.00000  Uiso   1.00
C663   C     0.38081   0.44642   0.60468   0.00000  Uiso   1.00
H664   H     0.36371   0.42194   0.62521   0.00000  Uiso   1.00
H665   H     0.36467   0.44122   0.56746   0.00000  Uiso   1.00
H666   H     0.36942   0.47658   0.61696   0.00000  Uiso   1.00
N667   N     0.57580   0.54542   0.39212   0.00000  Uiso   1.00
H668   H     0.61113   0.53296   0.39106   0.00000  Uiso   1.00
C669   C     0.57834   0.58975   0.39075   0.00000  Uiso   1.00
H670   H     0.61242   0.60082   0.37434   0.00000  Uiso   1.00
H671   H     0.58327   0.60203   0.42712   0.00000  Uiso   1.00
H672   H     0.54316   0.60177   0.37049   0.00000  Uiso   1.00
C673   C     0.83395   0.42078   0.49974   0.00000  Uiso   1.00
C674   C     0.83133   0.57914   0.50015   0.00000  Uiso   1.00
C675   C     0.73469   0.50002   0.48803   0.00000  Uiso   1.00
C676   C     0.93197   0.50141   0.51187   0.00000  Uiso   1.00
C677   C     0.67936   0.49876   0.48148   0.00000  Uiso   1.00
C678   C     0.98723   0.50518   0.51785   0.00000  Uiso   1.00
C679   C     0.83774   0.35332   0.45795   0.00000  Uiso   1.00
C680   C     0.82380   0.64639   0.54170   0.00000  Uiso   1.00
C681   C     0.83318   0.64441   0.45895   0.00000  Uiso   1.00
C682   C     0.82626   0.35543   0.54034   0.00000  Uiso   1.00
C683   C     0.82885   0.62373   0.50068   0.00000  Uiso   1.00
C684   C     0.83333   0.37607   0.49901   0.00000  Uiso   1.00
C685   C     0.79947   0.47477   0.35380   0.00000  Uiso   1.00
C686   C     0.86778   0.52474   0.64630   0.00000  Uiso   1.00
C687   C     0.79986   0.47433   0.63755   0.00000  Uiso   1.00
C688   C     0.86836   0.52432   0.36265   0.00000  Uiso   1.00
Cu689  Cu    0.83333   0.50001   0.54689   0.00000  Uiso   1.00
Cu690  Cu    0.83333   0.49999   0.45311   0.00000  Uiso   1.00
H691   H     0.99284   0.49119   0.44674   0.00000  Uiso   1.00
H692   H     0.67377   0.51362   0.55225   0.00000  Uiso   1.00
H693   H     0.83389   0.62772   0.42667   0.00000  Uiso   1.00
H694   H     0.82262   0.37217   0.57211   0.00000  Uiso   1.00
N695   N     0.83335   0.50001   0.61736   0.00000  Uiso   1.00
N696   N     0.83332   0.49999   0.38264   0.00000  Uiso   1.00
O697   O     0.83333   0.43989   0.53958   0.00000  Uiso   1.00
O698   O     0.83334   0.56011   0.46042   0.00000  Uiso   1.00
O699   O     0.83333   0.43988   0.46039   0.00000  Uiso   1.00
O700   O     0.83334   0.56012   0.53961   0.00000  Uiso   1.00
O701   O     0.75828   0.50000   0.53046   0.00000  Uiso   1.00
O702   O     0.90839   0.50000   0.46954   0.00000  Uiso   1.00
O703   O     0.75828   0.49999   0.45127   0.00000  Uiso   1.00
O704   O     0.90839   0.50001   0.54873   0.00000  Uiso   1.00
Cl705  Cl    0.85211   0.37466   0.40472   0.00000  Uiso   1.00
Cl706  Cl    0.81196   0.62449   0.59541   0.00000  Uiso   1.00
Cl707  Cl    0.75634   0.44083   0.37817   0.00000  Uiso   1.00
Cl708  Cl    0.91356   0.55655   0.62241   0.00000  Uiso   1.00
N709   N     0.76971   0.44392   0.60930   0.00000  Uiso   1.00
H710   H     0.78139   0.41471   0.61668   0.00000  Uiso   1.00
C711   C     0.71415   0.44642   0.60468   0.00000  Uiso   1.00
H712   H     0.69705   0.42194   0.62521   0.00000  Uiso   1.00
H713   H     0.69801   0.44122   0.56746   0.00000  Uiso   1.00
H714   H     0.70276   0.47658   0.61696   0.00000  Uiso   1.00
N715   N     0.90914   0.54542   0.39212   0.00000  Uiso   1.00
H716   H     0.94446   0.53296   0.39106   0.00000  Uiso   1.00
C717   C     0.91167   0.58975   0.39075   0.00000  Uiso   1.00
H718   H     0.94576   0.60082   0.37434   0.00000  Uiso   1.00
H719   H     0.91660   0.60203   0.42712   0.00000  Uiso   1.00
H720   H     0.87650   0.60177   0.37049   0.00000  Uiso   1.00
C721   C     0.16728   0.75411   0.49974   0.00000  Uiso   1.00
C722   C     0.16466   0.91247   0.50015   0.00000  Uiso   1.00
C723   C     0.06803   0.83335   0.48803   0.00000  Uiso   1.00
C724   C     0.26530   0.83474   0.51187   0.00000  Uiso   1.00
C725   C     0.01269   0.83210   0.48148   0.00000  Uiso   1.00
C726   C     0.32056   0.83851   0.51785   0.00000  Uiso   1.00
C727   C     0.17108   0.68665   0.45795   0.00000  Uiso   1.00
C728   C     0.15713   0.97972   0.54170   0.00000  Uiso   1.00
C729   C     0.16651   0.97774   0.45895   0.00000  Uiso   1.00
C730   C     0.15959   0.68876   0.54034   0.00000  Uiso   1.00
C731   C     0.16218   0.95706   0.50068   0.00000  Uiso   1.00
C732   C     0.16666   0.70941   0.49901   0.00000  Uiso   1.00
C733   C     0.13281   0.80811   0.35380   0.00000  Uiso   1.00
C734   C     0.20111   0.85807   0.64630   0.00000  Uiso   1.00
C735   C     0.13320   0.80766   0.63755   0.00000  Uiso   1.00
C736   C     0.20169   0.85765   0.36265   0.00000  Uiso   1.00
Cu737  Cu    0.16667   0.83334   0.54689   0.00000  Uiso   1.00
Cu738  Cu    0.16667   0.83333   0.45311   0.00000  Uiso   1.00
H739   H     0.32618   0.82453   0.44674   0.00000  Uiso   1.00
H740   H     0.00710   0.84696   0.55225   0.00000  Uiso   1.00
H741   H     0.16722   0.96106   0.42667   0.00000  Uiso   1.00
H742   H     0.15595   0.70551   0.57211   0.00000  Uiso   1.00
N743   N     0.16668   0.83334   0.61736   0.00000  Uiso   1.00
N744   N     0.16665   0.83332   0.38264   0.00000  Uiso   1.00
O745   O     0.16666   0.77322   0.53958   0.00000  Uiso   1.00
O746   O     0.16667   0.89345   0.46042   0.00000  Uiso   1.00
O747   O     0.16666   0.77321   0.46039   0.00000  Uiso   1.00
O748   O     0.16667   0.89346   0.53961   0.00000  Uiso   1.00
O749   O     0.09161   0.83334   0.53046   0.00000  Uiso   1.00
O750   O     0.24172   0.83333   0.46954   0.00000  Uiso   1.00
O751   O     0.09161   0.83333   0.45127   0.00000  Uiso   1.00
O752   O     0.24172   0.83334   0.54873   0.00000  Uiso   1.00
Cl753  Cl    0.18545   0.70799   0.40472   0.00000  Uiso   1.00
Cl754  Cl    0.14530   0.95782   0.59541   0.00000  Uiso   1.00
Cl755  Cl    0.08968   0.77416   0.37817   0.00000  Uiso   1.00
Cl756  Cl    0.24689   0.88989   0.62241   0.00000  Uiso   1.00
N757   N     0.10304   0.77725   0.60930   0.00000  Uiso   1.00
H758   H     0.11473   0.74805   0.61668   0.00000  Uiso   1.00
C759   C     0.04748   0.77975   0.60468   0.00000  Uiso   1.00
H760   H     0.03038   0.75527   0.62521   0.00000  Uiso   1.00
H761   H     0.03134   0.77456   0.56746   0.00000  Uiso   1.00
H762   H     0.03609   0.80992   0.61696   0.00000  Uiso   1.00
N763   N     0.24247   0.87876   0.39212   0.00000  Uiso   1.00
H764   H     0.27780   0.86629   0.39106   0.00000  Uiso   1.00
C765   C     0.24500   0.92308   0.39075   0.00000  Uiso   1.00
H766   H     0.27909   0.93416   0.37434   0.00000  Uiso   1.00
H767   H     0.24993   0.93537   0.42712   0.00000  Uiso   1.00
H768   H     0.20983   0.93510   0.37049   0.00000  Uiso   1.00
C769   C     0.50062   0.75411   0.49974   0.00000  Uiso   1.00
C770   C     0.49799   0.91247   0.50015   0.00000  Uiso   1.00
C771   C     0.40136   0.83335   0.48803   0.00000  Uiso   1.00
C772   C     0.59863   0.83474   0.51187   0.00000  Uiso   1.00
C773   C     0.34603   0.83210   0.48148   0.00000  Uiso   1.00
C774   C     0.65390   0.83851   0.51785   0.00000  Uiso   1.00
C775   C     0.50441   0.68665   0.45795   0.00000  Uiso   1.00
C776   C     0.49046   0.97972   0.54170   0.00000  Uiso   1.00
C777   C     0.49985   0.97774   0.45895   0.00000  Uiso   1.00
C778   C     0.49292   0.68876   0.54034   0.00000  Uiso   1.00
C779   C     0.49551   0.95706   0.50068   0.00000  Uiso   1.00
C780   C     0.49999   0.70941   0.49901   0.00000  Uiso   1.00
C781   C     0.46614   0.80811   0.35380   0.00000  Uiso   1.00
C782   C     0.53445   0.85807   0.64630   0.00000  Uiso   1.00
C783   C     0.46653   0.80766   0.63755   0.00000  Uiso   1.00
C784   C     0.53503   0.85765   0.36265   0.00000  Uiso   1.00
Cu785  Cu    0.50000   0.83334   0.54689   0.00000  Uiso   1.00
Cu786  Cu    0.50000   0.83333   0.45311   0.00000  Uiso   1.00
H787   H     0.65951   0.82453   0.44674   0.00000  Uiso   1.00
H788   H     0.34044   0.84696   0.55225   0.00000  Uiso   1.00
H789   H     0.50056   0.96106   0.42667   0.00000  Uiso   1.00
H790   H     0.48929   0.70551   0.57211   0.00000  Uiso   1.00
N791   N     0.50001   0.83334   0.61736   0.00000  Uiso   1.00
N792   N     0.49999   0.83332   0.38264   0.00000  Uiso   1.00
O793   O     0.50000   0.77322   0.53958   0.00000  Uiso   1.00
O794   O     0.50000   0.89345   0.46042   0.00000  Uiso   1.00
O795   O     0.50000   0.77321   0.46039   0.00000  Uiso   1.00
O796   O     0.50000   0.89346   0.53961   0.00000  Uiso   1.00
O797   O     0.42495   0.83334   0.53046   0.00000  Uiso   1.00
O798   O     0.57505   0.83333   0.46954   0.00000  Uiso   1.00
O799   O     0.42494   0.83333   0.45127   0.00000  Uiso   1.00
O800   O     0.57506   0.83334   0.54873   0.00000  Uiso   1.00
Cl801  Cl    0.51878   0.70799   0.40472   0.00000  Uiso   1.00
Cl802  Cl    0.47863   0.95782   0.59541   0.00000  Uiso   1.00
Cl803  Cl    0.42301   0.77416   0.37817   0.00000  Uiso   1.00
Cl804  Cl    0.58023   0.88989   0.62241   0.00000  Uiso   1.00
N805   N     0.43638   0.77725   0.60930   0.00000  Uiso   1.00
H806   H     0.44806   0.74805   0.61668   0.00000  Uiso   1.00
C807   C     0.38081   0.77975   0.60468   0.00000  Uiso   1.00
H808   H     0.36371   0.75527   0.62521   0.00000  Uiso   1.00
H809   H     0.36467   0.77456   0.56746   0.00000  Uiso   1.00
H810   H     0.36942   0.80992   0.61696   0.00000  Uiso   1.00
N811   N     0.57580   0.87876   0.39212   0.00000  Uiso   1.00
H812   H     0.61113   0.86629   0.39106   0.00000  Uiso   1.00
C813   C     0.57834   0.92308   0.39075   0.00000  Uiso   1.00
H814   H     0.61242   0.93416   0.37434   0.00000  Uiso   1.00
H815   H     0.58327   0.93537   0.42712   0.00000  Uiso   1.00
H816   H     0.54316   0.93510   0.37049   0.00000  Uiso   1.00
C817   C     0.83395   0.75411   0.49974   0.00000  Uiso   1.00
C818   C     0.83133   0.91247   0.50015   0.00000  Uiso   1.00
C819   C     0.73469   0.83335   0.48803   0.00000  Uiso   1.00
C820   C     0.93197   0.83474   0.51187   0.00000  Uiso   1.00
C821   C     0.67936   0.83210   0.48148   0.00000  Uiso   1.00
C822   C     0.98723   0.83851   0.51785   0.00000  Uiso   1.00
C823   C     0.83774   0.68665   0.45795   0.00000  Uiso   1.00
C824   C     0.82380   0.97972   0.54170   0.00000  Uiso   1.00
C825   C     0.83318   0.97774   0.45895   0.00000  Uiso   1.00
C826   C     0.82626   0.68876   0.54034   0.00000  Uiso   1.00
C827   C     0.82885   0.95706   0.50068   0.00000  Uiso   1.00
C828   C     0.83333   0.70941   0.49901   0.00000  Uiso   1.00
C829   C     0.79947   0.80811   0.35380   0.00000  Uiso   1.00
C830   C     0.86778   0.85807   0.64630   0.00000  Uiso   1.00
C831   C     0.79986   0.80766   0.63755   0.00000  Uiso   1.00
C832   C     0.86836   0.85765   0.36265   0.00000  Uiso   1.00
Cu833  Cu    0.83333   0.83334   0.54689   0.00000  Uiso   1.00
Cu834  Cu    0.83333   0.83333   0.45311   0.00000  Uiso   1.00
H835   H     0.99284   0.82453   0.44674   0.00000  Uiso   1.00
H836   H     0.67377   0.84696   0.55225   0.00000  Uiso   1.00
H837   H     0.83389   0.96106   0.42667   0.00000  Uiso   1.00
H838   H     0.82262   0.70551   0.57211   0.00000  Uiso   1.00
N839   N     0.83335   0.83334   0.61736   0.00000  Uiso   1.00
N840   N     0.83332   0.83332   0.38264   0.00000  Uiso   1.00
O841   O     0.83333   0.77322   0.53958   0.00000  Uiso   1.00
O842   O     0.83334   0.89345   0.46042   0.00000  Uiso   1.00
O843   O     0.83333   0.77321   0.46039   0.00000  Uiso   1.00
O844   O     0.83334   0.89346   0.53961   0.00000  Uiso   1.00
O845   O     0.75828   0.83334   0.53046   0.00000  Uiso   1.00
O846   O     0.90839   0.83333   0.46954   0.00000  Uiso   1.00
O847   O     0.75828   0.83333   0.45127   0.00000  Uiso   1.00
O848   O     0.90839   0.83334   0.54873   0.00000  Uiso   1.00
Cl849  Cl    0.85211   0.70799   0.40472   0.00000  Uiso   1.00
Cl850  Cl    0.81196   0.95782   0.59541   0.00000  Uiso   1.00
Cl851  Cl    0.75634   0.77416   0.37817   0.00000  Uiso   1.00
Cl852  Cl    0.91356   0.88989   0.62241   0.00000  Uiso   1.00
N853   N     0.76971   0.77725   0.60930   0.00000  Uiso   1.00
H854   H     0.78139   0.74805   0.61668   0.00000  Uiso   1.00
C855   C     0.71415   0.77975   0.60468   0.00000  Uiso   1.00
H856   H     0.69705   0.75527   0.62521   0.00000  Uiso   1.00
H857   H     0.69801   0.77456   0.56746   0.00000  Uiso   1.00
H858   H     0.70276   0.80992   0.61696   0.00000  Uiso   1.00
N859   N     0.90914   0.87876   0.39212   0.00000  Uiso   1.00
H860   H     0.94446   0.86629   0.39106   0.00000  Uiso   1.00
C861   C     0.91167   0.92308   0.39075   0.00000  Uiso   1.00
H862   H     0.94576   0.93416   0.37434   0.00000  Uiso   1.00
H863   H     0.91660   0.93537   0.42712   0.00000  Uiso   1.00
H864   H     0.87650   0.93510   0.37049   0.00000  Uiso   1.00
C865   C     0.16728   0.08744   0.83307   0.00000  Uiso   1.00
C866   C     0.16466   0.24581   0.83348   0.00000  Uiso   1.00
C867   C     0.06803   0.16669   0.82136   0.00000  Uiso   1.00
C868   C     0.26530   0.16808   0.84521   0.00000  Uiso   1.00
C869   C     0.01269   0.16543   0.81481   0.00000  Uiso   1.00
C870   C     0.32056   0.17185   0.85118   0.00000  Uiso   1.00
C871   C     0.17108   0.01998   0.79129   0.00000  Uiso   1.00
C872   C     0.15713   0.31305   0.87503   0.00000  Uiso   1.00
C873   C     0.16651   0.31107   0.79228   0.00000  Uiso   1.00
C874   C     0.15959   0.02210   0.87367   0.00000  Uiso   1.00
C875   C     0.16218   0.29039   0.83402   0.00000  Uiso   1.00
C876   C     0.16666   0.04274   0.83234   0.00000  Uiso   1.00
C877   C     0.13281   0.14144   0.68713   0.00000  Uiso   1.00
C878   C     0.20111   0.19140   0.97964   0.00000  Uiso   1.00
C879   C     0.13320   0.14099   0.97088   0.00000  Uiso   1.00
C880   C     0.20169   0.19099   0.69598   0.00000  Uiso   1.00
Cu881  Cu    0.16667   0.16667   0.88022   0.00000  Uiso   1.00
Cu882  Cu    0.16667   0.16666   0.78645   0.00000  Uiso   1.00
H883   H     0.32618   0.15786   0.78007   0.00000  Uiso   1.00
H884   H     0.00710   0.18029   0.88558   0.00000  Uiso   1.00
H885   H     0.16722   0.29439   0.76001   0.00000  Uiso   1.00
H886   H     0.15595   0.03884   0.90545   0.00000  Uiso   1.00
N887   N     0.16668   0.16668   0.95069   0.00000  Uiso   1.00
N888   N     0.16665   0.16666   0.71597   0.00000  Uiso   1.00
O889   O     0.16666   0.10655   0.87291   0.00000  Uiso   1.00
O890   O     0.16667   0.22678   0.79375   0.00000  Uiso   1.00
O891   O     0.16666   0.10654   0.79372   0.00000  Uiso   1.00
O892   O     0.16667   0.22679   0.87294   0.00000  Uiso   1.00
O893   O     0.09161   0.16667   0.86379   0.00000  Uiso   1.00
O894   O     0.24172   0.16666   0.80288   0.00000  Uiso   1.00
O895   O     0.09161   0.16666   0.78460   0.00000  Uiso   1.00
O896   O     0.24172   0.16667   0.88207   0.00000  Uiso   1.00
Cl897  Cl    0.18545   0.04133   0.73805   0.00000  Uiso   1.00
Cl898  Cl    0.14530   0.29115   0.92875   0.00000  Uiso   1.00
Cl899  Cl    0.08968   0.10749   0.71150   0.00000  Uiso   1.00
Cl900  Cl    0.24689   0.22322   0.95574   0.00000  Uiso   1.00
N901   N     0.10304   0.11058   0.94263   0.00000  Uiso   1.00
H902   H     0.11473   0.08138   0.95001   0.00000  Uiso   1.00
C903   C     0.04748   0.11309   0.93801   0.00000  Uiso   1.00
H904   H     0.03038   0.08860   0.95854   0.00000  Uiso   1.00
H905   H     0.03134   0.10789   0.90079   0.00000  Uiso   1.00
H906   H     0.03609   0.14325   0.95029   0.00000  Uiso   1.00
N907   N     0.24247   0.21209   0.72545   0.00000  Uiso   1.00
H908   H     0.27780   0.19963   0.72439   0.00000  Uiso   1.00
C909   C     0.24500   0.25641   0.72408   0.00000  Uiso   1.00
H910   H     0.27909   0.26749   0.70768   0.00000  Uiso   1.00
H911   H     0.24993   0.26870   0.76045   0.00000  Uiso   1.00
H912   H     0.20983   0.26843   0.70382   0.00000  Uiso   1.00
C913   C     0.50062   0.08744   0.83307   0.00000  Uiso   1.00
C914   C     0.49799   0.24581   0.83348   0.00000  Uiso   1.00
C915   C     0.40136   0.16669   0.82136   0.00000  Uiso   1.00
C916   C     0.59863   0.16808   0.84521   0.00000  Uiso   1.00
C917   C     0.34603   0.16543   0.81481   0.00000  Uiso   1.00
C918   C     0.65390   0.17185   0.85118   0.00000  Uiso   1.00
C919   C     0.50441   0.01998   0.79129   0.00000  Uiso   1.00
C920   C     0.49046   0.31305   0.87503   0.00000  Uiso   1.00
C921   C     0.49985   0.31107   0.79228   0.00000  Uiso   1.00
C922   C     0.49292   0.02210   0.87367   0.00000  Uiso   1.00
C923   C     0.49551   0.29039   0.83402   0.00000  Uiso   1.00
C924   C     0.49999   0.04274   0.83234   0.00000  Uiso   1.00
C925   C     0.46614   0.14144   0.68713   0.00000  Uiso   1.00
C926   C     0.53445   0.19140   0.97964   0.00000  Uiso   1.00
C927   C     0.46653   0.14099   0.97088   0.00000  Uiso   1.00
C928   C     0.53503   0.19099   0.69598   0.00000  Uiso   1.00
Cu929  Cu    0.50000   0.16667   0.88022   0.00000  Uiso   1.00
Cu930  Cu    0.50000   0.16666   0.78645   0.00000  Uiso   1.00
H931   H     0.65951   0.15786   0.78007   0.00000  Uiso   1.00
H932   H     0.34044   0.18029   0.88558   0.00000  Uiso   1.00
H933   H     0.50056   0.29439   0.76001   0.00000  Uiso   1.00
H934   H     0.48929   0.03884   0.90545   0.00000  Uiso   1.00
N935   N     0.50001   0.16668   0.95069   0.00000  Uiso   1.00
N936   N     0.49999   0.16666   0.71597   0.00000  Uiso   1.00
O937   O     0.50000   0.10655   0.87291   0.00000  Uiso   1.00
O938   O     0.50000   0.22678   0.79375   0.00000  Uiso   1.00
O939   O     0.50000   0.10654   0.79372   0.00000  Uiso   1.00
O940   O     0.50000   0.22679   0.87294   0.00000  Uiso   1.00
O941   O     0.42495   0.16667   0.86379   0.00000  Uiso   1.00
O942   O     0.57505   0.16666   0.80288   0.00000  Uiso   1.00
O943   O     0.42494   0.16666   0.78460   0.00000  Uiso   1.00
O944   O     0.57506   0.16667   0.88207   0.00000  Uiso   1.00
Cl945  Cl    0.51878   0.04133   0.73805   0.00000  Uiso   1.00
Cl946  Cl    0.47863   0.29115   0.92875   0.00000  Uiso   1.00
Cl947  Cl    0.42301   0.10749   0.71150   0.00000  Uiso   1.00
Cl948  Cl    0.58023   0.22322   0.95574   0.00000  Uiso   1.00
N949   N     0.43638   0.11058   0.94263   0.00000  Uiso   1.00
H950   H     0.44806   0.08138   0.95001   0.00000  Uiso   1.00
C951   C     0.38081   0.11309   0.93801   0.00000  Uiso   1.00
H952   H     0.36371   0.08860   0.95854   0.00000  Uiso   1.00
H953   H     0.36467   0.10789   0.90079   0.00000  Uiso   1.00
H954   H     0.36942   0.14325   0.95029   0.00000  Uiso   1.00
N955   N     0.57580   0.21209   0.72545   0.00000  Uiso   1.00
H956   H     0.61113   0.19963   0.72439   0.00000  Uiso   1.00
C957   C     0.57834   0.25641   0.72408   0.00000  Uiso   1.00
H958   H     0.61242   0.26749   0.70768   0.00000  Uiso   1.00
H959   H     0.58327   0.26870   0.76045   0.00000  Uiso   1.00
H960   H     0.54316   0.26843   0.70382   0.00000  Uiso   1.00
C961   C     0.83395   0.08744   0.83307   0.00000  Uiso   1.00
C962   C     0.83133   0.24581   0.83348   0.00000  Uiso   1.00
C963   C     0.73469   0.16669   0.82136   0.00000  Uiso   1.00
C964   C     0.93197   0.16808   0.84521   0.00000  Uiso   1.00
C965   C     0.67936   0.16543   0.81481   0.00000  Uiso   1.00
C966   C     0.98723   0.17185   0.85118   0.00000  Uiso   1.00
C967   C     0.83774   0.01998   0.79129   0.00000  Uiso   1.00
C968   C     0.82380   0.31305   0.87503   0.00000  Uiso   1.00
C969   C     0.83318   0.31107   0.79228   0.00000  Uiso   1.00
C970   C     0.82626   0.02210   0.87367   0.00000  Uiso   1.00
C971   C     0.82885   0.29039   0.83402   0.00000  Uiso   1.00
C972   C     0.83333   0.04274   0.83234   0.00000  Uiso   1.00
C973   C     0.79947   0.14144   0.68713   0.00000  Uiso   1.00
C974   C     0.86778   0.19140   0.97964   0.00000  Uiso   1.00
C975   C     0.79986   0.14099   0.97088   0.00000  Uiso   1.00
C976   C     0.86836   0.19099   0.69598   0.00000  Uiso   1.00
Cu977  Cu    0.83333   0.16667   0.88022   0.00000  Uiso   1.00
Cu978  Cu    0.83333   0.16666   0.78645   0.00000  Uiso   1.00
H979   H     0.99284   0.15786   0.78007   0.00000  Uiso   1.00
H980   H     0.67377   0.18029   0.88558   0.00000  Uiso   1.00
H981   H     0.83389   0.29439   0.76001   0.00000  Uiso   1.00
H982   H     0.82262   0.03884   0.90545   0.00000  Uiso   1.00
N983   N     0.83335   0.16668   0.95069   0.00000  Uiso   1.00
N984   N     0.83332   0.16666   0.71597   0.00000  Uiso   1.00
O985   O     0.83333   0.10655   0.87291   0.00000  Uiso   1.00
O986   O     0.83334   0.22678   0.79375   0.00000  Uiso   1.00
O987   O     0.83333   0.10654   0.79372   0.00000  Uiso   1.00
O988   O     0.83334   0.22679   0.87294   0.00000  Uiso   1.00
O989   O     0.75828   0.16667   0.86379   0.00000  Uiso   1.00
O990   O     0.90839   0.16666   0.80288   0.00000  Uiso   1.00
O991   O     0.75828   0.16666   0.78460   0.00000  Uiso   1.00
O992   O     0.90839   0.16667   0.88207   0.00000  Uiso   1.00
Cl993  Cl    0.85211   0.04133   0.73805   0.00000  Uiso   1.00
Cl994  Cl    0.81196   0.29115   0.92875   0.00000  Uiso   1.00
Cl995  Cl    0.75634   0.10749   0.71150   0.00000  Uiso   1.00
Cl996  Cl    0.91356   0.22322   0.95574   0.00000  Uiso   1.00
N997   N     0.76971   0.11058   0.94263   0.00000  Uiso   1.00
H998   H     0.78139   0.08138   0.95001   0.00000  Uiso   1.00
C999   C     0.71415   0.11309   0.93801   0.00000  Uiso   1.00
H1000  H     0.69705   0.08860   0.95854   0.00000  Uiso   1.00
H1001  H     0.69801   0.10789   0.90079   0.00000  Uiso   1.00
H1002  H     0.70276   0.14325   0.95029   0.00000  Uiso   1.00
N1003  N     0.90914   0.21209   0.72545   0.00000  Uiso   1.00
H1004  H     0.94446   0.19963   0.72439   0.00000  Uiso   1.00
C1005  C     0.91167   0.25641   0.72408   0.00000  Uiso   1.00
H1006  H     0.94576   0.26749   0.70768   0.00000  Uiso   1.00
H1007  H     0.91660   0.26870   0.76045   0.00000  Uiso   1.00
H1008  H     0.87650   0.26843   0.70382   0.00000  Uiso   1.00
C1009  C     0.16728   0.42078   0.83307   0.00000  Uiso   1.00
C1010  C     0.16466   0.57914   0.83348   0.00000  Uiso   1.00
C1011  C     0.06803   0.50002   0.82136   0.00000  Uiso   1.00
C1012  C     0.26530   0.50141   0.84521   0.00000  Uiso   1.00
C1013  C     0.01269   0.49876   0.81481   0.00000  Uiso   1.00
C1014  C     0.32056   0.50518   0.85118   0.00000  Uiso   1.00
C1015  C     0.17108   0.35332   0.79129   0.00000  Uiso   1.00
C1016  C     0.15713   0.64639   0.87503   0.00000  Uiso   1.00
C1017  C     0.16651   0.64441   0.79228   0.00000  Uiso   1.00
C1018  C     0.15959   0.35543   0.87367   0.00000  Uiso   1.00
C1019  C     0.16218   0.62373   0.83402   0.00000  Uiso   1.00
C1020  C     0.16666   0.37607   0.83234   0.00000  Uiso   1.00
C1021  C     0.13281   0.47477   0.68713   0.00000  Uiso   1.00
C1022  C     0.20111   0.52474   0.97964   0.00000  Uiso   1.00
C1023  C     0.13320   0.47433   0.97088   0.00000  Uiso   1.00
C1024  C     0.20169   0.52432   0.69598   0.00000  Uiso   1.00
Cu1025 Cu    0.16667   0.50001   0.88022   0.00000  Uiso   1.00
Cu1026 Cu    0.16667   0.49999   0.78645   0.00000  Uiso   1.00
H1027  H     0.32618   0.49119   0.78007   0.00000  Uiso   1.00
H1028  H     0.00710   0.51362   0.88558   0.00000  Uiso   1.00
H1029  H     0.16722   0.62772   0.76001   0.00000  Uiso   1.00
H1030  H     0.15595   0.37217   0.90545   0.00000  Uiso   1.00
N1031  N     0.16668   0.50001   0.95069   0.00000  Uiso   1.00
N1032  N     0.16665   0.49999   0.71597   0.00000  Uiso   1.00
O1033  O     0.16666   0.43989   0.87291   0.00000  Uiso   1.00
O1034  O     0.16667   0.56011   0.79375   0.00000  Uiso   1.00
O1035  O     0.16666   0.43988   0.79372   0.00000  Uiso   1.00
O1036  O     0.16667   0.56012   0.87294   0.00000  Uiso   1.00
O1037  O     0.09161   0.50000   0.86379   0.00000  Uiso   1.00
O1038  O     0.24172   0.50000   0.80288   0.00000  Uiso   1.00
O1039  O     0.09161   0.49999   0.78460   0.00000  Uiso   1.00
O1040  O     0.24172   0.50001   0.88207   0.00000  Uiso   1.00
Cl1041 Cl    0.18545   0.37466   0.73805   0.00000  Uiso   1.00
Cl1042 Cl    0.14530   0.62449   0.92875   0.00000  Uiso   1.00
Cl1043 Cl    0.08968   0.44083   0.71150   0.00000  Uiso   1.00
Cl1044 Cl    0.24689   0.55655   0.95574   0.00000  Uiso   1.00
N1045  N     0.10304   0.44392   0.94263   0.00000  Uiso   1.00
H1046  H     0.11473   0.41471   0.95001   0.00000  Uiso   1.00
C1047  C     0.04748   0.44642   0.93801   0.00000  Uiso   1.00
H1048  H     0.03038   0.42194   0.95854   0.00000  Uiso   1.00
H1049  H     0.03134   0.44122   0.90079   0.00000  Uiso   1.00
H1050  H     0.03609   0.47658   0.95029   0.00000  Uiso   1.00
N1051  N     0.24247   0.54542   0.72545   0.00000  Uiso   1.00
H1052  H     0.27780   0.53296   0.72439   0.00000  Uiso   1.00
C1053  C     0.24500   0.58975   0.72408   0.00000  Uiso   1.00
H1054  H     0.27909   0.60082   0.70768   0.00000  Uiso   1.00
H1055  H     0.24993   0.60203   0.76045   0.00000  Uiso   1.00
H1056  H     0.20983   0.60177   0.70382   0.00000  Uiso   1.00
C1057  C     0.50062   0.42078   0.83307   0.00000  Uiso   1.00
C1058  C     0.49799   0.57914   0.83348   0.00000  Uiso   1.00
C1059  C     0.40136   0.50002   0.82136   0.00000  Uiso   1.00
C1060  C     0.59863   0.50141   0.84521   0.00000  Uiso   1.00
C1061  C     0.34603   0.49876   0.81481   0.00000  Uiso   1.00
C1062  C     0.65390   0.50518   0.85118   0.00000  Uiso   1.00
C1063  C     0.50441   0.35332   0.79129   0.00000  Uiso   1.00
C1064  C     0.49046   0.64639   0.87503   0.00000  Uiso   1.00
C1065  C     0.49985   0.64441   0.79228   0.00000  Uiso   1.00
C1066  C     0.49292   0.35543   0.87367   0.00000  Uiso   1.00
C1067  C     0.49551   0.62373   0.83402   0.00000  Uiso   1.00
C1068  C     0.49999   0.37607   0.83234   0.00000  Uiso   1.00
C1069  C     0.46614   0.47477   0.68713   0.00000  Uiso   1.00
C1070  C     0.53445   0.52474   0.97964   0.00000  Uiso   1.00
C1071  C     0.46653   0.47433   0.97088   0.00000  Uiso   1.00
C1072  C     0.53503   0.52432   0.69598   0.00000  Uiso   1.00
Cu1073 Cu    0.50000   0.50001   0.88022   0.00000  Uiso   1.00
Cu1074 Cu    0.50000   0.49999   0.78645   0.00000  Uiso   1.00
H1075  H     0.65951   0.49119   0.78007   0.00000  Uiso   1.00
H1076  H     0.34044   0.51362   0.88558   0.00000  Uiso   1.00
H1077  H     0.50056   0.62772   0.76001   0.00000  Uiso   1.00
H1078  H     0.48929   0.37217   0.90545   0.00000  Uiso   1.00
N1079  N     0.50001   0.50001   0.95069   0.00000  Uiso   1.00
N1080  N     0.49999   0.49999   0.71597   0.00000  Uiso   1.00
O1081  O     0.50000   0.43989   0.87291   0.00000  Uiso   1.00
O1082  O     0.50000   0.56011   0.79375   0.00000  Uiso   1.00
O1083  O     0.50000   0.43988   0.79372   0.00000  Uiso   1.00
O1084  O     0.50000   0.56012   0.87294   0.00000  Uiso   1.00
O1085  O     0.42495   0.50000   0.86379   0.00000  Uiso   1.00
O1086  O     0.57505   0.50000   0.80288   0.00000  Uiso   1.00
O1087  O     0.42494   0.49999   0.78460   0.00000  Uiso   1.00
O1088  O     0.57506   0.50001   0.88207   0.00000  Uiso   1.00
Cl1089 Cl    0.51878   0.37466   0.73805   0.00000  Uiso   1.00
Cl1090 Cl    0.47863   0.62449   0.92875   0.00000  Uiso   1.00
Cl1091 Cl    0.42301   0.44083   0.71150   0.00000  Uiso   1.00
Cl1092 Cl    0.58023   0.55655   0.95574   0.00000  Uiso   1.00
N1093  N     0.43638   0.44392   0.94263   0.00000  Uiso   1.00
H1094  H     0.44806   0.41471   0.95001   0.00000  Uiso   1.00
C1095  C     0.38081   0.44642   0.93801   0.00000  Uiso   1.00
H1096  H     0.36371   0.42194   0.95854   0.00000  Uiso   1.00
H1097  H     0.36467   0.44122   0.90079   0.00000  Uiso   1.00
H1098  H     0.36942   0.47658   0.95029   0.00000  Uiso   1.00
N1099  N     0.57580   0.54542   0.72545   0.00000  Uiso   1.00
H1100  H     0.61113   0.53296   0.72439   0.00000  Uiso   1.00
C1101  C     0.57834   0.58975   0.72408   0.00000  Uiso   1.00
H1102  H     0.61242   0.60082   0.70768   0.00000  Uiso   1.00
H1103  H     0.58327   0.60203   0.76045   0.00000  Uiso   1.00
H1104  H     0.54316   0.60177   0.70382   0.00000  Uiso   1.00
C1105  C     0.83395   0.42078   0.83307   0.00000  Uiso   1.00
C1106  C     0.83133   0.57914   0.83348   0.00000  Uiso   1.00
C1107  C     0.73469   0.50002   0.82136   0.00000  Uiso   1.00
C1108  C     0.93197   0.50141   0.84521   0.00000  Uiso   1.00
C1109  C     0.67936   0.49876   0.81481   0.00000  Uiso   1.00
C1110  C     0.98723   0.50518   0.85118   0.00000  Uiso   1.00
C1111  C     0.83774   0.35332   0.79129   0.00000  Uiso   1.00
C1112  C     0.82380   0.64639   0.87503   0.00000  Uiso   1.00
C1113  C     0.83318   0.64441   0.79228   0.00000  Uiso   1.00
C1114  C     0.82626   0.35543   0.87367   0.00000  Uiso   1.00
C1115  C     0.82885   0.62373   0.83402   0.00000  Uiso   1.00
C1116  C     0.83333   0.37607   0.83234   0.00000  Uiso   1.00
C1117  C     0.79947   0.47477   0.68713   0.00000  Uiso   1.00
C1118  C     0.86778   0.52474   0.97964   0.00000  Uiso   1.00
C1119  C     0.79986   0.47433   0.97088   0.00000  Uiso   1.00
C1120  C     0.86836   0.52432   0.69598   0.00000  Uiso   1.00
Cu1121 Cu    0.83333   0.50001   0.88022   0.00000  Uiso   1.00
Cu1122 Cu    0.83333   0.49999   0.78645   0.00000  Uiso   1.00
H1123  H     0.99284   0.49119   0.78007   0.00000  Uiso   1.00
H1124  H     0.67377   0.51362   0.88558   0.00000  Uiso   1.00
H1125  H     0.83389   0.62772   0.76001   0.00000  Uiso   1.00
H1126  H     0.82262   0.37217   0.90545   0.00000  Uiso   1.00
N1127  N     0.83335   0.50001   0.95069   0.00000  Uiso   1.00
N1128  N     0.83332   0.49999   0.71597   0.00000  Uiso   1.00
O1129  O     0.83333   0.43989   0.87291   0.00000  Uiso   1.00
O1130  O     0.83334   0.56011   0.79375   0.00000  Uiso   1.00
O1131  O     0.83333   0.43988   0.79372   0.00000  Uiso   1.00
O1132  O     0.83334   0.56012   0.87294   0.00000  Uiso   1.00
O1133  O     0.75828   0.50000   0.86379   0.00000  Uiso   1.00
O1134  O     0.90839   0.50000   0.80288   0.00000  Uiso   1.00
O1135  O     0.75828   0.49999   0.78460   0.00000  Uiso   1.00
O1136  O     0.90839   0.50001   0.88207   0.00000  Uiso   1.00
Cl1137 Cl    0.85211   0.37466   0.73805   0.00000  Uiso   1.00
Cl1138 Cl    0.81196   0.62449   0.92875   0.00000  Uiso   1.00
Cl1139 Cl    0.75634   0.44083   0.71150   0.00000  Uiso   1.00
Cl1140 Cl    0.91356   0.55655   0.95574   0.00000  Uiso   1.00
N1141  N     0.76971   0.44392   0.94263   0.00000  Uiso   1.00
H1142  H     0.78139   0.41471   0.95001   0.00000  Uiso   1.00
C1143  C     0.71415   0.44642   0.93801   0.00000  Uiso   1.00
H1144  H     0.69705   0.42194   0.95854   0.00000  Uiso   1.00
H1145  H     0.69801   0.44122   0.90079   0.00000  Uiso   1.00
H1146  H     0.70276   0.47658   0.95029   0.00000  Uiso   1.00
N1147  N     0.90914   0.54542   0.72545   0.00000  Uiso   1.00
H1148  H     0.94446   0.53296   0.72439   0.00000  Uiso   1.00
C1149  C     0.91167   0.58975   0.72408   0.00000  Uiso   1.00
H1150  H     0.94576   0.60082   0.70768   0.00000  Uiso   1.00
H1151  H     0.91660   0.60203   0.76045   0.00000  Uiso   1.00
H1152  H     0.87650   0.60177   0.70382   0.00000  Uiso   1.00
C1153  C     0.16728   0.75411   0.83307   0.00000  Uiso   1.00
C1154  C     0.16466   0.91247   0.83348   0.00000  Uiso   1.00
C1155  C     0.06803   0.83335   0.82136   0.00000  Uiso   1.00
C1156  C     0.26530   0.83474   0.84521   0.00000  Uiso   1.00
C1157  C     0.01269   0.83210   0.81481   0.00000  Uiso   1.00
C1158  C     0.32056   0.83851   0.85118   0.00000  Uiso   1.00
C1159  C     0.17108   0.68665   0.79129   0.00000  Uiso   1.00
C1160  C     0.15713   0.97972   0.87503   0.00000  Uiso   1.00
C1161  C     0.16651   0.97774   0.79228   0.00000  Uiso   1.00
C1162  C     0.15959   0.68876   0.87367   0.00000  Uiso   1.00
C1163  C     0.16218   0.95706   0.83402   0.00000  Uiso   1.00
C1164  C     0.16666   0.70941   0.83234   0.00000  Uiso   1.00
C1165  C     0.13281   0.80811   0.68713   0.00000  Uiso   1.00
C1166  C     0.20111   0.85807   0.97964   0.00000  Uiso   1.00
C1167  C     0.13320   0.80766   0.97088   0.00000  Uiso   1.00
C1168  C     0.20169   0.85765   0.69598   0.00000  Uiso   1.00
Cu1169 Cu    0.16667   0.83334   0.88022   0.00000  Uiso   1.00
Cu1170 Cu    0.16667   0.83333   0.78645   0.00000  Uiso   1.00
H1171  H     0.32618   0.82453   0.78007   0.00000  Uiso   1.00
H1172  H     0.00710   0.84696   0.88558   0.00000  Uiso   1.00
H1173  H     0.16722   0.96106   0.76001   0.00000  Uiso   1.00
H1174  H     0.15595   0.70551   0.90545   0.00000  Uiso   1.00
N1175  N     0.16668   0.83334   0.95069   0.00000  Uiso   1.00
N1176  N     0.16665   0.83332   0.71597   0.00000  Uiso   1.00
O1177  O     0.16666   0.77322   0.87291   0.00000  Uiso   1.00
O1178  O     0.16667   0.89345   0.79375   0.00000  Uiso   1.00
O1179  O     0.16666   0.77321   0.79372   0.00000  Uiso   1.00
O1180  O     0.16667   0.89346   0.87294   0.00000  Uiso   1.00
O1181  O     0.09161   0.83334   0.86379   0.00000  Uiso   1.00
O1182  O     0.24172   0.83333   0.80288   0.00000  Uiso   1.00
O1183  O     0.09161   0.83333   0.78460   0.00000  Uiso   1.00
O1184  O     0.24172   0.83334   0.88207   0.00000  Uiso   1.00
Cl1185 Cl    0.18545   0.70799   0.73805   0.00000  Uiso   1.00
Cl1186 Cl    0.14530   0.95782   0.92875   0.00000  Uiso   1.00
Cl1187 Cl    0.08968   0.77416   0.71150   0.00000  Uiso   1.00
Cl1188 Cl    0.24689   0.88989   0.95574   0.00000  Uiso   1.00
N1189  N     0.10304   0.77725   0.94263   0.00000  Uiso   1.00
H1190  H     0.11473   0.74805   0.95001   0.00000  Uiso   1.00
C1191  C     0.04748   0.77975   0.93801   0.00000  Uiso   1.00
H1192  H     0.03038   0.75527   0.95854   0.00000  Uiso   1.00
H1193  H     0.03134   0.77456   0.90079   0.00000  Uiso   1.00
H1194  H     0.03609   0.80992   0.95029   0.00000  Uiso   1.00
N1195  N     0.24247   0.87876   0.72545   0.00000  Uiso   1.00
H1196  H     0.27780   0.86629   0.72439   0.00000  Uiso   1.00
C1197  C     0.24500   0.92308   0.72408   0.00000  Uiso   1.00
H1198  H     0.27909   0.93416   0.70768   0.00000  Uiso   1.00
H1199  H     0.24993   0.93537   0.76045   0.00000  Uiso   1.00
H1200  H     0.20983   0.93510   0.70382   0.00000  Uiso   1.00
C1201  C     0.50062   0.75411   0.83307   0.00000  Uiso   1.00
C1202  C     0.49799   0.91247   0.83348   0.00000  Uiso   1.00
C1203  C     0.40136   0.83335   0.82136   0.00000  Uiso   1.00
C1204  C     0.59863   0.83474   0.84521   0.00000  Uiso   1.00
C1205  C     0.34603   0.83210   0.81481   0.00000  Uiso   1.00
C1206  C     0.65390   0.83851   0.85118   0.00000  Uiso   1.00
C1207  C     0.50441   0.68665   0.79129   0.00000  Uiso   1.00
C1208  C     0.49046   0.97972   0.87503   0.00000  Uiso   1.00
C1209  C     0.49985   0.97774   0.79228   0.00000  Uiso   1.00
C1210  C     0.49292   0.68876   0.87367   0.00000  Uiso   1.00
C1211  C     0.49551   0.95706   0.83402   0.00000  Uiso   1.00
C1212  C     0.49999   0.70941   0.83234   0.00000  Uiso   1.00
C1213  C     0.46614   0.80811   0.68713   0.00000  Uiso   1.00
C1214  C     0.53445   0.85807   0.97964   0.00000  Uiso   1.00
C1215  C     0.46653   0.80766   0.97088   0.00000  Uiso   1.00
C1216  C     0.53503   0.85765   0.69598   0.00000  Uiso   1.00
Cu1217 Cu    0.50000   0.83334   0.88022   0.00000  Uiso   1.00
Cu1218 Cu    0.50000   0.83333   0.78645   0.00000  Uiso   1.00
H1219  H     0.65951   0.82453   0.78007   0.00000  Uiso   1.00
H1220  H     0.34044   0.84696   0.88558   0.00000  Uiso   1.00
H1221  H     0.50056   0.96106   0.76001   0.00000  Uiso   1.00
H1222  H     0.48929   0.70551   0.90545   0.00000  Uiso   1.00
N1223  N     0.50001   0.83334   0.95069   0.00000  Uiso   1.00
N1224  N     0.49999   0.83332   0.71597   0.00000  Uiso   1.00
O1225  O     0.50000   0.77322   0.87291   0.00000  Uiso   1.00
O1226  O     0.50000   0.89345   0.79375   0.00000  Uiso   1.00
O1227  O     0.50000   0.77321   0.79372   0.00000  Uiso   1.00
O1228  O     0.50000   0.89346   0.87294   0.00000  Uiso   1.00
O1229  O     0.42495   0.83334   0.86379   0.00000  Uiso   1.00
O1230  O     0.57505   0.83333   0.80288   0.00000  Uiso   1.00
O1231  O     0.42494   0.83333   0.78460   0.00000  Uiso   1.00
O1232  O     0.57506   0.83334   0.88207   0.00000  Uiso   1.00
Cl1233 Cl    0.51878   0.70799   0.73805   0.00000  Uiso   1.00
Cl1234 Cl    0.47863   0.95782   0.92875   0.00000  Uiso   1.00
Cl1235 Cl    0.42301   0.77416   0.71150   0.00000  Uiso   1.00
Cl1236 Cl    0.58023   0.88989   0.95574   0.00000  Uiso   1.00
N1237  N     0.43638   0.77725   0.94263   0.00000  Uiso   1.00
H1238  H     0.44806   0.74805   0.95001   0.00000  Uiso   1.00
C1239  C     0.38081   0.77975   0.93801   0.00000  Uiso   1.00
H1240  H     0.36371   0.75527   0.95854   0.00000  Uiso   1.00
H1241  H     0.36467   0.77456   0.90079   0.00000  Uiso   1.00
H1242  H     0.36942   0.80992   0.95029   0.00000  Uiso   1.00
N1243  N     0.57580   0.87876   0.72545   0.00000  Uiso   1.00
H1244  H     0.61113   0.86629   0.72439   0.00000  Uiso   1.00
C1245  C     0.57834   0.92308   0.72408   0.00000  Uiso   1.00
H1246  H     0.61242   0.93416   0.70768   0.00000  Uiso   1.00
H1247  H     0.58327   0.93537   0.76045   0.00000  Uiso   1.00
H1248  H     0.54316   0.93510   0.70382   0.00000  Uiso   1.00
C1249  C     0.83395   0.75411   0.83307   0.00000  Uiso   1.00
C1250  C     0.83133   0.91247   0.83348   0.00000  Uiso   1.00
C1251  C     0.73469   0.83335   0.82136   0.00000  Uiso   1.00
C1252  C     0.93197   0.83474   0.84521   0.00000  Uiso   1.00
C1253  C     0.67936   0.83210   0.81481   0.00000  Uiso   1.00
C1254  C     0.98723   0.83851   0.85118   0.00000  Uiso   1.00
C1255  C     0.83774   0.68665   0.79129   0.00000  Uiso   1.00
C1256  C     0.82380   0.97972   0.87503   0.00000  Uiso   1.00
C1257  C     0.83318   0.97774   0.79228   0.00000  Uiso   1.00
C1258  C     0.82626   0.68876   0.87367   0.00000  Uiso   1.00
C1259  C     0.82885   0.95706   0.83402   0.00000  Uiso   1.00
C1260  C     0.83333   0.70941   0.83234   0.00000  Uiso   1.00
C1261  C     0.79947   0.80811   0.68713   0.00000  Uiso   1.00
C1262  C     0.86778   0.85807   0.97964   0.00000  Uiso   1.00
C1263  C     0.79986   0.80766   0.97088   0.00000  Uiso   1.00
C1264  C     0.86836   0.85765   0.69598   0.00000  Uiso   1.00
Cu1265 Cu    0.83333   0.83334   0.88022   0.00000  Uiso   1.00
Cu1266 Cu    0.83333   0.83333   0.78645   0.00000  Uiso   1.00
H1267  H     0.99284   0.82453   0.78007   0.00000  Uiso   1.00
H1268  H     0.67377   0.84696   0.88558   0.00000  Uiso   1.00
H1269  H     0.83389   0.96106   0.76001   0.00000  Uiso   1.00
H1270  H     0.82262   0.70551   0.90545   0.00000  Uiso   1.00
N1271  N     0.83335   0.83334   0.95069   0.00000  Uiso   1.00
N1272  N     0.83332   0.83332   0.71597   0.00000  Uiso   1.00
O1273  O     0.83333   0.77322   0.87291   0.00000  Uiso   1.00
O1274  O     0.83334   0.89345   0.79375   0.00000  Uiso   1.00
O1275  O     0.83333   0.77321   0.79372   0.00000  Uiso   1.00
O1276  O     0.83334   0.89346   0.87294   0.00000  Uiso   1.00
O1277  O     0.75828   0.83334   0.86379   0.00000  Uiso   1.00
O1278  O     0.90839   0.83333   0.80288   0.00000  Uiso   1.00
O1279  O     0.75828   0.83333   0.78460   0.00000  Uiso   1.00
O1280  O     0.90839   0.83334   0.88207   0.00000  Uiso   1.00
Cl1281 Cl    0.85211   0.70799   0.73805   0.00000  Uiso   1.00
Cl1282 Cl    0.81196   0.95782   0.92875   0.00000  Uiso   1.00
Cl1283 Cl    0.75634   0.77416   0.71150   0.00000  Uiso   1.00
Cl1284 Cl    0.91356   0.88989   0.95574   0.00000  Uiso   1.00
N1285  N     0.76971   0.77725   0.94263   0.00000  Uiso   1.00
H1286  H     0.78139   0.74805   0.95001   0.00000  Uiso   1.00
C1287  C     0.71415   0.77975   0.93801   0.00000  Uiso   1.00
H1288  H     0.69705   0.75527   0.95854   0.00000  Uiso   1.00
H1289  H     0.69801   0.77456   0.90079   0.00000  Uiso   1.00
H1290  H     0.70276   0.80992   0.95029   0.00000  Uiso   1.00
N1291  N     0.90914   0.87876   0.72545   0.00000  Uiso   1.00
H1292  H     0.94446   0.86629   0.72439   0.00000  Uiso   1.00
C1293  C     0.91167   0.92308   0.72408   0.00000  Uiso   1.00
H1294  H     0.94576   0.93416   0.70768   0.00000  Uiso   1.00
H1295  H     0.91660   0.93537   0.76045   0.00000  Uiso   1.00
H1296  H     0.87650   0.93510   0.70382   0.00000  Uiso   1.00
loop_
_geom_bond_atom_site_label_1
_geom_bond_atom_site_label_2
_geom_bond_distance
_geom_bond_site_symmetry_2
_ccdc_geom_bond_type
C1     O25     1.305   .     A
C1     C12     1.460   .     S
C1     O27     1.295   .     A
C2     O26     1.307   .     A
C2     C11     1.462   .     S
C2     O28     1.294   .     A
C3     O31     1.294   .     A
C3     O29     1.294   .     A
C3     C5      1.434   .     S
C4     O32     1.296   .     A
C4     C6      1.434   .     S
C4     O30     1.291   .     A
C5     C102    1.333   1_455 S
C5     H115    1.086   1_455 S
C6     C53     1.333   .     S
C6     H68     1.084   .     S
C7     C12     1.413   .     A
C7     Cl33    1.766   .     S
C7     C297    1.381   1_545 S
C8     Cl34    1.766   .     S
C8     C11     1.414   .     A
C8     C154    1.385   .     S
C9     C11     1.397   .     A
C9     H21     1.077   .     S
C9     C151    1.381   .     S
C10    H22     1.080   .     S
C10    C12     1.401   .     A
C10    C296    1.385   1_545 S
C13    Cl35    1.762   .     S
C13    N24     1.373   .     A
C13    C879    1.429   1_554 S
C14    N23     1.374   .     A
C14    Cl36    1.762   .     S
C14    C448    1.428   .     S
C15    N23     1.373   .     A
C15    N37     1.422   .     S
C15    C445    1.429   .     S
C16    N24     1.373   .     A
C16    N43     1.422   .     S
C16    C878    1.428   1_554 S
Cu17   O25     1.975   .     S
Cu17   Cu18    2.699   .     S
Cu17   N23     2.029   .     S
Cu17   O29     1.959   .     S
Cu17   O32     1.958   .     S
Cu17   O28     1.977   .     S
Cu18   O26     1.975   .     S
Cu18   O30     1.959   .     S
Cu18   N24     2.029   .     S
Cu18   O31     1.958   .     S
Cu18   O27     1.977   .     S
H19    C53     1.086   .     S
H20    C102    1.084   1_455 S
N37    H38     1.030   .     S
N37    C39     1.449   .     S
C39    H42     1.111   .     S
C39    H41     1.108   .     S
C39    H40     1.111   .     S
N43    H44     1.031   .     S
N43    C45     1.448   .     S
C45    H46     1.111   .     S
C45    H47     1.108   .     S
C45    H48     1.111   .     S
C49    O73     1.305   .     A
C49    C60     1.460   .     S
C49    O75     1.295   .     A
C50    O74     1.307   .     A
C50    C59     1.462   .     S
C50    O76     1.294   .     A
C51    O79     1.294   .     A
C51    O77     1.294   .     A
C51    C53     1.434   .     S
C52    O80     1.296   .     A
C52    C54     1.434   .     S
C52    O78     1.291   .     A
C54    C101    1.333   .     S
C54    H116    1.084   .     S
C55    C60     1.413   .     A
C55    Cl81    1.766   .     S
C55    C345    1.381   1_545 S
C56    Cl82    1.766   .     S
C56    C59     1.414   .     A
C56    C202    1.385   .     S
C57    C59     1.397   .     A
C57    H69     1.077   .     S
C57    C199    1.381   .     S
C58    H70     1.080   .     S
C58    C60     1.401   .     A
C58    C344    1.385   1_545 S
C61    Cl83    1.762   .     S
C61    N72     1.373   .     A
C61    C927    1.429   1_554 S
C62    N71     1.374   .     A
C62    Cl84    1.762   .     S
C62    C496    1.428   .     S
C63    N71     1.373   .     A
C63    N85     1.422   .     S
C63    C493    1.429   .     S
C64    N72     1.373   .     A
C64    N91     1.422   .     S
C64    C926    1.428   1_554 S
Cu65   O73     1.975   .     S
Cu65   Cu66    2.699   .     S
Cu65   N71     2.029   .     S
Cu65   O77     1.959   .     S
Cu65   O80     1.958   .     S
Cu65   O76     1.977   .     S
Cu66   O74     1.975   .     S
Cu66   O78     1.959   .     S
Cu66   N72     2.029   .     S
Cu66   O79     1.958   .     S
Cu66   O75     1.977   .     S
H67    C101    1.086   .     S
N85    H86     1.030   .     S
N85    C87     1.449   .     S
C87    H90     1.111   .     S
C87    H89     1.108   .     S
C87    H88     1.111   .     S
N91    H92     1.031   .     S
N91    C93     1.448   .     S
C93    H94     1.111   .     S
C93    H95     1.108   .     S
C93    H96     1.111   .     S
C97    O121    1.305   .     A
C97    C108    1.460   .     S
C97    O123    1.295   .     A
C98    O122    1.307   .     A
C98    C107    1.462   .     S
C98    O124    1.294   .     A
C99    O127    1.294   .     A
C99    O125    1.294   .     A
C99    C101    1.434   .     S
C100   O128    1.296   .     A
C100   C102    1.434   .     S
C100   O126    1.291   .     A
C102   C5      1.333   1_655 S
C102   H20     1.084   1_655 S
C103   C108    1.413   .     A
C103   Cl129   1.766   .     S
C103   C393    1.381   1_545 S
C104   Cl130   1.766   .     S
C104   C107    1.414   .     A
C104   C250    1.385   .     S
C105   C107    1.397   .     A
C105   H117    1.077   .     S
C105   C247    1.381   .     S
C106   H118    1.080   .     S
C106   C108    1.401   .     A
C106   C392    1.385   1_545 S
C109   Cl131   1.762   .     S
C109   N120    1.373   .     A
C109   C975    1.429   1_554 S
C110   N119    1.374   .     A
C110   Cl132   1.762   .     S
C110   C544    1.428   .     S
C111   N119    1.373   .     A
C111   N133    1.422   .     S
C111   C541    1.429   .     S
C112   N120    1.373   .     A
C112   N139    1.422   .     S
C112   C974    1.428   1_554 S
Cu113  O121    1.975   .     S
Cu113  Cu114   2.699   .     S
Cu113  N119    2.029   .     S
Cu113  O125    1.959   .     S
Cu113  O128    1.958   .     S
Cu113  O124    1.977   .     S
Cu114  O122    1.975   .     S
Cu114  O126    1.959   .     S
Cu114  N120    2.029   .     S
Cu114  O127    1.958   .     S
Cu114  O123    1.977   .     S
H115   C5      1.086   1_655 S
N133   H134    1.030   .     S
N133   C135    1.449   .     S
C135   H138    1.111   .     S
C135   H137    1.108   .     S
C135   H136    1.111   .     S
N139   H140    1.031   .     S
N139   C141    1.448   .     S
C141   H142    1.111   .     S
C141   H143    1.108   .     S
C141   H144    1.111   .     S
C145   O169    1.305   .     A
C145   C156    1.460   .     S
C145   O171    1.295   .     A
C146   O170    1.307   .     A
C146   C155    1.462   .     S
C146   O172    1.294   .     A
C147   O175    1.294   .     A
C147   O173    1.294   .     A
C147   C149    1.434   .     S
C148   O176    1.296   .     A
C148   C150    1.434   .     S
C148   O174    1.291   .     A
C149   C246    1.333   1_455 S
C149   H259    1.086   1_455 S
C150   C197    1.333   .     S
C150   H212    1.084   .     S
C151   C156    1.413   .     A
C151   Cl177   1.766   .     S
C152   Cl178   1.766   .     S
C152   C155    1.414   .     A
C152   C298    1.385   .     S
C153   C155    1.397   .     A
C153   H165    1.077   .     S
C153   C295    1.381   .     S
C154   H166    1.080   .     S
C154   C156    1.401   .     A
C157   Cl179   1.762   .     S
C157   N168    1.373   .     A
C157   C1023   1.429   1_554 S
C158   N167    1.374   .     A
C158   Cl180   1.762   .     S
C158   C592    1.428   .     S
C159   N167    1.373   .     A
C159   N181    1.422   .     S
C159   C589    1.429   .     S
C160   N168    1.373   .     A
C160   N187    1.422   .     S
C160   C1022   1.428   1_554 S
Cu161  O169    1.975   .     S
Cu161  Cu162   2.699   .     S
Cu161  N167    2.029   .     S
Cu161  O173    1.959   .     S
Cu161  O176    1.958   .     S
Cu161  O172    1.977   .     S
Cu162  O170    1.975   .     S
Cu162  O174    1.959   .     S
Cu162  N168    2.029   .     S
Cu162  O175    1.958   .     S
Cu162  O171    1.977   .     S
H163   C197    1.086   .     S
H164   C246    1.084   1_455 S
N181   H182    1.030   .     S
N181   C183    1.449   .     S
C183   H186    1.111   .     S
C183   H185    1.108   .     S
C183   H184    1.111   .     S
N187   H188    1.031   .     S
N187   C189    1.448   .     S
C189   H190    1.111   .     S
C189   H191    1.108   .     S
C189   H192    1.111   .     S
C193   O217    1.305   .     A
C193   C204    1.460   .     S
C193   O219    1.295   .     A
C194   O218    1.307   .     A
C194   C203    1.462   .     S
C194   O220    1.294   .     A
C195   O223    1.294   .     A
C195   O221    1.294   .     A
C195   C197    1.434   .     S
C196   O224    1.296   .     A
C196   C198    1.434   .     S
C196   O222    1.291   .     A
C198   C245    1.333   .     S
C198   H260    1.084   .     S
C199   C204    1.413   .     A
C199   Cl225   1.766   .     S
C200   Cl226   1.766   .     S
C200   C203    1.414   .     A
C200   C346    1.385   .     S
C201   C203    1.397   .     A
C201   H213    1.077   .     S
C201   C343    1.381   .     S
C202   H214    1.080   .     S
C202   C204    1.401   .     A
C205   Cl227   1.762   .     S
C205   N216    1.373   .     A
C205   C1071   1.429   1_554 S
C206   N215    1.374   .     A
C206   Cl228   1.762   .     S
C206   C640    1.428   .     S
C207   N215    1.373   .     A
C207   N229    1.422   .     S
C207   C637    1.429   .     S
C208   N216    1.373   .     A
C208   N235    1.422   .     S
C208   C1070   1.428   1_554 S
Cu209  O217    1.975   .     S
Cu209  Cu210   2.699   .     S
Cu209  N215    2.029   .     S
Cu209  O221    1.959   .     S
Cu209  O224    1.958   .     S
Cu209  O220    1.977   .     S
Cu210  O218    1.975   .     S
Cu210  O222    1.959   .     S
Cu210  N216    2.029   .     S
Cu210  O223    1.958   .     S
Cu210  O219    1.977   .     S
H211   C245    1.086   .     S
N229   H230    1.030   .     S
N229   C231    1.449   .     S
C231   H234    1.111   .     S
C231   H233    1.108   .     S
C231   H232    1.111   .     S
N235   H236    1.031   .     S
N235   C237    1.448   .     S
C237   H238    1.111   .     S
C237   H239    1.108   .     S
C237   H240    1.111   .     S
C241   O265    1.305   .     A
C241   C252    1.460   .     S
C241   O267    1.295   .     A
C242   O266    1.307   .     A
C242   C251    1.462   .     S
C242   O268    1.294   .     A
C243   O271    1.294   .     A
C243   O269    1.294   .     A
C243   C245    1.434   .     S
C244   O272    1.296   .     A
C244   C246    1.434   .     S
C244   O270    1.291   .     A
C246   C149    1.333   1_655 S
C246   H164    1.084   1_655 S
C247   C252    1.413   .     A
C247   Cl273   1.766   .     S
C248   Cl274   1.766   .     S
C248   C251    1.414   .     A
C248   C394    1.385   .     S
C249   C251    1.397   .     A
C249   H261    1.077   .     S
C249   C391    1.381   .     S
C250   H262    1.080   .     S
C250   C252    1.401   .     A
C253   Cl275   1.762   .     S
C253   N264    1.373   .     A
C253   C1119   1.429   1_554 S
C254   N263    1.374   .     A
C254   Cl276   1.762   .     S
C254   C688    1.428   .     S
C255   N263    1.373   .     A
C255   N277    1.422   .     S
C255   C685    1.429   .     S
C256   N264    1.373   .     A
C256   N283    1.422   .     S
C256   C1118   1.428   1_554 S
Cu257  O265    1.975   .     S
Cu257  Cu258   2.699   .     S
Cu257  N263    2.029   .     S
Cu257  O269    1.959   .     S
Cu257  O272    1.958   .     S
Cu257  O268    1.977   .     S
Cu258  O266    1.975   .     S
Cu258  O270    1.959   .     S
Cu258  N264    2.029   .     S
Cu258  O271    1.958   .     S
Cu258  O267    1.977   .     S
H259   C149    1.086   1_655 S
N277   H278    1.030   .     S
N277   C279    1.449   .     S
C279   H282    1.111   .     S
C279   H281    1.108   .     S
C279   H280    1.111   .     S
N283   H284    1.031   .     S
N283   C285    1.448   .     S
C285   H286    1.111   .     S
C285   H287    1.108   .     S
C285   H288    1.111   .     S
C289   O313    1.305   .     A
C289   C300    1.460   .     S
C289   O315    1.295   .     A
C290   O314    1.307   .     A
C290   C299    1.462   .     S
C290   O316    1.294   .     A
C291   O319    1.294   .     A
C291   O317    1.294   .     A
C291   C293    1.434   .     S
C292   O320    1.296   .     A
C292   C294    1.434   .     S
C292   O318    1.291   .     A
C293   C390    1.333   1_455 S
C293   H403    1.086   1_455 S
C294   C341    1.333   .     S
C294   H356    1.084   .     S
C295   C300    1.413   .     A
C295   Cl321   1.766   .     S
C296   Cl322   1.766   .     S
C296   C299    1.414   .     A
C296   C10     1.385   1_565 S
C297   C299    1.397   .     A
C297   H309    1.077   .     S
C297   C7      1.381   1_565 S
C298   H310    1.080   .     S
C298   C300    1.401   .     A
C301   Cl323   1.762   .     S
C301   N312    1.373   .     A
C301   C1167   1.429   1_554 S
C302   N311    1.374   .     A
C302   Cl324   1.762   .     S
C302   C736    1.428   .     S
C303   N311    1.373   .     A
C303   N325    1.422   .     S
C303   C733    1.429   .     S
C304   N312    1.373   .     A
C304   N331    1.422   .     S
C304   C1166   1.428   1_554 S
Cu305  O313    1.975   .     S
Cu305  Cu306   2.699   .     S
Cu305  N311    2.029   .     S
Cu305  O317    1.959   .     S
Cu305  O320    1.958   .     S
Cu305  O316    1.977   .     S
Cu306  O314    1.975   .     S
Cu306  O318    1.959   .     S
Cu306  N312    2.029   .     S
Cu306  O319    1.958   .     S
Cu306  O315    1.977   .     S
H307   C341    1.086   .     S
H308   C390    1.084   1_455 S
N325   H326    1.030   .     S
N325   C327    1.449   .     S
C327   H330    1.111   .     S
C327   H329    1.108   .     S
C327   H328    1.111   .     S
N331   H332    1.031   .     S
N331   C333    1.448   .     S
C333   H334    1.111   .     S
C333   H335    1.108   .     S
C333   H336    1.111   .     S
C337   O361    1.305   .     A
C337   C348    1.460   .     S
C337   O363    1.295   .     A
C338   O362    1.307   .     A
C338   C347    1.462   .     S
C338   O364    1.294   .     A
C339   O367    1.294   .     A
C339   O365    1.294   .     A
C339   C341    1.434   .     S
C340   O368    1.296   .     A
C340   C342    1.434   .     S
C340   O366    1.291   .     A
C342   C389    1.333   .     S
C342   H404    1.084   .     S
C343   C348    1.413   .     A
C343   Cl369   1.766   .     S
C344   Cl370   1.766   .     S
C344   C347    1.414   .     A
C344   C58     1.385   1_565 S
C345   C347    1.397   .     A
C345   H357    1.077   .     S
C345   C55     1.381   1_565 S
C346   H358    1.080   .     S
C346   C348    1.401   .     A
C349   Cl371   1.762   .     S
C349   N360    1.373   .     A
C349   C1215   1.429   1_554 S
C350   N359    1.374   .     A
C350   Cl372   1.762   .     S
C350   C784    1.428   .     S
C351   N359    1.373   .     A
C351   N373    1.422   .     S
C351   C781    1.429   .     S
C352   N360    1.373   .     A
C352   N379    1.422   .     S
C352   C1214   1.428   1_554 S
Cu353  O361    1.975   .     S
Cu353  Cu354   2.699   .     S
Cu353  N359    2.029   .     S
Cu353  O365    1.959   .     S
Cu353  O368    1.958   .     S
Cu353  O364    1.977   .     S
Cu354  O362    1.975   .     S
Cu354  O366    1.959   .     S
Cu354  N360    2.029   .     S
Cu354  O367    1.958   .     S
Cu354  O363    1.977   .     S
H355   C389    1.086   .     S
N373   H374    1.030   .     S
N373   C375    1.449   .     S
C375   H378    1.111   .     S
C375   H377    1.108   .     S
C375   H376    1.111   .     S
N379   H380    1.031   .     S
N379   C381    1.448   .     S
C381   H382    1.111   .     S
C381   H383    1.108   .     S
C381   H384    1.111   .     S
C385   O409    1.305   .     A
C385   C396    1.460   .     S
C385   O411    1.295   .     A
C386   O410    1.307   .     A
C386   C395    1.462   .     S
C386   O412    1.294   .     A
C387   O415    1.294   .     A
C387   O413    1.294   .     A
C387   C389    1.434   .     S
C388   O416    1.296   .     A
C388   C390    1.434   .     S
C388   O414    1.291   .     A
C390   C293    1.333   1_655 S
C390   H308    1.084   1_655 S
C391   C396    1.413   .     A
C391   Cl417   1.766   .     S
C392   Cl418   1.766   .     S
C392   C395    1.414   .     A
C392   C106    1.385   1_565 S
C393   C395    1.397   .     A
C393   H405    1.077   .     S
C393   C103    1.381   1_565 S
C394   H406    1.080   .     S
C394   C396    1.401   .     A
C397   Cl419   1.762   .     S
C397   N408    1.373   .     A
C397   C1263   1.429   1_554 S
C398   N407    1.374   .     A
C398   Cl420   1.762   .     S
C398   C832    1.428   .     S
C399   N407    1.373   .     A
C399   N421    1.422   .     S
C399   C829    1.429   .     S
C400   N408    1.373   .     A
C400   N427    1.422   .     S
C400   C1262   1.428   1_554 S
Cu401  O409    1.975   .     S
Cu401  Cu402   2.699   .     S
Cu401  N407    2.029   .     S
Cu401  O413    1.959   .     S
Cu401  O416    1.958   .     S
Cu401  O412    1.977   .     S
Cu402  O410    1.975   .     S
Cu402  O414    1.959   .     S
Cu402  N408    2.029   .     S
Cu402  O415    1.958   .     S
Cu402  O411    1.977   .     S
H403   C293    1.086   1_655 S
N421   H422    1.030   .     S
N421   C423    1.449   .     S
C423   H426    1.111   .     S
C423   H425    1.108   .     S
C423   H424    1.111   .     S
N427   H428    1.031   .     S
N427   C429    1.448   .     S
C429   H430    1.111   .     S
C429   H431    1.108   .     S
C429   H432    1.111   .     S
C433   O457    1.305   .     A
C433   C444    1.460   .     S
C433   O459    1.295   .     A
C434   O458    1.307   .     A
C434   C443    1.462   .     S
C434   O460    1.294   .     A
C435   O463    1.294   .     A
C435   O461    1.294   .     A
C435   C437    1.434   .     S
C436   O464    1.296   .     A
C436   C438    1.434   .     S
C436   O462    1.291   .     A
C437   C534    1.333   1_455 S
C437   H547    1.086   1_455 S
C438   C485    1.333   .     S
C438   H500    1.084   .     S
C439   C444    1.413   .     A
C439   Cl465   1.766   .     S
C439   C729    1.381   1_545 S
C440   Cl466   1.766   .     S
C440   C443    1.414   .     A
C440   C586    1.385   .     S
C441   C443    1.397   .     A
C441   H453    1.077   .     S
C441   C583    1.381   .     S
C442   H454    1.080   .     S
C442   C444    1.401   .     A
C442   C728    1.385   1_545 S
C445   Cl467   1.762   .     S
C445   N456    1.373   .     A
C446   N455    1.374   .     A
C446   Cl468   1.762   .     S
C446   C880    1.428   .     S
C447   N455    1.373   .     A
C447   N469    1.422   .     S
C447   C877    1.429   .     S
C448   N456    1.373   .     A
C448   N475    1.422   .     S
Cu449  O457    1.975   .     S
Cu449  Cu450   2.699   .     S
Cu449  N455    2.029   .     S
Cu449  O461    1.959   .     S
Cu449  O464    1.958   .     S
Cu449  O460    1.977   .     S
Cu450  O458    1.975   .     S
Cu450  O462    1.959   .     S
Cu450  N456    2.029   .     S
Cu450  O463    1.958   .     S
Cu450  O459    1.977   .     S
H451   C485    1.086   .     S
H452   C534    1.084   1_455 S
N469   H470    1.030   .     S
N469   C471    1.449   .     S
C471   H474    1.111   .     S
C471   H473    1.108   .     S
C471   H472    1.111   .     S
N475   H476    1.031   .     S
N475   C477    1.448   .     S
C477   H478    1.111   .     S
C477   H479    1.108   .     S
C477   H480    1.111   .     S
C481   O505    1.305   .     A
C481   C492    1.460   .     S
C481   O507    1.295   .     A
C482   O506    1.307   .     A
C482   C491    1.462   .     S
C482   O508    1.294   .     A
C483   O511    1.294   .     A
C483   O509    1.294   .     A
C483   C485    1.434   .     S
C484   O512    1.296   .     A
C484   C486    1.434   .     S
C484   O510    1.291   .     A
C486   C533    1.333   .     S
C486   H548    1.084   .     S
C487   C492    1.413   .     A
C487   Cl513   1.766   .     S
C487   C777    1.381   1_545 S
C488   Cl514   1.766   .     S
C488   C491    1.414   .     A
C488   C634    1.385   .     S
C489   C491    1.397   .     A
C489   H501    1.077   .     S
C489   C631    1.381   .     S
C490   H502    1.080   .     S
C490   C492    1.401   .     A
C490   C776    1.385   1_545 S
C493   Cl515   1.762   .     S
C493   N504    1.373   .     A
C494   N503    1.374   .     A
C494   Cl516   1.762   .     S
C494   C928    1.428   .     S
C495   N503    1.373   .     A
C495   N517    1.422   .     S
C495   C925    1.429   .     S
C496   N504    1.373   .     A
C496   N523    1.422   .     S
Cu497  O505    1.975   .     S
Cu497  Cu498   2.699   .     S
Cu497  N503    2.029   .     S
Cu497  O509    1.959   .     S
Cu497  O512    1.958   .     S
Cu497  O508    1.977   .     S
Cu498  O506    1.975   .     S
Cu498  O510    1.959   .     S
Cu498  N504    2.029   .     S
Cu498  O511    1.958   .     S
Cu498  O507    1.977   .     S
H499   C533    1.086   .     S
N517   H518    1.030   .     S
N517   C519    1.449   .     S
C519   H522    1.111   .     S
C519   H521    1.108   .     S
C519   H520    1.111   .     S
N523   H524    1.031   .     S
N523   C525    1.448   .     S
C525   H526    1.111   .     S
C525   H527    1.108   .     S
C525   H528    1.111   .     S
C529   O553    1.305   .     A
C529   C540    1.460   .     S
C529   O555    1.295   .     A
C530   O554    1.307   .     A
C530   C539    1.462   .     S
C530   O556    1.294   .     A
C531   O559    1.294   .     A
C531   O557    1.294   .     A
C531   C533    1.434   .     S
C532   O560    1.296   .     A
C532   C534    1.434   .     S
C532   O558    1.291   .     A
C534   C437    1.333   1_655 S
C534   H452    1.084   1_655 S
C535   C540    1.413   .     A
C535   Cl561   1.766   .     S
C535   C825    1.381   1_545 S
C536   Cl562   1.766   .     S
C536   C539    1.414   .     A
C536   C682    1.385   .     S
C537   C539    1.397   .     A
C537   H549    1.077   .     S
C537   C679    1.381   .     S
C538   H550    1.080   .     S
C538   C540    1.401   .     A
C538   C824    1.385   1_545 S
C541   Cl563   1.762   .     S
C541   N552    1.373   .     A
C542   N551    1.374   .     A
C542   Cl564   1.762   .     S
C542   C976    1.428   .     S
C543   N551    1.373   .     A
C543   N565    1.422   .     S
C543   C973    1.429   .     S
C544   N552    1.373   .     A
C544   N571    1.422   .     S
Cu545  O553    1.975   .     S
Cu545  Cu546   2.699   .     S
Cu545  N551    2.029   .     S
Cu545  O557    1.959   .     S
Cu545  O560    1.958   .     S
Cu545  O556    1.977   .     S
Cu546  O554    1.975   .     S
Cu546  O558    1.959   .     S
Cu546  N552    2.029   .     S
Cu546  O559    1.958   .     S
Cu546  O555    1.977   .     S
H547   C437    1.086   1_655 S
N565   H566    1.030   .     S
N565   C567    1.449   .     S
C567   H570    1.111   .     S
C567   H569    1.108   .     S
C567   H568    1.111   .     S
N571   H572    1.031   .     S
N571   C573    1.448   .     S
C573   H574    1.111   .     S
C573   H575    1.108   .     S
C573   H576    1.111   .     S
C577   O601    1.305   .     A
C577   C588    1.460   .     S
C577   O603    1.295   .     A
C578   O602    1.307   .     A
C578   C587    1.462   .     S
C578   O604    1.294   .     A
C579   O607    1.294   .     A
C579   O605    1.294   .     A
C579   C581    1.434   .     S
C580   O608    1.296   .     A
C580   C582    1.434   .     S
C580   O606    1.291   .     A
C581   C678    1.333   1_455 S
C581   H691    1.086   1_455 S
C582   C629    1.333   .     S
C582   H644    1.084   .     S
C583   C588    1.413   .     A
C583   Cl609   1.766   .     S
C584   Cl610   1.766   .     S
C584   C587    1.414   .     A
C584   C730    1.385   .     S
C585   C587    1.397   .     A
C585   H597    1.077   .     S
C585   C727    1.381   .     S
C586   H598    1.080   .     S
C586   C588    1.401   .     A
C589   Cl611   1.762   .     S
C589   N600    1.373   .     A
C590   N599    1.374   .     A
C590   Cl612   1.762   .     S
C590   C1024   1.428   .     S
C591   N599    1.373   .     A
C591   N613    1.422   .     S
C591   C1021   1.429   .     S
C592   N600    1.373   .     A
C592   N619    1.422   .     S
Cu593  O601    1.975   .     S
Cu593  Cu594   2.699   .     S
Cu593  N599    2.029   .     S
Cu593  O605    1.959   .     S
Cu593  O608    1.958   .     S
Cu593  O604    1.977   .     S
Cu594  O602    1.975   .     S
Cu594  O606    1.959   .     S
Cu594  N600    2.029   .     S
Cu594  O607    1.958   .     S
Cu594  O603    1.977   .     S
H595   C629    1.086   .     S
H596   C678    1.084   1_455 S
N613   H614    1.030   .     S
N613   C615    1.449   .     S
C615   H618    1.111   .     S
C615   H617    1.108   .     S
C615   H616    1.111   .     S
N619   H620    1.031   .     S
N619   C621    1.448   .     S
C621   H622    1.111   .     S
C621   H623    1.108   .     S
C621   H624    1.111   .     S
C625   O649    1.305   .     A
C625   C636    1.460   .     S
C625   O651    1.295   .     A
C626   O650    1.307   .     A
C626   C635    1.462   .     S
C626   O652    1.294   .     A
C627   O655    1.294   .     A
C627   O653    1.294   .     A
C627   C629    1.434   .     S
C628   O656    1.296   .     A
C628   C630    1.434   .     S
C628   O654    1.291   .     A
C630   C677    1.333   .     S
C630   H692    1.084   .     S
C631   C636    1.413   .     A
C631   Cl657   1.766   .     S
C632   Cl658   1.766   .     S
C632   C635    1.414   .     A
C632   C778    1.385   .     S
C633   C635    1.397   .     A
C633   H645    1.077   .     S
C633   C775    1.381   .     S
C634   H646    1.080   .     S
C634   C636    1.401   .     A
C637   Cl659   1.762   .     S
C637   N648    1.373   .     A
C638   N647    1.374   .     A
C638   Cl660   1.762   .     S
C638   C1072   1.428   .     S
C639   N647    1.373   .     A
C639   N661    1.422   .     S
C639   C1069   1.429   .     S
C640   N648    1.373   .     A
C640   N667    1.422   .     S
Cu641  O649    1.975   .     S
Cu641  Cu642   2.699   .     S
Cu641  N647    2.029   .     S
Cu641  O653    1.959   .     S
Cu641  O656    1.958   .     S
Cu641  O652    1.977   .     S
Cu642  O650    1.975   .     S
Cu642  O654    1.959   .     S
Cu642  N648    2.029   .     S
Cu642  O655    1.958   .     S
Cu642  O651    1.977   .     S
H643   C677    1.086   .     S
N661   H662    1.030   .     S
N661   C663    1.449   .     S
C663   H666    1.111   .     S
C663   H665    1.108   .     S
C663   H664    1.111   .     S
N667   H668    1.031   .     S
N667   C669    1.448   .     S
C669   H670    1.111   .     S
C669   H671    1.108   .     S
C669   H672    1.111   .     S
C673   O697    1.305   .     A
C673   C684    1.460   .     S
C673   O699    1.295   .     A
C674   O698    1.307   .     A
C674   C683    1.462   .     S
C674   O700    1.294   .     A
C675   O703    1.294   .     A
C675   O701    1.294   .     A
C675   C677    1.434   .     S
C676   O704    1.296   .     A
C676   C678    1.434   .     S
C676   O702    1.291   .     A
C678   C581    1.333   1_655 S
C678   H596    1.084   1_655 S
C679   C684    1.413   .     A
C679   Cl705   1.766   .     S
C680   Cl706   1.766   .     S
C680   C683    1.414   .     A
C680   C826    1.385   .     S
C681   C683    1.397   .     A
C681   H693    1.077   .     S
C681   C823    1.381   .     S
C682   H694    1.080   .     S
C682   C684    1.401   .     A
C685   Cl707   1.762   .     S
C685   N696    1.373   .     A
C686   N695    1.374   .     A
C686   Cl708   1.762   .     S
C686   C1120   1.428   .     S
C687   N695    1.373   .     A
C687   N709    1.422   .     S
C687   C1117   1.429   .     S
C688   N696    1.373   .     A
C688   N715    1.422   .     S
Cu689  O697    1.975   .     S
Cu689  Cu690   2.699   .     S
Cu689  N695    2.029   .     S
Cu689  O701    1.959   .     S
Cu689  O704    1.958   .     S
Cu689  O700    1.977   .     S
Cu690  O698    1.975   .     S
Cu690  O702    1.959   .     S
Cu690  N696    2.029   .     S
Cu690  O703    1.958   .     S
Cu690  O699    1.977   .     S
H691   C581    1.086   1_655 S
N709   H710    1.030   .     S
N709   C711    1.449   .     S
C711   H714    1.111   .     S
C711   H713    1.108   .     S
C711   H712    1.111   .     S
N715   H716    1.031   .     S
N715   C717    1.448   .     S
C717   H718    1.111   .     S
C717   H719    1.108   .     S
C717   H720    1.111   .     S
C721   O745    1.305   .     A
C721   C732    1.460   .     S
C721   O747    1.295   .     A
C722   O746    1.307   .     A
C722   C731    1.462   .     S
C722   O748    1.294   .     A
C723   O751    1.294   .     A
C723   O749    1.294   .     A
C723   C725    1.434   .     S
C724   O752    1.296   .     A
C724   C726    1.434   .     S
C724   O750    1.291   .     A
C725   C822    1.333   1_455 S
C725   H835    1.086   1_455 S
C726   C773    1.333   .     S
C726   H788    1.084   .     S
C727   C732    1.413   .     A
C727   Cl753   1.766   .     S
C728   Cl754   1.766   .     S
C728   C731    1.414   .     A
C728   C442    1.385   1_565 S
C729   C731    1.397   .     A
C729   H741    1.077   .     S
C729   C439    1.381   1_565 S
C730   H742    1.080   .     S
C730   C732    1.401   .     A
C733   Cl755   1.762   .     S
C733   N744    1.373   .     A
C734   N743    1.374   .     A
C734   Cl756   1.762   .     S
C734   C1168   1.428   .     S
C735   N743    1.373   .     A
C735   N757    1.422   .     S
C735   C1165   1.429   .     S
C736   N744    1.373   .     A
C736   N763    1.422   .     S
Cu737  O745    1.975   .     S
Cu737  Cu738   2.699   .     S
Cu737  N743    2.029   .     S
Cu737  O749    1.959   .     S
Cu737  O752    1.958   .     S
Cu737  O748    1.977   .     S
Cu738  O746    1.975   .     S
Cu738  O750    1.959   .     S
Cu738  N744    2.029   .     S
Cu738  O751    1.958   .     S
Cu738  O747    1.977   .     S
H739   C773    1.086   .     S
H740   C822    1.084   1_455 S
N757   H758    1.030   .     S
N757   C759    1.449   .     S
C759   H762    1.111   .     S
C759   H761    1.108   .     S
C759   H760    1.111   .     S
N763   H764    1.031   .     S
N763   C765    1.448   .     S
C765   H766    1.111   .     S
C765   H767    1.108   .     S
C765   H768    1.111   .     S
C769   O793    1.305   .     A
C769   C780    1.460   .     S
C769   O795    1.295   .     A
C770   O794    1.307   .     A
C770   C779    1.462   .     S
C770   O796    1.294   .     A
C771   O799    1.294   .     A
C771   O797    1.294   .     A
C771   C773    1.434   .     S
C772   O800    1.296   .     A
C772   C774    1.434   .     S
C772   O798    1.291   .     A
C774   C821    1.333   .     S
C774   H836    1.084   .     S
C775   C780    1.413   .     A
C775   Cl801   1.766   .     S
C776   Cl802   1.766   .     S
C776   C779    1.414   .     A
C776   C490    1.385   1_565 S
C777   C779    1.397   .     A
C777   H789    1.077   .     S
C777   C487    1.381   1_565 S
C778   H790    1.080   .     S
C778   C780    1.401   .     A
C781   Cl803   1.762   .     S
C781   N792    1.373   .     A
C782   N791    1.374   .     A
C782   Cl804   1.762   .     S
C782   C1216   1.428   .     S
C783   N791    1.373   .     A
C783   N805    1.422   .     S
C783   C1213   1.429   .     S
C784   N792    1.373   .     A
C784   N811    1.422   .     S
Cu785  O793    1.975   .     S
Cu785  Cu786   2.699   .     S
Cu785  N791    2.029   .     S
Cu785  O797    1.959   .     S
Cu785  O800    1.958   .     S
Cu785  O796    1.977   .     S
Cu786  O794    1.975   .     S
Cu786  O798    1.959   .     S
Cu786  N792    2.029   .     S
Cu786  O799    1.958   .     S
Cu786  O795    1.977   .     S
H787   C821    1.086   .     S
N805   H806    1.030   .     S
N805   C807    1.449   .     S
C807   H810    1.111   .     S
C807   H809    1.108   .     S
C807   H808    1.111   .     S
N811   H812    1.031   .     S
N811   C813    1.448   .     S
C813   H814    1.111   .     S
C813   H815    1.108   .     S
C813   H816    1.111   .     S
C817   O841    1.305   .     A
C817   C828    1.460   .     S
C817   O843    1.295   .     A
C818   O842    1.307   .     A
C818   C827    1.462   .     S
C818   O844    1.294   .     A
C819   O847    1.294   .     A
C819   O845    1.294   .     A
C819   C821    1.434   .     S
C820   O848    1.296   .     A
C820   C822    1.434   .     S
C820   O846    1.291   .     A
C822   C725    1.333   1_655 S
C822   H740    1.084   1_655 S
C823   C828    1.413   .     A
C823   Cl849   1.766   .     S
C824   Cl850   1.766   .     S
C824   C827    1.414   .     A
C824   C538    1.385   1_565 S
C825   C827    1.397   .     A
C825   H837    1.077   .     S
C825   C535    1.381   1_565 S
C826   H838    1.080   .     S
C826   C828    1.401   .     A
C829   Cl851   1.762   .     S
C829   N840    1.373   .     A
C830   N839    1.374   .     A
C830   Cl852   1.762   .     S
C830   C1264   1.428   .     S
C831   N839    1.373   .     A
C831   N853    1.422   .     S
C831   C1261   1.429   .     S
C832   N840    1.373   .     A
C832   N859    1.422   .     S
Cu833  O841    1.975   .     S
Cu833  Cu834   2.699   .     S
Cu833  N839    2.029   .     S
Cu833  O845    1.959   .     S
Cu833  O848    1.958   .     S
Cu833  O844    1.977   .     S
Cu834  O842    1.975   .     S
Cu834  O846    1.959   .     S
Cu834  N840    2.029   .     S
Cu834  O847    1.958   .     S
Cu834  O843    1.977   .     S
H835   C725    1.086   1_655 S
N853   H854    1.030   .     S
N853   C855    1.449   .     S
C855   H858    1.111   .     S
C855   H857    1.108   .     S
C855   H856    1.111   .     S
N859   H860    1.031   .     S
N859   C861    1.448   .     S
C861   H862    1.111   .     S
C861   H863    1.108   .     S
C861   H864    1.111   .     S
C865   O889    1.305   .     A
C865   C876    1.460   .     S
C865   O891    1.295   .     A
C866   O890    1.307   .     A
C866   C875    1.462   .     S
C866   O892    1.294   .     A
C867   O895    1.294   .     A
C867   O893    1.294   .     A
C867   C869    1.434   .     S
C868   O896    1.296   .     A
C868   C870    1.434   .     S
C868   O894    1.291   .     A
C869   C966    1.333   1_455 S
C869   H979    1.086   1_455 S
C870   C917    1.333   .     S
C870   H932    1.084   .     S
C871   C876    1.413   .     A
C871   Cl897   1.766   .     S
C871   C1161   1.381   1_545 S
C872   Cl898   1.766   .     S
C872   C875    1.414   .     A
C872   C1018   1.385   .     S
C873   C875    1.397   .     A
C873   H885    1.077   .     S
C873   C1015   1.381   .     S
C874   H886    1.080   .     S
C874   C876    1.401   .     A
C874   C1160   1.385   1_545 S
C877   Cl899   1.762   .     S
C877   N888    1.373   .     A
C878   N887    1.374   .     A
C878   Cl900   1.762   .     S
C878   C16     1.428   1_556 S
C879   N887    1.373   .     A
C879   N901    1.422   .     S
C879   C13     1.429   1_556 S
C880   N888    1.373   .     A
C880   N907    1.422   .     S
Cu881  O889    1.975   .     S
Cu881  Cu882   2.699   .     S
Cu881  N887    2.029   .     S
Cu881  O893    1.959   .     S
Cu881  O896    1.958   .     S
Cu881  O892    1.977   .     S
Cu882  O890    1.975   .     S
Cu882  O894    1.959   .     S
Cu882  N888    2.029   .     S
Cu882  O895    1.958   .     S
Cu882  O891    1.977   .     S
H883   C917    1.086   .     S
H884   C966    1.084   1_455 S
N901   H902    1.030   .     S
N901   C903    1.449   .     S
C903   H906    1.111   .     S
C903   H905    1.108   .     S
C903   H904    1.111   .     S
N907   H908    1.031   .     S
N907   C909    1.448   .     S
C909   H910    1.111   .     S
C909   H911    1.108   .     S
C909   H912    1.111   .     S
C913   O937    1.305   .     A
C913   C924    1.460   .     S
C913   O939    1.295   .     A
C914   O938    1.307   .     A
C914   C923    1.462   .     S
C914   O940    1.294   .     A
C915   O943    1.294   .     A
C915   O941    1.294   .     A
C915   C917    1.434   .     S
C916   O944    1.296   .     A
C916   C918    1.434   .     S
C916   O942    1.291   .     A
C918   C965    1.333   .     S
C918   H980    1.084   .     S
C919   C924    1.413   .     A
C919   Cl945   1.766   .     S
C919   C1209   1.381   1_545 S
C920   Cl946   1.766   .     S
C920   C923    1.414   .     A
C920   C1066   1.385   .     S
C921   C923    1.397   .     A
C921   H933    1.077   .     S
C921   C1063   1.381   .     S
C922   H934    1.080   .     S
C922   C924    1.401   .     A
C922   C1208   1.385   1_545 S
C925   Cl947   1.762   .     S
C925   N936    1.373   .     A
C926   N935    1.374   .     A
C926   Cl948   1.762   .     S
C926   C64     1.428   1_556 S
C927   N935    1.373   .     A
C927   N949    1.422   .     S
C927   C61     1.429   1_556 S
C928   N936    1.373   .     A
C928   N955    1.422   .     S
Cu929  O937    1.975   .     S
Cu929  Cu930   2.699   .     S
Cu929  N935    2.029   .     S
Cu929  O941    1.959   .     S
Cu929  O944    1.958   .     S
Cu929  O940    1.977   .     S
Cu930  O938    1.975   .     S
Cu930  O942    1.959   .     S
Cu930  N936    2.029   .     S
Cu930  O943    1.958   .     S
Cu930  O939    1.977   .     S
H931   C965    1.086   .     S
N949   H950    1.030   .     S
N949   C951    1.449   .     S
C951   H954    1.111   .     S
C951   H953    1.108   .     S
C951   H952    1.111   .     S
N955   H956    1.031   .     S
N955   C957    1.448   .     S
C957   H958    1.111   .     S
C957   H959    1.108   .     S
C957   H960    1.111   .     S
C961   O985    1.305   .     A
C961   C972    1.460   .     S
C961   O987    1.295   .     A
C962   O986    1.307   .     A
C962   C971    1.462   .     S
C962   O988    1.294   .     A
C963   O991    1.294   .     A
C963   O989    1.294   .     A
C963   C965    1.434   .     S
C964   O992    1.296   .     A
C964   C966    1.434   .     S
C964   O990    1.291   .     A
C966   C869    1.333   1_655 S
C966   H884    1.084   1_655 S
C967   C972    1.413   .     A
C967   Cl993   1.766   .     S
C967   C1257   1.381   1_545 S
C968   Cl994   1.766   .     S
C968   C971    1.414   .     A
C968   C1114   1.385   .     S
C969   C971    1.397   .     A
C969   H981    1.077   .     S
C969   C1111   1.381   .     S
C970   H982    1.080   .     S
C970   C972    1.401   .     A
C970   C1256   1.385   1_545 S
C973   Cl995   1.762   .     S
C973   N984    1.373   .     A
C974   N983    1.374   .     A
C974   Cl996   1.762   .     S
C974   C112    1.428   1_556 S
C975   N983    1.373   .     A
C975   N997    1.422   .     S
C975   C109    1.429   1_556 S
C976   N984    1.373   .     A
C976   N1003   1.422   .     S
Cu977  O985    1.975   .     S
Cu977  Cu978   2.699   .     S
Cu977  N983    2.029   .     S
Cu977  O989    1.959   .     S
Cu977  O992    1.958   .     S
Cu977  O988    1.977   .     S
Cu978  O986    1.975   .     S
Cu978  O990    1.959   .     S
Cu978  N984    2.029   .     S
Cu978  O991    1.958   .     S
Cu978  O987    1.977   .     S
H979   C869    1.086   1_655 S
N997   H998    1.030   .     S
N997   C999    1.449   .     S
C999   H1002   1.111   .     S
C999   H1001   1.108   .     S
C999   H1000   1.111   .     S
N1003  H1004   1.031   .     S
N1003  C1005   1.448   .     S
C1005  H1006   1.111   .     S
C1005  H1007   1.108   .     S
C1005  H1008   1.111   .     S
C1009  O1033   1.305   .     A
C1009  C1020   1.460   .     S
C1009  O1035   1.295   .     A
C1010  O1034   1.307   .     A
C1010  C1019   1.462   .     S
C1010  O1036   1.294   .     A
C1011  O1039   1.294   .     A
C1011  O1037   1.294   .     A
C1011  C1013   1.434   .     S
C1012  O1040   1.296   .     A
C1012  C1014   1.434   .     S
C1012  O1038   1.291   .     A
C1013  C1110   1.333   1_455 S
C1013  H1123   1.086   1_455 S
C1014  C1061   1.333   .     S
C1014  H1076   1.084   .     S
C1015  C1020   1.413   .     A
C1015  Cl1041  1.766   .     S
C1016  Cl1042  1.766   .     S
C1016  C1019   1.414   .     A
C1016  C1162   1.385   .     S
C1017  C1019   1.397   .     A
C1017  H1029   1.077   .     S
C1017  C1159   1.381   .     S
C1018  H1030   1.080   .     S
C1018  C1020   1.401   .     A
C1021  Cl1043  1.762   .     S
C1021  N1032   1.373   .     A
C1022  N1031   1.374   .     A
C1022  Cl1044  1.762   .     S
C1022  C160    1.428   1_556 S
C1023  N1031   1.373   .     A
C1023  N1045   1.422   .     S
C1023  C157    1.429   1_556 S
C1024  N1032   1.373   .     A
C1024  N1051   1.422   .     S
Cu1025 O1033   1.975   .     S
Cu1025 Cu1026  2.699   .     S
Cu1025 N1031   2.029   .     S
Cu1025 O1037   1.959   .     S
Cu1025 O1040   1.958   .     S
Cu1025 O1036   1.977   .     S
Cu1026 O1034   1.975   .     S
Cu1026 O1038   1.959   .     S
Cu1026 N1032   2.029   .     S
Cu1026 O1039   1.958   .     S
Cu1026 O1035   1.977   .     S
H1027  C1061   1.086   .     S
H1028  C1110   1.084   1_455 S
N1045  H1046   1.030   .     S
N1045  C1047   1.449   .     S
C1047  H1050   1.111   .     S
C1047  H1049   1.108   .     S
C1047  H1048   1.111   .     S
N1051  H1052   1.031   .     S
N1051  C1053   1.448   .     S
C1053  H1054   1.111   .     S
C1053  H1055   1.108   .     S
C1053  H1056   1.111   .     S
C1057  O1081   1.305   .     A
C1057  C1068   1.460   .     S
C1057  O1083   1.295   .     A
C1058  O1082   1.307   .     A
C1058  C1067   1.462   .     S
C1058  O1084   1.294   .     A
C1059  O1087   1.294   .     A
C1059  O1085   1.294   .     A
C1059  C1061   1.434   .     S
C1060  O1088   1.296   .     A
C1060  C1062   1.434   .     S
C1060  O1086   1.291   .     A
C1062  C1109   1.333   .     S
C1062  H1124   1.084   .     S
C1063  C1068   1.413   .     A
C1063  Cl1089  1.766   .     S
C1064  Cl1090  1.766   .     S
C1064  C1067   1.414   .     A
C1064  C1210   1.385   .     S
C1065  C1067   1.397   .     A
C1065  H1077   1.077   .     S
C1065  C1207   1.381   .     S
C1066  H1078   1.080   .     S
C1066  C1068   1.401   .     A
C1069  Cl1091  1.762   .     S
C1069  N1080   1.373   .     A
C1070  N1079   1.374   .     A
C1070  Cl1092  1.762   .     S
C1070  C208    1.428   1_556 S
C1071  N1079   1.373   .     A
C1071  N1093   1.422   .     S
C1071  C205    1.429   1_556 S
C1072  N1080   1.373   .     A
C1072  N1099   1.422   .     S
Cu1073 O1081   1.975   .     S
Cu1073 Cu1074  2.699   .     S
Cu1073 N1079   2.029   .     S
Cu1073 O1085   1.959   .     S
Cu1073 O1088   1.958   .     S
Cu1073 O1084   1.977   .     S
Cu1074 O1082   1.975   .     S
Cu1074 O1086   1.959   .     S
Cu1074 N1080   2.029   .     S
Cu1074 O1087   1.958   .     S
Cu1074 O1083   1.977   .     S
H1075  C1109   1.086   .     S
N1093  H1094   1.030   .     S
N1093  C1095   1.449   .     S
C1095  H1098   1.111   .     S
C1095  H1097   1.108   .     S
C1095  H1096   1.111   .     S
N1099  H1100   1.031   .     S
N1099  C1101   1.448   .     S
C1101  H1102   1.111   .     S
C1101  H1103   1.108   .     S
C1101  H1104   1.111   .     S
C1105  O1129   1.305   .     A
C1105  C1116   1.460   .     S
C1105  O1131   1.295   .     A
C1106  O1130   1.307   .     A
C1106  C1115   1.462   .     S
C1106  O1132   1.294   .     A
C1107  O1135   1.294   .     A
C1107  O1133   1.294   .     A
C1107  C1109   1.434   .     S
C1108  O1136   1.296   .     A
C1108  C1110   1.434   .     S
C1108  O1134   1.291   .     A
C1110  C1013   1.333   1_655 S
C1110  H1028   1.084   1_655 S
C1111  C1116   1.413   .     A
C1111  Cl1137  1.766   .     S
C1112  Cl1138  1.766   .     S
C1112  C1115   1.414   .     A
C1112  C1258   1.385   .     S
C1113  C1115   1.397   .     A
C1113  H1125   1.077   .     S
C1113  C1255   1.381   .     S
C1114  H1126   1.080   .     S
C1114  C1116   1.401   .     A
C1117  Cl1139  1.762   .     S
C1117  N1128   1.373   .     A
C1118  N1127   1.374   .     A
C1118  Cl1140  1.762   .     S
C1118  C256    1.428   1_556 S
C1119  N1127   1.373   .     A
C1119  N1141   1.422   .     S
C1119  C253    1.429   1_556 S
C1120  N1128   1.373   .     A
C1120  N1147   1.422   .     S
Cu1121 O1129   1.975   .     S
Cu1121 Cu1122  2.699   .     S
Cu1121 N1127   2.029   .     S
Cu1121 O1133   1.959   .     S
Cu1121 O1136   1.958   .     S
Cu1121 O1132   1.977   .     S
Cu1122 O1130   1.975   .     S
Cu1122 O1134   1.959   .     S
Cu1122 N1128   2.029   .     S
Cu1122 O1135   1.958   .     S
Cu1122 O1131   1.977   .     S
H1123  C1013   1.086   1_655 S
N1141  H1142   1.030   .     S
N1141  C1143   1.449   .     S
C1143  H1146   1.111   .     S
C1143  H1145   1.108   .     S
C1143  H1144   1.111   .     S
N1147  H1148   1.031   .     S
N1147  C1149   1.448   .     S
C1149  H1150   1.111   .     S
C1149  H1151   1.108   .     S
C1149  H1152   1.111   .     S
C1153  O1177   1.305   .     A
C1153  C1164   1.460   .     S
C1153  O1179   1.295   .     A
C1154  O1178   1.307   .     A
C1154  C1163   1.462   .     S
C1154  O1180   1.294   .     A
C1155  O1183   1.294   .     A
C1155  O1181   1.294   .     A
C1155  C1157   1.434   .     S
C1156  O1184   1.296   .     A
C1156  C1158   1.434   .     S
C1156  O1182   1.291   .     A
C1157  C1254   1.333   1_455 S
C1157  H1267   1.086   1_455 S
C1158  C1205   1.333   .     S
C1158  H1220   1.084   .     S
C1159  C1164   1.413   .     A
C1159  Cl1185  1.766   .     S
C1160  Cl1186  1.766   .     S
C1160  C1163   1.414   .     A
C1160  C874    1.385   1_565 S
C1161  C1163   1.397   .     A
C1161  H1173   1.077   .     S
C1161  C871    1.381   1_565 S
C1162  H1174   1.080   .     S
C1162  C1164   1.401   .     A
C1165  Cl1187  1.762   .     S
C1165  N1176   1.373   .     A
C1166  N1175   1.374   .     A
C1166  Cl1188  1.762   .     S
C1166  C304    1.428   1_556 S
C1167  N1175   1.373   .     A
C1167  N1189   1.422   .     S
C1167  C301    1.429   1_556 S
C1168  N1176   1.373   .     A
C1168  N1195   1.422   .     S
Cu1169 O1177   1.975   .     S
Cu1169 Cu1170  2.699   .     S
Cu1169 N1175   2.029   .     S
Cu1169 O1181   1.959   .     S
Cu1169 O1184   1.958   .     S
Cu1169 O1180   1.977   .     S
Cu1170 O1178   1.975   .     S
Cu1170 O1182   1.959   .     S
Cu1170 N1176   2.029   .     S
Cu1170 O1183   1.958   .     S
Cu1170 O1179   1.977   .     S
H1171  C1205   1.086   .     S
H1172  C1254   1.084   1_455 S
N1189  H1190   1.030   .     S
N1189  C1191   1.449   .     S
C1191  H1194   1.111   .     S
C1191  H1193   1.108   .     S
C1191  H1192   1.111   .     S
N1195  H1196   1.031   .     S
N1195  C1197   1.448   .     S
C1197  H1198   1.111   .     S
C1197  H1199   1.108   .     S
C1197  H1200   1.111   .     S
C1201  O1225   1.305   .     A
C1201  C1212   1.460   .     S
C1201  O1227   1.295   .     A
C1202  O1226   1.307   .     A
C1202  C1211   1.462   .     S
C1202  O1228   1.294   .     A
C1203  O1231   1.294   .     A
C1203  O1229   1.294   .     A
C1203  C1205   1.434   .     S
C1204  O1232   1.296   .     A
C1204  C1206   1.434   .     S
C1204  O1230   1.291   .     A
C1206  C1253   1.333   .     S
C1206  H1268   1.084   .     S
C1207  C1212   1.413   .     A
C1207  Cl1233  1.766   .     S
C1208  Cl1234  1.766   .     S
C1208  C1211   1.414   .     A
C1208  C922    1.385   1_565 S
C1209  C1211   1.397   .     A
C1209  H1221   1.077   .     S
C1209  C919    1.381   1_565 S
C1210  H1222   1.080   .     S
C1210  C1212   1.401   .     A
C1213  Cl1235  1.762   .     S
C1213  N1224   1.373   .     A
C1214  N1223   1.374   .     A
C1214  Cl1236  1.762   .     S
C1214  C352    1.428   1_556 S
C1215  N1223   1.373   .     A
C1215  N1237   1.422   .     S
C1215  C349    1.429   1_556 S
C1216  N1224   1.373   .     A
C1216  N1243   1.422   .     S
Cu1217 O1225   1.975   .     S
Cu1217 Cu1218  2.699   .     S
Cu1217 N1223   2.029   .     S
Cu1217 O1229   1.959   .     S
Cu1217 O1232   1.958   .     S
Cu1217 O1228   1.977   .     S
Cu1218 O1226   1.975   .     S
Cu1218 O1230   1.959   .     S
Cu1218 N1224   2.029   .     S
Cu1218 O1231   1.958   .     S
Cu1218 O1227   1.977   .     S
H1219  C1253   1.086   .     S
N1237  H1238   1.030   .     S
N1237  C1239   1.449   .     S
C1239  H1242   1.111   .     S
C1239  H1241   1.108   .     S
C1239  H1240   1.111   .     S
N1243  H1244   1.031   .     S
N1243  C1245   1.448   .     S
C1245  H1246   1.111   .     S
C1245  H1247   1.108   .     S
C1245  H1248   1.111   .     S
C1249  O1273   1.305   .     A
C1249  C1260   1.460   .     S
C1249  O1275   1.295   .     A
C1250  O1274   1.307   .     A
C1250  C1259   1.462   .     S
C1250  O1276   1.294   .     A
C1251  O1279   1.294   .     A
C1251  O1277   1.294   .     A
C1251  C1253   1.434   .     S
C1252  O1280   1.296   .     A
C1252  C1254   1.434   .     S
C1252  O1278   1.291   .     A
C1254  C1157   1.333   1_655 S
C1254  H1172   1.084   1_655 S
C1255  C1260   1.413   .     A
C1255  Cl1281  1.766   .     S
C1256  Cl1282  1.766   .     S
C1256  C1259   1.414   .     A
C1256  C970    1.385   1_565 S
C1257  C1259   1.397   .     A
C1257  H1269   1.077   .     S
C1257  C967    1.381   1_565 S
C1258  H1270   1.080   .     S
C1258  C1260   1.401   .     A
C1261  Cl1283  1.762   .     S
C1261  N1272   1.373   .     A
C1262  N1271   1.374   .     A
C1262  Cl1284  1.762   .     S
C1262  C400    1.428   1_556 S
C1263  N1271   1.373   .     A
C1263  N1285   1.422   .     S
C1263  C397    1.429   1_556 S
C1264  N1272   1.373   .     A
C1264  N1291   1.422   .     S
Cu1265 O1273   1.975   .     S
Cu1265 Cu1266  2.699   .     S
Cu1265 N1271   2.029   .     S
Cu1265 O1277   1.959   .     S
Cu1265 O1280   1.958   .     S
Cu1265 O1276   1.977   .     S
Cu1266 O1274   1.975   .     S
Cu1266 O1278   1.959   .     S
Cu1266 N1272   2.029   .     S
Cu1266 O1279   1.958   .     S
Cu1266 O1275   1.977   .     S
H1267  C1157   1.086   1_655 S
N1285  H1286   1.030   .     S
N1285  C1287   1.449   .     S
C1287  H1290   1.111   .     S
C1287  H1289   1.108   .     S
C1287  H1288   1.111   .     S
N1291  H1292   1.031   .     S
N1291  C1293   1.448   .     S
C1293  H1294   1.111   .     S
C1293  H1295   1.108   .     S
C1293  H1296   1.111   .     S
