data_str_m3_o2_o10_pcu_sym.10
_audit_creation_date              2020-01-03
_audit_creation_method            'Materials Studio'
_symmetry_space_group_name_H-M    'P1'
_symmetry_Int_Tables_number       1
_symmetry_cell_setting            triclinic
loop_
_symmetry_equiv_pos_as_xyz
  x,y,z
_cell_length_a                    25.7210
_cell_length_b                    29.8600
_cell_length_c                    28.3355
_cell_angle_alpha                 89.2159
_cell_angle_beta                  98.6192
_cell_angle_gamma                 90.1710
loop_
_atom_site_label
_atom_site_type_symbol
_atom_site_fract_x
_atom_site_fract_y
_atom_site_fract_z
_atom_site_U_iso_or_equiv
_atom_site_adp_type
_atom_site_occupancy
C1     C     0.16969   0.16403   0.25081   0.00000  Uiso   1.00
C2     C     0.12211   0.26334   0.44134   0.00000  Uiso   1.00
C3     C     0.16670   0.24987   0.02663   0.00000  Uiso   1.00
C4     C     0.16671   0.24987   0.47338   0.00000  Uiso   1.00
C5     C     0.06700   0.24993   0.23754   0.00000  Uiso   1.00
C6     C     0.26633   0.24997   0.26246   0.00000  Uiso   1.00
C7     C     0.01197   0.24980   0.23080   0.00000  Uiso   1.00
C8     C     0.32134   0.24984   0.26921   0.00000  Uiso   1.00
C9     C     0.21732   0.04757   0.28679   0.00000  Uiso   1.00
C10    C     0.21914   0.45233   0.22961   0.00000  Uiso   1.00
C11    C     0.21573   0.09493   0.28552   0.00000  Uiso   1.00
C12    C     0.16958   0.33596   0.25001   0.00000  Uiso   1.00
C13    C     0.21713   0.40498   0.22998   0.00000  Uiso   1.00
C14    C     0.17584   0.11620   0.25271   0.00000  Uiso   1.00
C15    C     0.17568   0.38374   0.24984   0.00000  Uiso   1.00
C16    C     0.14089   0.09183   0.22053   0.00000  Uiso   1.00
C17    C     0.13918   0.40809   0.27059   0.00000  Uiso   1.00
C18    C     0.14405   0.04601   0.22045   0.00000  Uiso   1.00
C19    C     0.14231   0.45391   0.27162   0.00000  Uiso   1.00
C20    C     0.18153   0.02408   0.25311   0.00000  Uiso   1.00
C21    C     0.18154   0.47583   0.25135   0.00000  Uiso   1.00
C22    C     0.25593   0.02204   0.32366   0.00000  Uiso   1.00
C23    C     0.12220   0.23615   0.04661   0.00000  Uiso   1.00
C24    C     0.23484   0.01842   0.37140   0.00000  Uiso   1.00
C25    C     0.27389   0.49441   0.40914   0.00000  Uiso   1.00
C26    C     0.26011   0.47789   0.20602   0.00000  Uiso   1.00
C27    C     0.24159   0.48393   0.15232   0.00000  Uiso   1.00
C28    C     0.28291   0.00831   0.12815   0.00000  Uiso   1.00
C29    C     0.25960   0.12221   0.31427   0.00000  Uiso   1.00
C30    C     0.30399   0.13090   0.28508   0.00000  Uiso   1.00
C31    C     0.26152   0.37764   0.21425   0.00000  Uiso   1.00
C32    C     0.30561   0.36984   0.25599   0.00000  Uiso   1.00
C33    C     0.21131   0.23648   0.45378   0.00000  Uiso   1.00
C34    C     0.12311   0.23621   0.09642   0.00000  Uiso   1.00
C35    C     0.21035   0.23653   0.40396   0.00000  Uiso   1.00
C36    C     0.21019   0.26382   0.10783   0.00000  Uiso   1.00
C37    C     0.12303   0.26345   0.39180   0.00000  Uiso   1.00
C38    C     0.21116   0.26371   0.05829   0.00000  Uiso   1.00
H39    H     0.32469   0.24980   0.19436   0.00000  Uiso   1.00
H40    H     0.24473   0.22566   0.38951   0.00000  Uiso   1.00
H41    H     0.24444   0.27516   0.13150   0.00000  Uiso   1.00
H42    H     0.08865   0.27449   0.36782   0.00000  Uiso   1.00
H43    H     0.24621   0.27514   0.04486   0.00000  Uiso   1.00
H44    H     0.08697   0.27448   0.45445   0.00000  Uiso   1.00
H45    H     0.28145   0.45998   0.39744   0.00000  Uiso   1.00
H46    H     0.31155   0.01323   0.41549   0.00000  Uiso   1.00
H47    H     0.25746   0.49210   0.44316   0.00000  Uiso   1.00
H48    H     0.22687   0.05224   0.38451   0.00000  Uiso   1.00
H49    H     0.19724   0.49939   0.36634   0.00000  Uiso   1.00
H50    H     0.00861   0.24979   0.30566   0.00000  Uiso   1.00
H51    H     0.26317   0.48769   0.31190   0.00000  Uiso   1.00
H52    H     0.29541   0.03782   0.32814   0.00000  Uiso   1.00
H53    H     0.29082   0.04203   0.14373   0.00000  Uiso   1.00
H54    H     0.32006   0.48878   0.13265   0.00000  Uiso   1.00
H55    H     0.26839   0.01234   0.08941   0.00000  Uiso   1.00
H56    H     0.23340   0.45085   0.13530   0.00000  Uiso   1.00
H57    H     0.20460   0.00373   0.14658   0.00000  Uiso   1.00
H58    H     0.26810   0.01143   0.22171   0.00000  Uiso   1.00
H59    H     0.29891   0.46105   0.21274   0.00000  Uiso   1.00
H60    H     0.32094   0.09879   0.27525   0.00000  Uiso   1.00
H61    H     0.11086   0.10844   0.19544   0.00000  Uiso   1.00
H62    H     0.28907   0.15006   0.25197   0.00000  Uiso   1.00
H63    H     0.00224   0.15069   0.30639   0.00000  Uiso   1.00
H64    H     0.24580   0.15461   0.32590   0.00000  Uiso   1.00
H65    H     0.27579   0.10551   0.34837   0.00000  Uiso   1.00
H66    H     0.29078   0.34996   0.28461   0.00000  Uiso   1.00
H67    H     0.00483   0.35111   0.24362   0.00000  Uiso   1.00
H68    H     0.32132   0.40219   0.27093   0.00000  Uiso   1.00
H69    H     0.24818   0.34481   0.19958   0.00000  Uiso   1.00
H70    H     0.27769   0.39405   0.18432   0.00000  Uiso   1.00
H71    H     0.10793   0.39145   0.28587   0.00000  Uiso   1.00
H72    H     0.11679   0.02736   0.19508   0.00000  Uiso   1.00
H73    H     0.11376   0.47257   0.28798   0.00000  Uiso   1.00
H74    H     0.08713   0.22474   0.02398   0.00000  Uiso   1.00
H75    H     0.24648   0.22534   0.47673   0.00000  Uiso   1.00
H76    H     0.08880   0.22509   0.11118   0.00000  Uiso   1.00
N77    N     0.16667   0.24999   0.12623   0.00000  Uiso   1.00
N78    N     0.16667   0.25001   0.37376   0.00000  Uiso   1.00
O79    O     0.16667   0.18453   0.28974   0.00000  Uiso   1.00
O80    O     0.16666   0.31546   0.21026   0.00000  Uiso   1.00
O81    O     0.16667   0.18453   0.21026   0.00000  Uiso   1.00
O82    O     0.16666   0.31547   0.28974   0.00000  Uiso   1.00
O83    O     0.09058   0.25000   0.28044   0.00000  Uiso   1.00
O84    O     0.24275   0.25000   0.21955   0.00000  Uiso   1.00
O85    O     0.09058   0.24999   0.20096   0.00000  Uiso   1.00
O86    O     0.24275   0.25000   0.29903   0.00000  Uiso   1.00
Zn87   Zn    0.16667   0.25000   0.30307   0.00000  Uiso   1.00
Zn88   Zn    0.16667   0.24999   0.19693   0.00000  Uiso   1.00
C89    C     0.50302   0.16403   0.25081   0.00000  Uiso   1.00
C90    C     0.45545   0.26334   0.44134   0.00000  Uiso   1.00
C91    C     0.50004   0.24987   0.02663   0.00000  Uiso   1.00
C92    C     0.50004   0.24987   0.47338   0.00000  Uiso   1.00
C93    C     0.40033   0.24993   0.23754   0.00000  Uiso   1.00
C94    C     0.59966   0.24997   0.26246   0.00000  Uiso   1.00
C95    C     0.34531   0.24980   0.23080   0.00000  Uiso   1.00
C96    C     0.65468   0.24984   0.26921   0.00000  Uiso   1.00
C97    C     0.55065   0.04757   0.28679   0.00000  Uiso   1.00
C98    C     0.55247   0.45233   0.22961   0.00000  Uiso   1.00
C99    C     0.54906   0.09493   0.28552   0.00000  Uiso   1.00
C100   C     0.50292   0.33596   0.25001   0.00000  Uiso   1.00
C101   C     0.55046   0.40498   0.22998   0.00000  Uiso   1.00
C102   C     0.50917   0.11620   0.25271   0.00000  Uiso   1.00
C103   C     0.50901   0.38374   0.24984   0.00000  Uiso   1.00
C104   C     0.47423   0.09183   0.22053   0.00000  Uiso   1.00
C105   C     0.47251   0.40809   0.27059   0.00000  Uiso   1.00
C106   C     0.47738   0.04601   0.22045   0.00000  Uiso   1.00
C107   C     0.47565   0.45391   0.27162   0.00000  Uiso   1.00
C108   C     0.51486   0.02408   0.25311   0.00000  Uiso   1.00
C109   C     0.51487   0.47583   0.25135   0.00000  Uiso   1.00
C110   C     0.58927   0.02204   0.32366   0.00000  Uiso   1.00
C111   C     0.45553   0.23615   0.04661   0.00000  Uiso   1.00
C112   C     0.56817   0.01842   0.37140   0.00000  Uiso   1.00
C113   C     0.60722   0.49441   0.40914   0.00000  Uiso   1.00
C114   C     0.59345   0.47789   0.20602   0.00000  Uiso   1.00
C115   C     0.57493   0.48393   0.15232   0.00000  Uiso   1.00
C116   C     0.61624   0.00831   0.12815   0.00000  Uiso   1.00
C117   C     0.59293   0.12221   0.31427   0.00000  Uiso   1.00
C118   C     0.63733   0.13090   0.28508   0.00000  Uiso   1.00
C119   C     0.59485   0.37764   0.21425   0.00000  Uiso   1.00
C120   C     0.63895   0.36984   0.25599   0.00000  Uiso   1.00
C121   C     0.54464   0.23648   0.45378   0.00000  Uiso   1.00
C122   C     0.45645   0.23621   0.09642   0.00000  Uiso   1.00
C123   C     0.54368   0.23653   0.40396   0.00000  Uiso   1.00
C124   C     0.54352   0.26382   0.10783   0.00000  Uiso   1.00
C125   C     0.45636   0.26345   0.39180   0.00000  Uiso   1.00
C126   C     0.54449   0.26371   0.05829   0.00000  Uiso   1.00
H127   H     0.65802   0.24980   0.19436   0.00000  Uiso   1.00
H128   H     0.57806   0.22566   0.38951   0.00000  Uiso   1.00
H129   H     0.57777   0.27516   0.13150   0.00000  Uiso   1.00
H130   H     0.42199   0.27449   0.36782   0.00000  Uiso   1.00
H131   H     0.57955   0.27514   0.04486   0.00000  Uiso   1.00
H132   H     0.42030   0.27448   0.45445   0.00000  Uiso   1.00
H133   H     0.61478   0.45998   0.39744   0.00000  Uiso   1.00
H134   H     0.64489   0.01323   0.41549   0.00000  Uiso   1.00
H135   H     0.59080   0.49210   0.44316   0.00000  Uiso   1.00
H136   H     0.56020   0.05224   0.38451   0.00000  Uiso   1.00
H137   H     0.53057   0.49939   0.36634   0.00000  Uiso   1.00
H138   H     0.34194   0.24979   0.30566   0.00000  Uiso   1.00
H139   H     0.59651   0.48769   0.31190   0.00000  Uiso   1.00
H140   H     0.62875   0.03782   0.32814   0.00000  Uiso   1.00
H141   H     0.62415   0.04203   0.14373   0.00000  Uiso   1.00
H142   H     0.65339   0.48878   0.13265   0.00000  Uiso   1.00
H143   H     0.60172   0.01234   0.08941   0.00000  Uiso   1.00
H144   H     0.56674   0.45085   0.13530   0.00000  Uiso   1.00
H145   H     0.53793   0.00373   0.14658   0.00000  Uiso   1.00
H146   H     0.60144   0.01143   0.22171   0.00000  Uiso   1.00
H147   H     0.63225   0.46105   0.21274   0.00000  Uiso   1.00
H148   H     0.65428   0.09879   0.27525   0.00000  Uiso   1.00
H149   H     0.44419   0.10844   0.19544   0.00000  Uiso   1.00
H150   H     0.62241   0.15006   0.25197   0.00000  Uiso   1.00
H151   H     0.33557   0.15069   0.30639   0.00000  Uiso   1.00
H152   H     0.57913   0.15461   0.32590   0.00000  Uiso   1.00
H153   H     0.60912   0.10551   0.34837   0.00000  Uiso   1.00
H154   H     0.62411   0.34996   0.28461   0.00000  Uiso   1.00
H155   H     0.33817   0.35111   0.24362   0.00000  Uiso   1.00
H156   H     0.65465   0.40219   0.27093   0.00000  Uiso   1.00
H157   H     0.58152   0.34481   0.19958   0.00000  Uiso   1.00
H158   H     0.61103   0.39405   0.18432   0.00000  Uiso   1.00
H159   H     0.44126   0.39145   0.28587   0.00000  Uiso   1.00
H160   H     0.45012   0.02736   0.19508   0.00000  Uiso   1.00
H161   H     0.44710   0.47257   0.28798   0.00000  Uiso   1.00
H162   H     0.42046   0.22474   0.02398   0.00000  Uiso   1.00
H163   H     0.57982   0.22534   0.47673   0.00000  Uiso   1.00
H164   H     0.42213   0.22509   0.11118   0.00000  Uiso   1.00
N165   N     0.50000   0.24999   0.12623   0.00000  Uiso   1.00
N166   N     0.50000   0.25001   0.37376   0.00000  Uiso   1.00
O167   O     0.50000   0.18453   0.28974   0.00000  Uiso   1.00
O168   O     0.50000   0.31546   0.21026   0.00000  Uiso   1.00
O169   O     0.50000   0.18453   0.21026   0.00000  Uiso   1.00
O170   O     0.50000   0.31547   0.28974   0.00000  Uiso   1.00
O171   O     0.42392   0.25000   0.28044   0.00000  Uiso   1.00
O172   O     0.57608   0.25000   0.21955   0.00000  Uiso   1.00
O173   O     0.42392   0.24999   0.20096   0.00000  Uiso   1.00
O174   O     0.57608   0.25000   0.29903   0.00000  Uiso   1.00
Zn175  Zn    0.50000   0.25000   0.30307   0.00000  Uiso   1.00
Zn176  Zn    0.50000   0.24999   0.19693   0.00000  Uiso   1.00
C177   C     0.83636   0.16403   0.25081   0.00000  Uiso   1.00
C178   C     0.78878   0.26334   0.44134   0.00000  Uiso   1.00
C179   C     0.83337   0.24987   0.02663   0.00000  Uiso   1.00
C180   C     0.83337   0.24987   0.47338   0.00000  Uiso   1.00
C181   C     0.73367   0.24993   0.23754   0.00000  Uiso   1.00
C182   C     0.93299   0.24997   0.26246   0.00000  Uiso   1.00
C183   C     0.67864   0.24980   0.23080   0.00000  Uiso   1.00
C184   C     0.98801   0.24984   0.26921   0.00000  Uiso   1.00
C185   C     0.88398   0.04757   0.28679   0.00000  Uiso   1.00
C186   C     0.88580   0.45233   0.22961   0.00000  Uiso   1.00
C187   C     0.88240   0.09493   0.28552   0.00000  Uiso   1.00
C188   C     0.83625   0.33596   0.25001   0.00000  Uiso   1.00
C189   C     0.88380   0.40498   0.22998   0.00000  Uiso   1.00
C190   C     0.84250   0.11620   0.25271   0.00000  Uiso   1.00
C191   C     0.84235   0.38374   0.24984   0.00000  Uiso   1.00
C192   C     0.80756   0.09183   0.22053   0.00000  Uiso   1.00
C193   C     0.80585   0.40809   0.27059   0.00000  Uiso   1.00
C194   C     0.81071   0.04601   0.22045   0.00000  Uiso   1.00
C195   C     0.80898   0.45391   0.27162   0.00000  Uiso   1.00
C196   C     0.84820   0.02408   0.25311   0.00000  Uiso   1.00
C197   C     0.84820   0.47583   0.25135   0.00000  Uiso   1.00
C198   C     0.92260   0.02204   0.32366   0.00000  Uiso   1.00
C199   C     0.78887   0.23615   0.04661   0.00000  Uiso   1.00
C200   C     0.90151   0.01842   0.37140   0.00000  Uiso   1.00
C201   C     0.94055   0.49441   0.40914   0.00000  Uiso   1.00
C202   C     0.92678   0.47789   0.20602   0.00000  Uiso   1.00
C203   C     0.90826   0.48393   0.15232   0.00000  Uiso   1.00
C204   C     0.94957   0.00831   0.12815   0.00000  Uiso   1.00
C205   C     0.92627   0.12221   0.31427   0.00000  Uiso   1.00
C206   C     0.97066   0.13090   0.28508   0.00000  Uiso   1.00
C207   C     0.92818   0.37764   0.21425   0.00000  Uiso   1.00
C208   C     0.97228   0.36984   0.25599   0.00000  Uiso   1.00
C209   C     0.87797   0.23648   0.45378   0.00000  Uiso   1.00
C210   C     0.78978   0.23621   0.09642   0.00000  Uiso   1.00
C211   C     0.87701   0.23653   0.40396   0.00000  Uiso   1.00
C212   C     0.87686   0.26382   0.10783   0.00000  Uiso   1.00
C213   C     0.78970   0.26345   0.39180   0.00000  Uiso   1.00
C214   C     0.87782   0.26371   0.05829   0.00000  Uiso   1.00
H215   H     0.99136   0.24980   0.19436   0.00000  Uiso   1.00
H216   H     0.91140   0.22566   0.38951   0.00000  Uiso   1.00
H217   H     0.91111   0.27516   0.13150   0.00000  Uiso   1.00
H218   H     0.75532   0.27449   0.36782   0.00000  Uiso   1.00
H219   H     0.91288   0.27514   0.04486   0.00000  Uiso   1.00
H220   H     0.75363   0.27448   0.45445   0.00000  Uiso   1.00
H221   H     0.94812   0.45998   0.39744   0.00000  Uiso   1.00
H222   H     0.97822   0.01323   0.41549   0.00000  Uiso   1.00
H223   H     0.92413   0.49210   0.44316   0.00000  Uiso   1.00
H224   H     0.89353   0.05224   0.38451   0.00000  Uiso   1.00
H225   H     0.86390   0.49939   0.36634   0.00000  Uiso   1.00
H226   H     0.67528   0.24979   0.30566   0.00000  Uiso   1.00
H227   H     0.92984   0.48769   0.31190   0.00000  Uiso   1.00
H228   H     0.96208   0.03782   0.32814   0.00000  Uiso   1.00
H229   H     0.95748   0.04203   0.14373   0.00000  Uiso   1.00
H230   H     0.98673   0.48878   0.13265   0.00000  Uiso   1.00
H231   H     0.93505   0.01234   0.08941   0.00000  Uiso   1.00
H232   H     0.90007   0.45085   0.13530   0.00000  Uiso   1.00
H233   H     0.87126   0.00373   0.14658   0.00000  Uiso   1.00
H234   H     0.93477   0.01143   0.22171   0.00000  Uiso   1.00
H235   H     0.96558   0.46105   0.21274   0.00000  Uiso   1.00
H236   H     0.98761   0.09879   0.27525   0.00000  Uiso   1.00
H237   H     0.77753   0.10844   0.19544   0.00000  Uiso   1.00
H238   H     0.95574   0.15006   0.25197   0.00000  Uiso   1.00
H239   H     0.66890   0.15069   0.30639   0.00000  Uiso   1.00
H240   H     0.91247   0.15461   0.32590   0.00000  Uiso   1.00
H241   H     0.94246   0.10551   0.34837   0.00000  Uiso   1.00
H242   H     0.95745   0.34996   0.28461   0.00000  Uiso   1.00
H243   H     0.67150   0.35111   0.24362   0.00000  Uiso   1.00
H244   H     0.98798   0.40219   0.27093   0.00000  Uiso   1.00
H245   H     0.91485   0.34481   0.19958   0.00000  Uiso   1.00
H246   H     0.94436   0.39405   0.18432   0.00000  Uiso   1.00
H247   H     0.77460   0.39145   0.28587   0.00000  Uiso   1.00
H248   H     0.78345   0.02736   0.19508   0.00000  Uiso   1.00
H249   H     0.78043   0.47257   0.28798   0.00000  Uiso   1.00
H250   H     0.75379   0.22474   0.02398   0.00000  Uiso   1.00
H251   H     0.91315   0.22534   0.47673   0.00000  Uiso   1.00
H252   H     0.75547   0.22509   0.11118   0.00000  Uiso   1.00
N253   N     0.83333   0.24999   0.12623   0.00000  Uiso   1.00
N254   N     0.83333   0.25001   0.37376   0.00000  Uiso   1.00
O255   O     0.83334   0.18453   0.28974   0.00000  Uiso   1.00
O256   O     0.83333   0.31546   0.21026   0.00000  Uiso   1.00
O257   O     0.83334   0.18453   0.21026   0.00000  Uiso   1.00
O258   O     0.83333   0.31547   0.28974   0.00000  Uiso   1.00
O259   O     0.75725   0.25000   0.28044   0.00000  Uiso   1.00
O260   O     0.90942   0.25000   0.21955   0.00000  Uiso   1.00
O261   O     0.75725   0.24999   0.20096   0.00000  Uiso   1.00
O262   O     0.90942   0.25000   0.29903   0.00000  Uiso   1.00
Zn263  Zn    0.83333   0.25000   0.30307   0.00000  Uiso   1.00
Zn264  Zn    0.83333   0.24999   0.19693   0.00000  Uiso   1.00
C265   C     0.16969   0.66403   0.25081   0.00000  Uiso   1.00
C266   C     0.12211   0.76334   0.44134   0.00000  Uiso   1.00
C267   C     0.16670   0.74987   0.02663   0.00000  Uiso   1.00
C268   C     0.16671   0.74987   0.47338   0.00000  Uiso   1.00
C269   C     0.06700   0.74993   0.23754   0.00000  Uiso   1.00
C270   C     0.26633   0.74997   0.26246   0.00000  Uiso   1.00
C271   C     0.01197   0.74980   0.23080   0.00000  Uiso   1.00
C272   C     0.32134   0.74984   0.26921   0.00000  Uiso   1.00
C273   C     0.21732   0.54757   0.28679   0.00000  Uiso   1.00
C274   C     0.21914   0.95233   0.22961   0.00000  Uiso   1.00
C275   C     0.21573   0.59493   0.28552   0.00000  Uiso   1.00
C276   C     0.16958   0.83596   0.25001   0.00000  Uiso   1.00
C277   C     0.21713   0.90498   0.22998   0.00000  Uiso   1.00
C278   C     0.17584   0.61620   0.25271   0.00000  Uiso   1.00
C279   C     0.17568   0.88374   0.24984   0.00000  Uiso   1.00
C280   C     0.14089   0.59183   0.22053   0.00000  Uiso   1.00
C281   C     0.13918   0.90809   0.27059   0.00000  Uiso   1.00
C282   C     0.14405   0.54601   0.22045   0.00000  Uiso   1.00
C283   C     0.14231   0.95391   0.27162   0.00000  Uiso   1.00
C284   C     0.18153   0.52408   0.25311   0.00000  Uiso   1.00
C285   C     0.18154   0.97583   0.25135   0.00000  Uiso   1.00
C286   C     0.25593   0.52204   0.32366   0.00000  Uiso   1.00
C287   C     0.12220   0.73615   0.04661   0.00000  Uiso   1.00
C288   C     0.23484   0.51842   0.37140   0.00000  Uiso   1.00
C289   C     0.27389   0.99441   0.40914   0.00000  Uiso   1.00
C290   C     0.26011   0.97789   0.20602   0.00000  Uiso   1.00
C291   C     0.24159   0.98393   0.15232   0.00000  Uiso   1.00
C292   C     0.28291   0.50831   0.12815   0.00000  Uiso   1.00
C293   C     0.25960   0.62221   0.31427   0.00000  Uiso   1.00
C294   C     0.30399   0.63090   0.28508   0.00000  Uiso   1.00
C295   C     0.26152   0.87764   0.21425   0.00000  Uiso   1.00
C296   C     0.30561   0.86984   0.25599   0.00000  Uiso   1.00
C297   C     0.21131   0.73648   0.45378   0.00000  Uiso   1.00
C298   C     0.12311   0.73621   0.09642   0.00000  Uiso   1.00
C299   C     0.21035   0.73653   0.40396   0.00000  Uiso   1.00
C300   C     0.21019   0.76382   0.10783   0.00000  Uiso   1.00
C301   C     0.12303   0.76345   0.39180   0.00000  Uiso   1.00
C302   C     0.21116   0.76371   0.05829   0.00000  Uiso   1.00
H303   H     0.32469   0.74980   0.19436   0.00000  Uiso   1.00
H304   H     0.24473   0.72566   0.38951   0.00000  Uiso   1.00
H305   H     0.24444   0.77516   0.13150   0.00000  Uiso   1.00
H306   H     0.08865   0.77449   0.36782   0.00000  Uiso   1.00
H307   H     0.24621   0.77514   0.04486   0.00000  Uiso   1.00
H308   H     0.08697   0.77448   0.45445   0.00000  Uiso   1.00
H309   H     0.28145   0.95998   0.39744   0.00000  Uiso   1.00
H310   H     0.31155   0.51323   0.41549   0.00000  Uiso   1.00
H311   H     0.25746   0.99210   0.44316   0.00000  Uiso   1.00
H312   H     0.22687   0.55224   0.38451   0.00000  Uiso   1.00
H313   H     0.19724   0.99939   0.36634   0.00000  Uiso   1.00
H314   H     0.00861   0.74979   0.30566   0.00000  Uiso   1.00
H315   H     0.26317   0.98769   0.31190   0.00000  Uiso   1.00
H316   H     0.29541   0.53782   0.32814   0.00000  Uiso   1.00
H317   H     0.29082   0.54203   0.14373   0.00000  Uiso   1.00
H318   H     0.32006   0.98878   0.13265   0.00000  Uiso   1.00
H319   H     0.26839   0.51234   0.08941   0.00000  Uiso   1.00
H320   H     0.23340   0.95085   0.13530   0.00000  Uiso   1.00
H321   H     0.20460   0.50373   0.14658   0.00000  Uiso   1.00
H322   H     0.26810   0.51143   0.22171   0.00000  Uiso   1.00
H323   H     0.29891   0.96105   0.21274   0.00000  Uiso   1.00
H324   H     0.32094   0.59879   0.27525   0.00000  Uiso   1.00
H325   H     0.11086   0.60844   0.19544   0.00000  Uiso   1.00
H326   H     0.28907   0.65006   0.25197   0.00000  Uiso   1.00
H327   H     0.00224   0.65069   0.30639   0.00000  Uiso   1.00
H328   H     0.24580   0.65461   0.32590   0.00000  Uiso   1.00
H329   H     0.27579   0.60551   0.34837   0.00000  Uiso   1.00
H330   H     0.29078   0.84996   0.28461   0.00000  Uiso   1.00
H331   H     0.00483   0.85111   0.24362   0.00000  Uiso   1.00
H332   H     0.32132   0.90219   0.27093   0.00000  Uiso   1.00
H333   H     0.24818   0.84481   0.19958   0.00000  Uiso   1.00
H334   H     0.27769   0.89405   0.18432   0.00000  Uiso   1.00
H335   H     0.10793   0.89145   0.28587   0.00000  Uiso   1.00
H336   H     0.11679   0.52736   0.19508   0.00000  Uiso   1.00
H337   H     0.11376   0.97257   0.28798   0.00000  Uiso   1.00
H338   H     0.08713   0.72474   0.02398   0.00000  Uiso   1.00
H339   H     0.24648   0.72534   0.47673   0.00000  Uiso   1.00
H340   H     0.08880   0.72509   0.11118   0.00000  Uiso   1.00
N341   N     0.16667   0.74999   0.12623   0.00000  Uiso   1.00
N342   N     0.16667   0.75001   0.37376   0.00000  Uiso   1.00
O343   O     0.16667   0.68453   0.28974   0.00000  Uiso   1.00
O344   O     0.16666   0.81546   0.21026   0.00000  Uiso   1.00
O345   O     0.16667   0.68453   0.21026   0.00000  Uiso   1.00
O346   O     0.16666   0.81547   0.28974   0.00000  Uiso   1.00
O347   O     0.09058   0.75000   0.28044   0.00000  Uiso   1.00
O348   O     0.24275   0.75000   0.21955   0.00000  Uiso   1.00
O349   O     0.09058   0.74999   0.20096   0.00000  Uiso   1.00
O350   O     0.24275   0.75000   0.29903   0.00000  Uiso   1.00
Zn351  Zn    0.16667   0.75000   0.30307   0.00000  Uiso   1.00
Zn352  Zn    0.16667   0.74999   0.19693   0.00000  Uiso   1.00
C353   C     0.50302   0.66403   0.25081   0.00000  Uiso   1.00
C354   C     0.45545   0.76334   0.44134   0.00000  Uiso   1.00
C355   C     0.50004   0.74987   0.02663   0.00000  Uiso   1.00
C356   C     0.50004   0.74987   0.47338   0.00000  Uiso   1.00
C357   C     0.40033   0.74993   0.23754   0.00000  Uiso   1.00
C358   C     0.59966   0.74997   0.26246   0.00000  Uiso   1.00
C359   C     0.34531   0.74980   0.23080   0.00000  Uiso   1.00
C360   C     0.65468   0.74984   0.26921   0.00000  Uiso   1.00
C361   C     0.55065   0.54757   0.28679   0.00000  Uiso   1.00
C362   C     0.55247   0.95233   0.22961   0.00000  Uiso   1.00
C363   C     0.54906   0.59493   0.28552   0.00000  Uiso   1.00
C364   C     0.50292   0.83596   0.25001   0.00000  Uiso   1.00
C365   C     0.55046   0.90498   0.22998   0.00000  Uiso   1.00
C366   C     0.50917   0.61620   0.25271   0.00000  Uiso   1.00
C367   C     0.50901   0.88374   0.24984   0.00000  Uiso   1.00
C368   C     0.47423   0.59183   0.22053   0.00000  Uiso   1.00
C369   C     0.47251   0.90809   0.27059   0.00000  Uiso   1.00
C370   C     0.47738   0.54601   0.22045   0.00000  Uiso   1.00
C371   C     0.47565   0.95391   0.27162   0.00000  Uiso   1.00
C372   C     0.51486   0.52408   0.25311   0.00000  Uiso   1.00
C373   C     0.51487   0.97583   0.25135   0.00000  Uiso   1.00
C374   C     0.58927   0.52204   0.32366   0.00000  Uiso   1.00
C375   C     0.45553   0.73615   0.04661   0.00000  Uiso   1.00
C376   C     0.56817   0.51842   0.37140   0.00000  Uiso   1.00
C377   C     0.60722   0.99441   0.40914   0.00000  Uiso   1.00
C378   C     0.59345   0.97789   0.20602   0.00000  Uiso   1.00
C379   C     0.57493   0.98393   0.15232   0.00000  Uiso   1.00
C380   C     0.61624   0.50831   0.12815   0.00000  Uiso   1.00
C381   C     0.59293   0.62221   0.31427   0.00000  Uiso   1.00
C382   C     0.63733   0.63090   0.28508   0.00000  Uiso   1.00
C383   C     0.59485   0.87764   0.21425   0.00000  Uiso   1.00
C384   C     0.63895   0.86984   0.25599   0.00000  Uiso   1.00
C385   C     0.54464   0.73648   0.45378   0.00000  Uiso   1.00
C386   C     0.45645   0.73621   0.09642   0.00000  Uiso   1.00
C387   C     0.54368   0.73653   0.40396   0.00000  Uiso   1.00
C388   C     0.54352   0.76382   0.10783   0.00000  Uiso   1.00
C389   C     0.45636   0.76345   0.39180   0.00000  Uiso   1.00
C390   C     0.54449   0.76371   0.05829   0.00000  Uiso   1.00
H391   H     0.65802   0.74980   0.19436   0.00000  Uiso   1.00
H392   H     0.57806   0.72566   0.38951   0.00000  Uiso   1.00
H393   H     0.57777   0.77516   0.13150   0.00000  Uiso   1.00
H394   H     0.42199   0.77449   0.36782   0.00000  Uiso   1.00
H395   H     0.57955   0.77514   0.04486   0.00000  Uiso   1.00
H396   H     0.42030   0.77448   0.45445   0.00000  Uiso   1.00
H397   H     0.61478   0.95998   0.39744   0.00000  Uiso   1.00
H398   H     0.64489   0.51323   0.41549   0.00000  Uiso   1.00
H399   H     0.59080   0.99210   0.44316   0.00000  Uiso   1.00
H400   H     0.56020   0.55224   0.38451   0.00000  Uiso   1.00
H401   H     0.53057   0.99939   0.36634   0.00000  Uiso   1.00
H402   H     0.34194   0.74979   0.30566   0.00000  Uiso   1.00
H403   H     0.59651   0.98769   0.31190   0.00000  Uiso   1.00
H404   H     0.62875   0.53782   0.32814   0.00000  Uiso   1.00
H405   H     0.62415   0.54203   0.14373   0.00000  Uiso   1.00
H406   H     0.65339   0.98878   0.13265   0.00000  Uiso   1.00
H407   H     0.60172   0.51234   0.08941   0.00000  Uiso   1.00
H408   H     0.56674   0.95085   0.13530   0.00000  Uiso   1.00
H409   H     0.53793   0.50373   0.14658   0.00000  Uiso   1.00
H410   H     0.60144   0.51143   0.22171   0.00000  Uiso   1.00
H411   H     0.63225   0.96105   0.21274   0.00000  Uiso   1.00
H412   H     0.65428   0.59879   0.27525   0.00000  Uiso   1.00
H413   H     0.44419   0.60844   0.19544   0.00000  Uiso   1.00
H414   H     0.62241   0.65006   0.25197   0.00000  Uiso   1.00
H415   H     0.33557   0.65069   0.30639   0.00000  Uiso   1.00
H416   H     0.57913   0.65461   0.32590   0.00000  Uiso   1.00
H417   H     0.60912   0.60551   0.34837   0.00000  Uiso   1.00
H418   H     0.62411   0.84996   0.28461   0.00000  Uiso   1.00
H419   H     0.33817   0.85111   0.24362   0.00000  Uiso   1.00
H420   H     0.65465   0.90219   0.27093   0.00000  Uiso   1.00
H421   H     0.58152   0.84481   0.19958   0.00000  Uiso   1.00
H422   H     0.61103   0.89405   0.18432   0.00000  Uiso   1.00
H423   H     0.44126   0.89145   0.28587   0.00000  Uiso   1.00
H424   H     0.45012   0.52736   0.19508   0.00000  Uiso   1.00
H425   H     0.44710   0.97257   0.28798   0.00000  Uiso   1.00
H426   H     0.42046   0.72474   0.02398   0.00000  Uiso   1.00
H427   H     0.57982   0.72534   0.47673   0.00000  Uiso   1.00
H428   H     0.42213   0.72509   0.11118   0.00000  Uiso   1.00
N429   N     0.50000   0.74999   0.12623   0.00000  Uiso   1.00
N430   N     0.50000   0.75001   0.37376   0.00000  Uiso   1.00
O431   O     0.50000   0.68453   0.28974   0.00000  Uiso   1.00
O432   O     0.50000   0.81546   0.21026   0.00000  Uiso   1.00
O433   O     0.50000   0.68453   0.21026   0.00000  Uiso   1.00
O434   O     0.50000   0.81547   0.28974   0.00000  Uiso   1.00
O435   O     0.42392   0.75000   0.28044   0.00000  Uiso   1.00
O436   O     0.57608   0.75000   0.21955   0.00000  Uiso   1.00
O437   O     0.42392   0.74999   0.20096   0.00000  Uiso   1.00
O438   O     0.57608   0.75000   0.29903   0.00000  Uiso   1.00
Zn439  Zn    0.50000   0.75000   0.30307   0.00000  Uiso   1.00
Zn440  Zn    0.50000   0.74999   0.19693   0.00000  Uiso   1.00
C441   C     0.83636   0.66403   0.25081   0.00000  Uiso   1.00
C442   C     0.78878   0.76334   0.44134   0.00000  Uiso   1.00
C443   C     0.83337   0.74987   0.02663   0.00000  Uiso   1.00
C444   C     0.83337   0.74987   0.47338   0.00000  Uiso   1.00
C445   C     0.73367   0.74993   0.23754   0.00000  Uiso   1.00
C446   C     0.93299   0.74997   0.26246   0.00000  Uiso   1.00
C447   C     0.67864   0.74980   0.23080   0.00000  Uiso   1.00
C448   C     0.98801   0.74984   0.26921   0.00000  Uiso   1.00
C449   C     0.88398   0.54757   0.28679   0.00000  Uiso   1.00
C450   C     0.88580   0.95233   0.22961   0.00000  Uiso   1.00
C451   C     0.88240   0.59493   0.28552   0.00000  Uiso   1.00
C452   C     0.83625   0.83596   0.25001   0.00000  Uiso   1.00
C453   C     0.88380   0.90498   0.22998   0.00000  Uiso   1.00
C454   C     0.84250   0.61620   0.25271   0.00000  Uiso   1.00
C455   C     0.84235   0.88374   0.24984   0.00000  Uiso   1.00
C456   C     0.80756   0.59183   0.22053   0.00000  Uiso   1.00
C457   C     0.80585   0.90809   0.27059   0.00000  Uiso   1.00
C458   C     0.81071   0.54601   0.22045   0.00000  Uiso   1.00
C459   C     0.80898   0.95391   0.27162   0.00000  Uiso   1.00
C460   C     0.84820   0.52408   0.25311   0.00000  Uiso   1.00
C461   C     0.84820   0.97583   0.25135   0.00000  Uiso   1.00
C462   C     0.92260   0.52204   0.32366   0.00000  Uiso   1.00
C463   C     0.78887   0.73615   0.04661   0.00000  Uiso   1.00
C464   C     0.90151   0.51842   0.37140   0.00000  Uiso   1.00
C465   C     0.94055   0.99441   0.40914   0.00000  Uiso   1.00
C466   C     0.92678   0.97789   0.20602   0.00000  Uiso   1.00
C467   C     0.90826   0.98393   0.15232   0.00000  Uiso   1.00
C468   C     0.94957   0.50831   0.12815   0.00000  Uiso   1.00
C469   C     0.92627   0.62221   0.31427   0.00000  Uiso   1.00
C470   C     0.97066   0.63090   0.28508   0.00000  Uiso   1.00
C471   C     0.92818   0.87764   0.21425   0.00000  Uiso   1.00
C472   C     0.97228   0.86984   0.25599   0.00000  Uiso   1.00
C473   C     0.87797   0.73648   0.45378   0.00000  Uiso   1.00
C474   C     0.78978   0.73621   0.09642   0.00000  Uiso   1.00
C475   C     0.87701   0.73653   0.40396   0.00000  Uiso   1.00
C476   C     0.87686   0.76382   0.10783   0.00000  Uiso   1.00
C477   C     0.78970   0.76345   0.39180   0.00000  Uiso   1.00
C478   C     0.87782   0.76371   0.05829   0.00000  Uiso   1.00
H479   H     0.99136   0.74980   0.19436   0.00000  Uiso   1.00
H480   H     0.91140   0.72566   0.38951   0.00000  Uiso   1.00
H481   H     0.91111   0.77516   0.13150   0.00000  Uiso   1.00
H482   H     0.75532   0.77449   0.36782   0.00000  Uiso   1.00
H483   H     0.91288   0.77514   0.04486   0.00000  Uiso   1.00
H484   H     0.75363   0.77448   0.45445   0.00000  Uiso   1.00
H485   H     0.94812   0.95998   0.39744   0.00000  Uiso   1.00
H486   H     0.97822   0.51323   0.41549   0.00000  Uiso   1.00
H487   H     0.92413   0.99210   0.44316   0.00000  Uiso   1.00
H488   H     0.89353   0.55224   0.38451   0.00000  Uiso   1.00
H489   H     0.86390   0.99939   0.36634   0.00000  Uiso   1.00
H490   H     0.67528   0.74979   0.30566   0.00000  Uiso   1.00
H491   H     0.92984   0.98769   0.31190   0.00000  Uiso   1.00
H492   H     0.96208   0.53782   0.32814   0.00000  Uiso   1.00
H493   H     0.95748   0.54203   0.14373   0.00000  Uiso   1.00
H494   H     0.98673   0.98878   0.13265   0.00000  Uiso   1.00
H495   H     0.93505   0.51234   0.08941   0.00000  Uiso   1.00
H496   H     0.90007   0.95085   0.13530   0.00000  Uiso   1.00
H497   H     0.87126   0.50373   0.14658   0.00000  Uiso   1.00
H498   H     0.93477   0.51143   0.22171   0.00000  Uiso   1.00
H499   H     0.96558   0.96105   0.21274   0.00000  Uiso   1.00
H500   H     0.98761   0.59879   0.27525   0.00000  Uiso   1.00
H501   H     0.77753   0.60844   0.19544   0.00000  Uiso   1.00
H502   H     0.95574   0.65006   0.25197   0.00000  Uiso   1.00
H503   H     0.66890   0.65069   0.30639   0.00000  Uiso   1.00
H504   H     0.91247   0.65461   0.32590   0.00000  Uiso   1.00
H505   H     0.94246   0.60551   0.34837   0.00000  Uiso   1.00
H506   H     0.95745   0.84996   0.28461   0.00000  Uiso   1.00
H507   H     0.67150   0.85111   0.24362   0.00000  Uiso   1.00
H508   H     0.98798   0.90219   0.27093   0.00000  Uiso   1.00
H509   H     0.91485   0.84481   0.19958   0.00000  Uiso   1.00
H510   H     0.94436   0.89405   0.18432   0.00000  Uiso   1.00
H511   H     0.77460   0.89145   0.28587   0.00000  Uiso   1.00
H512   H     0.78345   0.52736   0.19508   0.00000  Uiso   1.00
H513   H     0.78043   0.97257   0.28798   0.00000  Uiso   1.00
H514   H     0.75379   0.72474   0.02398   0.00000  Uiso   1.00
H515   H     0.91315   0.72534   0.47673   0.00000  Uiso   1.00
H516   H     0.75547   0.72509   0.11118   0.00000  Uiso   1.00
N517   N     0.83333   0.74999   0.12623   0.00000  Uiso   1.00
N518   N     0.83333   0.75001   0.37376   0.00000  Uiso   1.00
O519   O     0.83334   0.68453   0.28974   0.00000  Uiso   1.00
O520   O     0.83333   0.81546   0.21026   0.00000  Uiso   1.00
O521   O     0.83334   0.68453   0.21026   0.00000  Uiso   1.00
O522   O     0.83333   0.81547   0.28974   0.00000  Uiso   1.00
O523   O     0.75725   0.75000   0.28044   0.00000  Uiso   1.00
O524   O     0.90942   0.75000   0.21955   0.00000  Uiso   1.00
O525   O     0.75725   0.74999   0.20096   0.00000  Uiso   1.00
O526   O     0.90942   0.75000   0.29903   0.00000  Uiso   1.00
Zn527  Zn    0.83333   0.75000   0.30307   0.00000  Uiso   1.00
Zn528  Zn    0.83333   0.74999   0.19693   0.00000  Uiso   1.00
C529   C     0.16969   0.16403   0.75081   0.00000  Uiso   1.00
C530   C     0.12211   0.26334   0.94134   0.00000  Uiso   1.00
C531   C     0.16670   0.24987   0.52663   0.00000  Uiso   1.00
C532   C     0.16671   0.24987   0.97338   0.00000  Uiso   1.00
C533   C     0.06700   0.24993   0.73754   0.00000  Uiso   1.00
C534   C     0.26633   0.24997   0.76246   0.00000  Uiso   1.00
C535   C     0.01197   0.24980   0.73080   0.00000  Uiso   1.00
C536   C     0.32134   0.24984   0.76921   0.00000  Uiso   1.00
C537   C     0.21732   0.04757   0.78679   0.00000  Uiso   1.00
C538   C     0.21914   0.45233   0.72961   0.00000  Uiso   1.00
C539   C     0.21573   0.09493   0.78552   0.00000  Uiso   1.00
C540   C     0.16958   0.33596   0.75001   0.00000  Uiso   1.00
C541   C     0.21713   0.40498   0.72998   0.00000  Uiso   1.00
C542   C     0.17584   0.11620   0.75271   0.00000  Uiso   1.00
C543   C     0.17568   0.38374   0.74984   0.00000  Uiso   1.00
C544   C     0.14089   0.09183   0.72053   0.00000  Uiso   1.00
C545   C     0.13918   0.40809   0.77059   0.00000  Uiso   1.00
C546   C     0.14405   0.04601   0.72045   0.00000  Uiso   1.00
C547   C     0.14231   0.45391   0.77162   0.00000  Uiso   1.00
C548   C     0.18153   0.02408   0.75311   0.00000  Uiso   1.00
C549   C     0.18154   0.47583   0.75135   0.00000  Uiso   1.00
C550   C     0.25593   0.02204   0.82366   0.00000  Uiso   1.00
C551   C     0.12220   0.23615   0.54661   0.00000  Uiso   1.00
C552   C     0.23484   0.01842   0.87140   0.00000  Uiso   1.00
C553   C     0.27389   0.49441   0.90914   0.00000  Uiso   1.00
C554   C     0.26011   0.47789   0.70602   0.00000  Uiso   1.00
C555   C     0.24159   0.48393   0.65232   0.00000  Uiso   1.00
C556   C     0.28291   0.00831   0.62815   0.00000  Uiso   1.00
C557   C     0.25960   0.12221   0.81427   0.00000  Uiso   1.00
C558   C     0.30399   0.13090   0.78508   0.00000  Uiso   1.00
C559   C     0.26152   0.37764   0.71425   0.00000  Uiso   1.00
C560   C     0.30561   0.36984   0.75599   0.00000  Uiso   1.00
C561   C     0.21131   0.23648   0.95378   0.00000  Uiso   1.00
C562   C     0.12311   0.23621   0.59642   0.00000  Uiso   1.00
C563   C     0.21035   0.23653   0.90396   0.00000  Uiso   1.00
C564   C     0.21019   0.26382   0.60783   0.00000  Uiso   1.00
C565   C     0.12303   0.26345   0.89180   0.00000  Uiso   1.00
C566   C     0.21116   0.26371   0.55829   0.00000  Uiso   1.00
H567   H     0.32469   0.24980   0.69436   0.00000  Uiso   1.00
H568   H     0.24473   0.22566   0.88951   0.00000  Uiso   1.00
H569   H     0.24444   0.27516   0.63150   0.00000  Uiso   1.00
H570   H     0.08865   0.27449   0.86782   0.00000  Uiso   1.00
H571   H     0.24621   0.27514   0.54486   0.00000  Uiso   1.00
H572   H     0.08697   0.27448   0.95445   0.00000  Uiso   1.00
H573   H     0.28145   0.45998   0.89744   0.00000  Uiso   1.00
H574   H     0.31155   0.01323   0.91549   0.00000  Uiso   1.00
H575   H     0.25746   0.49210   0.94316   0.00000  Uiso   1.00
H576   H     0.22687   0.05224   0.88451   0.00000  Uiso   1.00
H577   H     0.19724   0.49939   0.86634   0.00000  Uiso   1.00
H578   H     0.00861   0.24979   0.80566   0.00000  Uiso   1.00
H579   H     0.26317   0.48769   0.81190   0.00000  Uiso   1.00
H580   H     0.29541   0.03782   0.82814   0.00000  Uiso   1.00
H581   H     0.29082   0.04203   0.64373   0.00000  Uiso   1.00
H582   H     0.32006   0.48878   0.63265   0.00000  Uiso   1.00
H583   H     0.26839   0.01234   0.58941   0.00000  Uiso   1.00
H584   H     0.23340   0.45085   0.63530   0.00000  Uiso   1.00
H585   H     0.20460   0.00373   0.64658   0.00000  Uiso   1.00
H586   H     0.26810   0.01143   0.72171   0.00000  Uiso   1.00
H587   H     0.29891   0.46105   0.71274   0.00000  Uiso   1.00
H588   H     0.32094   0.09879   0.77525   0.00000  Uiso   1.00
H589   H     0.11086   0.10844   0.69544   0.00000  Uiso   1.00
H590   H     0.28907   0.15006   0.75197   0.00000  Uiso   1.00
H591   H     0.00224   0.15069   0.80639   0.00000  Uiso   1.00
H592   H     0.24580   0.15461   0.82590   0.00000  Uiso   1.00
H593   H     0.27579   0.10551   0.84837   0.00000  Uiso   1.00
H594   H     0.29078   0.34996   0.78461   0.00000  Uiso   1.00
H595   H     0.00483   0.35111   0.74362   0.00000  Uiso   1.00
H596   H     0.32132   0.40219   0.77093   0.00000  Uiso   1.00
H597   H     0.24818   0.34481   0.69958   0.00000  Uiso   1.00
H598   H     0.27769   0.39405   0.68432   0.00000  Uiso   1.00
H599   H     0.10793   0.39145   0.78587   0.00000  Uiso   1.00
H600   H     0.11679   0.02736   0.69508   0.00000  Uiso   1.00
H601   H     0.11376   0.47257   0.78798   0.00000  Uiso   1.00
H602   H     0.08713   0.22474   0.52398   0.00000  Uiso   1.00
H603   H     0.24648   0.22534   0.97673   0.00000  Uiso   1.00
H604   H     0.08880   0.22509   0.61118   0.00000  Uiso   1.00
N605   N     0.16667   0.24999   0.62623   0.00000  Uiso   1.00
N606   N     0.16667   0.25001   0.87376   0.00000  Uiso   1.00
O607   O     0.16667   0.18453   0.78974   0.00000  Uiso   1.00
O608   O     0.16666   0.31546   0.71026   0.00000  Uiso   1.00
O609   O     0.16667   0.18453   0.71026   0.00000  Uiso   1.00
O610   O     0.16666   0.31547   0.78974   0.00000  Uiso   1.00
O611   O     0.09058   0.25000   0.78044   0.00000  Uiso   1.00
O612   O     0.24275   0.25000   0.71955   0.00000  Uiso   1.00
O613   O     0.09058   0.24999   0.70096   0.00000  Uiso   1.00
O614   O     0.24275   0.25000   0.79903   0.00000  Uiso   1.00
Zn615  Zn    0.16667   0.25000   0.80307   0.00000  Uiso   1.00
Zn616  Zn    0.16667   0.24999   0.69693   0.00000  Uiso   1.00
C617   C     0.50302   0.16403   0.75081   0.00000  Uiso   1.00
C618   C     0.45545   0.26334   0.94134   0.00000  Uiso   1.00
C619   C     0.50004   0.24987   0.52663   0.00000  Uiso   1.00
C620   C     0.50004   0.24987   0.97338   0.00000  Uiso   1.00
C621   C     0.40033   0.24993   0.73754   0.00000  Uiso   1.00
C622   C     0.59966   0.24997   0.76246   0.00000  Uiso   1.00
C623   C     0.34531   0.24980   0.73080   0.00000  Uiso   1.00
C624   C     0.65468   0.24984   0.76921   0.00000  Uiso   1.00
C625   C     0.55065   0.04757   0.78679   0.00000  Uiso   1.00
C626   C     0.55247   0.45233   0.72961   0.00000  Uiso   1.00
C627   C     0.54906   0.09493   0.78552   0.00000  Uiso   1.00
C628   C     0.50292   0.33596   0.75001   0.00000  Uiso   1.00
C629   C     0.55046   0.40498   0.72998   0.00000  Uiso   1.00
C630   C     0.50917   0.11620   0.75271   0.00000  Uiso   1.00
C631   C     0.50901   0.38374   0.74984   0.00000  Uiso   1.00
C632   C     0.47423   0.09183   0.72053   0.00000  Uiso   1.00
C633   C     0.47251   0.40809   0.77059   0.00000  Uiso   1.00
C634   C     0.47738   0.04601   0.72045   0.00000  Uiso   1.00
C635   C     0.47565   0.45391   0.77162   0.00000  Uiso   1.00
C636   C     0.51486   0.02408   0.75311   0.00000  Uiso   1.00
C637   C     0.51487   0.47583   0.75135   0.00000  Uiso   1.00
C638   C     0.58927   0.02204   0.82366   0.00000  Uiso   1.00
C639   C     0.45553   0.23615   0.54661   0.00000  Uiso   1.00
C640   C     0.56817   0.01842   0.87140   0.00000  Uiso   1.00
C641   C     0.60722   0.49441   0.90914   0.00000  Uiso   1.00
C642   C     0.59345   0.47789   0.70602   0.00000  Uiso   1.00
C643   C     0.57493   0.48393   0.65232   0.00000  Uiso   1.00
C644   C     0.61624   0.00831   0.62815   0.00000  Uiso   1.00
C645   C     0.59293   0.12221   0.81427   0.00000  Uiso   1.00
C646   C     0.63733   0.13090   0.78508   0.00000  Uiso   1.00
C647   C     0.59485   0.37764   0.71425   0.00000  Uiso   1.00
C648   C     0.63895   0.36984   0.75599   0.00000  Uiso   1.00
C649   C     0.54464   0.23648   0.95378   0.00000  Uiso   1.00
C650   C     0.45645   0.23621   0.59642   0.00000  Uiso   1.00
C651   C     0.54368   0.23653   0.90396   0.00000  Uiso   1.00
C652   C     0.54352   0.26382   0.60783   0.00000  Uiso   1.00
C653   C     0.45636   0.26345   0.89180   0.00000  Uiso   1.00
C654   C     0.54449   0.26371   0.55829   0.00000  Uiso   1.00
H655   H     0.65802   0.24980   0.69436   0.00000  Uiso   1.00
H656   H     0.57806   0.22566   0.88951   0.00000  Uiso   1.00
H657   H     0.57777   0.27516   0.63150   0.00000  Uiso   1.00
H658   H     0.42199   0.27449   0.86782   0.00000  Uiso   1.00
H659   H     0.57955   0.27514   0.54486   0.00000  Uiso   1.00
H660   H     0.42030   0.27448   0.95445   0.00000  Uiso   1.00
H661   H     0.61478   0.45998   0.89744   0.00000  Uiso   1.00
H662   H     0.64489   0.01323   0.91549   0.00000  Uiso   1.00
H663   H     0.59080   0.49210   0.94316   0.00000  Uiso   1.00
H664   H     0.56020   0.05224   0.88451   0.00000  Uiso   1.00
H665   H     0.53057   0.49939   0.86634   0.00000  Uiso   1.00
H666   H     0.34194   0.24979   0.80566   0.00000  Uiso   1.00
H667   H     0.59651   0.48769   0.81190   0.00000  Uiso   1.00
H668   H     0.62875   0.03782   0.82814   0.00000  Uiso   1.00
H669   H     0.62415   0.04203   0.64373   0.00000  Uiso   1.00
H670   H     0.65339   0.48878   0.63265   0.00000  Uiso   1.00
H671   H     0.60172   0.01234   0.58941   0.00000  Uiso   1.00
H672   H     0.56674   0.45085   0.63530   0.00000  Uiso   1.00
H673   H     0.53793   0.00373   0.64658   0.00000  Uiso   1.00
H674   H     0.60144   0.01143   0.72171   0.00000  Uiso   1.00
H675   H     0.63225   0.46105   0.71274   0.00000  Uiso   1.00
H676   H     0.65428   0.09879   0.77525   0.00000  Uiso   1.00
H677   H     0.44419   0.10844   0.69544   0.00000  Uiso   1.00
H678   H     0.62241   0.15006   0.75197   0.00000  Uiso   1.00
H679   H     0.33557   0.15069   0.80639   0.00000  Uiso   1.00
H680   H     0.57913   0.15461   0.82590   0.00000  Uiso   1.00
H681   H     0.60912   0.10551   0.84837   0.00000  Uiso   1.00
H682   H     0.62411   0.34996   0.78461   0.00000  Uiso   1.00
H683   H     0.33817   0.35111   0.74362   0.00000  Uiso   1.00
H684   H     0.65465   0.40219   0.77093   0.00000  Uiso   1.00
H685   H     0.58152   0.34481   0.69958   0.00000  Uiso   1.00
H686   H     0.61103   0.39405   0.68432   0.00000  Uiso   1.00
H687   H     0.44126   0.39145   0.78587   0.00000  Uiso   1.00
H688   H     0.45012   0.02736   0.69508   0.00000  Uiso   1.00
H689   H     0.44710   0.47257   0.78798   0.00000  Uiso   1.00
H690   H     0.42046   0.22474   0.52398   0.00000  Uiso   1.00
H691   H     0.57982   0.22534   0.97673   0.00000  Uiso   1.00
H692   H     0.42213   0.22509   0.61118   0.00000  Uiso   1.00
N693   N     0.50000   0.24999   0.62623   0.00000  Uiso   1.00
N694   N     0.50000   0.25001   0.87376   0.00000  Uiso   1.00
O695   O     0.50000   0.18453   0.78974   0.00000  Uiso   1.00
O696   O     0.50000   0.31546   0.71026   0.00000  Uiso   1.00
O697   O     0.50000   0.18453   0.71026   0.00000  Uiso   1.00
O698   O     0.50000   0.31547   0.78974   0.00000  Uiso   1.00
O699   O     0.42392   0.25000   0.78044   0.00000  Uiso   1.00
O700   O     0.57608   0.25000   0.71955   0.00000  Uiso   1.00
O701   O     0.42392   0.24999   0.70096   0.00000  Uiso   1.00
O702   O     0.57608   0.25000   0.79903   0.00000  Uiso   1.00
Zn703  Zn    0.50000   0.25000   0.80307   0.00000  Uiso   1.00
Zn704  Zn    0.50000   0.24999   0.69693   0.00000  Uiso   1.00
C705   C     0.83636   0.16403   0.75081   0.00000  Uiso   1.00
C706   C     0.78878   0.26334   0.94134   0.00000  Uiso   1.00
C707   C     0.83337   0.24987   0.52663   0.00000  Uiso   1.00
C708   C     0.83337   0.24987   0.97338   0.00000  Uiso   1.00
C709   C     0.73367   0.24993   0.73754   0.00000  Uiso   1.00
C710   C     0.93299   0.24997   0.76246   0.00000  Uiso   1.00
C711   C     0.67864   0.24980   0.73080   0.00000  Uiso   1.00
C712   C     0.98801   0.24984   0.76921   0.00000  Uiso   1.00
C713   C     0.88398   0.04757   0.78679   0.00000  Uiso   1.00
C714   C     0.88580   0.45233   0.72961   0.00000  Uiso   1.00
C715   C     0.88240   0.09493   0.78552   0.00000  Uiso   1.00
C716   C     0.83625   0.33596   0.75001   0.00000  Uiso   1.00
C717   C     0.88380   0.40498   0.72998   0.00000  Uiso   1.00
C718   C     0.84250   0.11620   0.75271   0.00000  Uiso   1.00
C719   C     0.84235   0.38374   0.74984   0.00000  Uiso   1.00
C720   C     0.80756   0.09183   0.72053   0.00000  Uiso   1.00
C721   C     0.80585   0.40809   0.77059   0.00000  Uiso   1.00
C722   C     0.81071   0.04601   0.72045   0.00000  Uiso   1.00
C723   C     0.80898   0.45391   0.77162   0.00000  Uiso   1.00
C724   C     0.84820   0.02408   0.75311   0.00000  Uiso   1.00
C725   C     0.84820   0.47583   0.75135   0.00000  Uiso   1.00
C726   C     0.92260   0.02204   0.82366   0.00000  Uiso   1.00
C727   C     0.78887   0.23615   0.54661   0.00000  Uiso   1.00
C728   C     0.90151   0.01842   0.87140   0.00000  Uiso   1.00
C729   C     0.94055   0.49441   0.90914   0.00000  Uiso   1.00
C730   C     0.92678   0.47789   0.70602   0.00000  Uiso   1.00
C731   C     0.90826   0.48393   0.65232   0.00000  Uiso   1.00
C732   C     0.94957   0.00831   0.62815   0.00000  Uiso   1.00
C733   C     0.92627   0.12221   0.81427   0.00000  Uiso   1.00
C734   C     0.97066   0.13090   0.78508   0.00000  Uiso   1.00
C735   C     0.92818   0.37764   0.71425   0.00000  Uiso   1.00
C736   C     0.97228   0.36984   0.75599   0.00000  Uiso   1.00
C737   C     0.87797   0.23648   0.95378   0.00000  Uiso   1.00
C738   C     0.78978   0.23621   0.59642   0.00000  Uiso   1.00
C739   C     0.87701   0.23653   0.90396   0.00000  Uiso   1.00
C740   C     0.87686   0.26382   0.60783   0.00000  Uiso   1.00
C741   C     0.78970   0.26345   0.89180   0.00000  Uiso   1.00
C742   C     0.87782   0.26371   0.55829   0.00000  Uiso   1.00
H743   H     0.99136   0.24980   0.69436   0.00000  Uiso   1.00
H744   H     0.91140   0.22566   0.88951   0.00000  Uiso   1.00
H745   H     0.91111   0.27516   0.63150   0.00000  Uiso   1.00
H746   H     0.75532   0.27449   0.86782   0.00000  Uiso   1.00
H747   H     0.91288   0.27514   0.54486   0.00000  Uiso   1.00
H748   H     0.75363   0.27448   0.95445   0.00000  Uiso   1.00
H749   H     0.94812   0.45998   0.89744   0.00000  Uiso   1.00
H750   H     0.97822   0.01323   0.91549   0.00000  Uiso   1.00
H751   H     0.92413   0.49210   0.94316   0.00000  Uiso   1.00
H752   H     0.89353   0.05224   0.88451   0.00000  Uiso   1.00
H753   H     0.86390   0.49939   0.86634   0.00000  Uiso   1.00
H754   H     0.67528   0.24979   0.80566   0.00000  Uiso   1.00
H755   H     0.92984   0.48769   0.81190   0.00000  Uiso   1.00
H756   H     0.96208   0.03782   0.82814   0.00000  Uiso   1.00
H757   H     0.95748   0.04203   0.64373   0.00000  Uiso   1.00
H758   H     0.98673   0.48878   0.63265   0.00000  Uiso   1.00
H759   H     0.93505   0.01234   0.58941   0.00000  Uiso   1.00
H760   H     0.90007   0.45085   0.63530   0.00000  Uiso   1.00
H761   H     0.87126   0.00373   0.64658   0.00000  Uiso   1.00
H762   H     0.93477   0.01143   0.72171   0.00000  Uiso   1.00
H763   H     0.96558   0.46105   0.71274   0.00000  Uiso   1.00
H764   H     0.98761   0.09879   0.77525   0.00000  Uiso   1.00
H765   H     0.77753   0.10844   0.69544   0.00000  Uiso   1.00
H766   H     0.95574   0.15006   0.75197   0.00000  Uiso   1.00
H767   H     0.66890   0.15069   0.80639   0.00000  Uiso   1.00
H768   H     0.91247   0.15461   0.82590   0.00000  Uiso   1.00
H769   H     0.94246   0.10551   0.84837   0.00000  Uiso   1.00
H770   H     0.95745   0.34996   0.78461   0.00000  Uiso   1.00
H771   H     0.67150   0.35111   0.74362   0.00000  Uiso   1.00
H772   H     0.98798   0.40219   0.77093   0.00000  Uiso   1.00
H773   H     0.91485   0.34481   0.69958   0.00000  Uiso   1.00
H774   H     0.94436   0.39405   0.68432   0.00000  Uiso   1.00
H775   H     0.77460   0.39145   0.78587   0.00000  Uiso   1.00
H776   H     0.78345   0.02736   0.69508   0.00000  Uiso   1.00
H777   H     0.78043   0.47257   0.78798   0.00000  Uiso   1.00
H778   H     0.75379   0.22474   0.52398   0.00000  Uiso   1.00
H779   H     0.91315   0.22534   0.97673   0.00000  Uiso   1.00
H780   H     0.75547   0.22509   0.61118   0.00000  Uiso   1.00
N781   N     0.83333   0.24999   0.62623   0.00000  Uiso   1.00
N782   N     0.83333   0.25001   0.87376   0.00000  Uiso   1.00
O783   O     0.83334   0.18453   0.78974   0.00000  Uiso   1.00
O784   O     0.83333   0.31546   0.71026   0.00000  Uiso   1.00
O785   O     0.83334   0.18453   0.71026   0.00000  Uiso   1.00
O786   O     0.83333   0.31547   0.78974   0.00000  Uiso   1.00
O787   O     0.75725   0.25000   0.78044   0.00000  Uiso   1.00
O788   O     0.90942   0.25000   0.71955   0.00000  Uiso   1.00
O789   O     0.75725   0.24999   0.70096   0.00000  Uiso   1.00
O790   O     0.90942   0.25000   0.79903   0.00000  Uiso   1.00
Zn791  Zn    0.83333   0.25000   0.80307   0.00000  Uiso   1.00
Zn792  Zn    0.83333   0.24999   0.69693   0.00000  Uiso   1.00
C793   C     0.16969   0.66403   0.75081   0.00000  Uiso   1.00
C794   C     0.12211   0.76334   0.94134   0.00000  Uiso   1.00
C795   C     0.16670   0.74987   0.52663   0.00000  Uiso   1.00
C796   C     0.16671   0.74987   0.97338   0.00000  Uiso   1.00
C797   C     0.06700   0.74993   0.73754   0.00000  Uiso   1.00
C798   C     0.26633   0.74997   0.76246   0.00000  Uiso   1.00
C799   C     0.01197   0.74980   0.73080   0.00000  Uiso   1.00
C800   C     0.32134   0.74984   0.76921   0.00000  Uiso   1.00
C801   C     0.21732   0.54757   0.78679   0.00000  Uiso   1.00
C802   C     0.21914   0.95233   0.72961   0.00000  Uiso   1.00
C803   C     0.21573   0.59493   0.78552   0.00000  Uiso   1.00
C804   C     0.16958   0.83596   0.75001   0.00000  Uiso   1.00
C805   C     0.21713   0.90498   0.72998   0.00000  Uiso   1.00
C806   C     0.17584   0.61620   0.75271   0.00000  Uiso   1.00
C807   C     0.17568   0.88374   0.74984   0.00000  Uiso   1.00
C808   C     0.14089   0.59183   0.72053   0.00000  Uiso   1.00
C809   C     0.13918   0.90809   0.77059   0.00000  Uiso   1.00
C810   C     0.14405   0.54601   0.72045   0.00000  Uiso   1.00
C811   C     0.14231   0.95391   0.77162   0.00000  Uiso   1.00
C812   C     0.18153   0.52408   0.75311   0.00000  Uiso   1.00
C813   C     0.18154   0.97583   0.75135   0.00000  Uiso   1.00
C814   C     0.25593   0.52204   0.82366   0.00000  Uiso   1.00
C815   C     0.12220   0.73615   0.54661   0.00000  Uiso   1.00
C816   C     0.23484   0.51842   0.87140   0.00000  Uiso   1.00
C817   C     0.27389   0.99441   0.90914   0.00000  Uiso   1.00
C818   C     0.26011   0.97789   0.70602   0.00000  Uiso   1.00
C819   C     0.24159   0.98393   0.65232   0.00000  Uiso   1.00
C820   C     0.28291   0.50831   0.62815   0.00000  Uiso   1.00
C821   C     0.25960   0.62221   0.81427   0.00000  Uiso   1.00
C822   C     0.30399   0.63090   0.78508   0.00000  Uiso   1.00
C823   C     0.26152   0.87764   0.71425   0.00000  Uiso   1.00
C824   C     0.30561   0.86984   0.75599   0.00000  Uiso   1.00
C825   C     0.21131   0.73648   0.95378   0.00000  Uiso   1.00
C826   C     0.12311   0.73621   0.59642   0.00000  Uiso   1.00
C827   C     0.21035   0.73653   0.90396   0.00000  Uiso   1.00
C828   C     0.21019   0.76382   0.60783   0.00000  Uiso   1.00
C829   C     0.12303   0.76345   0.89180   0.00000  Uiso   1.00
C830   C     0.21116   0.76371   0.55829   0.00000  Uiso   1.00
H831   H     0.32469   0.74980   0.69436   0.00000  Uiso   1.00
H832   H     0.24473   0.72566   0.88951   0.00000  Uiso   1.00
H833   H     0.24444   0.77516   0.63150   0.00000  Uiso   1.00
H834   H     0.08865   0.77449   0.86782   0.00000  Uiso   1.00
H835   H     0.24621   0.77514   0.54486   0.00000  Uiso   1.00
H836   H     0.08697   0.77448   0.95445   0.00000  Uiso   1.00
H837   H     0.28145   0.95998   0.89744   0.00000  Uiso   1.00
H838   H     0.31155   0.51323   0.91549   0.00000  Uiso   1.00
H839   H     0.25746   0.99210   0.94316   0.00000  Uiso   1.00
H840   H     0.22687   0.55224   0.88451   0.00000  Uiso   1.00
H841   H     0.19724   0.99939   0.86634   0.00000  Uiso   1.00
H842   H     0.00861   0.74979   0.80566   0.00000  Uiso   1.00
H843   H     0.26317   0.98769   0.81190   0.00000  Uiso   1.00
H844   H     0.29541   0.53782   0.82814   0.00000  Uiso   1.00
H845   H     0.29082   0.54203   0.64373   0.00000  Uiso   1.00
H846   H     0.32006   0.98878   0.63265   0.00000  Uiso   1.00
H847   H     0.26839   0.51234   0.58941   0.00000  Uiso   1.00
H848   H     0.23340   0.95085   0.63530   0.00000  Uiso   1.00
H849   H     0.20460   0.50373   0.64658   0.00000  Uiso   1.00
H850   H     0.26810   0.51143   0.72171   0.00000  Uiso   1.00
H851   H     0.29891   0.96105   0.71274   0.00000  Uiso   1.00
H852   H     0.32094   0.59879   0.77525   0.00000  Uiso   1.00
H853   H     0.11086   0.60844   0.69544   0.00000  Uiso   1.00
H854   H     0.28907   0.65006   0.75197   0.00000  Uiso   1.00
H855   H     0.00224   0.65069   0.80639   0.00000  Uiso   1.00
H856   H     0.24580   0.65461   0.82590   0.00000  Uiso   1.00
H857   H     0.27579   0.60551   0.84837   0.00000  Uiso   1.00
H858   H     0.29078   0.84996   0.78461   0.00000  Uiso   1.00
H859   H     0.00483   0.85111   0.74362   0.00000  Uiso   1.00
H860   H     0.32132   0.90219   0.77093   0.00000  Uiso   1.00
H861   H     0.24818   0.84481   0.69958   0.00000  Uiso   1.00
H862   H     0.27769   0.89405   0.68432   0.00000  Uiso   1.00
H863   H     0.10793   0.89145   0.78587   0.00000  Uiso   1.00
H864   H     0.11679   0.52736   0.69508   0.00000  Uiso   1.00
H865   H     0.11376   0.97257   0.78798   0.00000  Uiso   1.00
H866   H     0.08713   0.72474   0.52398   0.00000  Uiso   1.00
H867   H     0.24648   0.72534   0.97673   0.00000  Uiso   1.00
H868   H     0.08880   0.72509   0.61118   0.00000  Uiso   1.00
N869   N     0.16667   0.74999   0.62623   0.00000  Uiso   1.00
N870   N     0.16667   0.75001   0.87376   0.00000  Uiso   1.00
O871   O     0.16667   0.68453   0.78974   0.00000  Uiso   1.00
O872   O     0.16666   0.81546   0.71026   0.00000  Uiso   1.00
O873   O     0.16667   0.68453   0.71026   0.00000  Uiso   1.00
O874   O     0.16666   0.81547   0.78974   0.00000  Uiso   1.00
O875   O     0.09058   0.75000   0.78044   0.00000  Uiso   1.00
O876   O     0.24275   0.75000   0.71955   0.00000  Uiso   1.00
O877   O     0.09058   0.74999   0.70096   0.00000  Uiso   1.00
O878   O     0.24275   0.75000   0.79903   0.00000  Uiso   1.00
Zn879  Zn    0.16667   0.75000   0.80307   0.00000  Uiso   1.00
Zn880  Zn    0.16667   0.74999   0.69693   0.00000  Uiso   1.00
C881   C     0.50302   0.66403   0.75081   0.00000  Uiso   1.00
C882   C     0.45545   0.76334   0.94134   0.00000  Uiso   1.00
C883   C     0.50004   0.74987   0.52663   0.00000  Uiso   1.00
C884   C     0.50004   0.74987   0.97338   0.00000  Uiso   1.00
C885   C     0.40033   0.74993   0.73754   0.00000  Uiso   1.00
C886   C     0.59966   0.74997   0.76246   0.00000  Uiso   1.00
C887   C     0.34531   0.74980   0.73080   0.00000  Uiso   1.00
C888   C     0.65468   0.74984   0.76921   0.00000  Uiso   1.00
C889   C     0.55065   0.54757   0.78679   0.00000  Uiso   1.00
C890   C     0.55247   0.95233   0.72961   0.00000  Uiso   1.00
C891   C     0.54906   0.59493   0.78552   0.00000  Uiso   1.00
C892   C     0.50292   0.83596   0.75001   0.00000  Uiso   1.00
C893   C     0.55046   0.90498   0.72998   0.00000  Uiso   1.00
C894   C     0.50917   0.61620   0.75271   0.00000  Uiso   1.00
C895   C     0.50901   0.88374   0.74984   0.00000  Uiso   1.00
C896   C     0.47423   0.59183   0.72053   0.00000  Uiso   1.00
C897   C     0.47251   0.90809   0.77059   0.00000  Uiso   1.00
C898   C     0.47738   0.54601   0.72045   0.00000  Uiso   1.00
C899   C     0.47565   0.95391   0.77162   0.00000  Uiso   1.00
C900   C     0.51486   0.52408   0.75311   0.00000  Uiso   1.00
C901   C     0.51487   0.97583   0.75135   0.00000  Uiso   1.00
C902   C     0.58927   0.52204   0.82366   0.00000  Uiso   1.00
C903   C     0.45553   0.73615   0.54661   0.00000  Uiso   1.00
C904   C     0.56817   0.51842   0.87140   0.00000  Uiso   1.00
C905   C     0.60722   0.99441   0.90914   0.00000  Uiso   1.00
C906   C     0.59345   0.97789   0.70602   0.00000  Uiso   1.00
C907   C     0.57493   0.98393   0.65232   0.00000  Uiso   1.00
C908   C     0.61624   0.50831   0.62815   0.00000  Uiso   1.00
C909   C     0.59293   0.62221   0.81427   0.00000  Uiso   1.00
C910   C     0.63733   0.63090   0.78508   0.00000  Uiso   1.00
C911   C     0.59485   0.87764   0.71425   0.00000  Uiso   1.00
C912   C     0.63895   0.86984   0.75599   0.00000  Uiso   1.00
C913   C     0.54464   0.73648   0.95378   0.00000  Uiso   1.00
C914   C     0.45645   0.73621   0.59642   0.00000  Uiso   1.00
C915   C     0.54368   0.73653   0.90396   0.00000  Uiso   1.00
C916   C     0.54352   0.76382   0.60783   0.00000  Uiso   1.00
C917   C     0.45636   0.76345   0.89180   0.00000  Uiso   1.00
C918   C     0.54449   0.76371   0.55829   0.00000  Uiso   1.00
H919   H     0.65802   0.74980   0.69436   0.00000  Uiso   1.00
H920   H     0.57806   0.72566   0.88951   0.00000  Uiso   1.00
H921   H     0.57777   0.77516   0.63150   0.00000  Uiso   1.00
H922   H     0.42199   0.77449   0.86782   0.00000  Uiso   1.00
H923   H     0.57955   0.77514   0.54486   0.00000  Uiso   1.00
H924   H     0.42030   0.77448   0.95445   0.00000  Uiso   1.00
H925   H     0.61478   0.95998   0.89744   0.00000  Uiso   1.00
H926   H     0.64489   0.51323   0.91549   0.00000  Uiso   1.00
H927   H     0.59080   0.99210   0.94316   0.00000  Uiso   1.00
H928   H     0.56020   0.55224   0.88451   0.00000  Uiso   1.00
H929   H     0.53057   0.99939   0.86634   0.00000  Uiso   1.00
H930   H     0.34194   0.74979   0.80566   0.00000  Uiso   1.00
H931   H     0.59651   0.98769   0.81190   0.00000  Uiso   1.00
H932   H     0.62875   0.53782   0.82814   0.00000  Uiso   1.00
H933   H     0.62415   0.54203   0.64373   0.00000  Uiso   1.00
H934   H     0.65339   0.98878   0.63265   0.00000  Uiso   1.00
H935   H     0.60172   0.51234   0.58941   0.00000  Uiso   1.00
H936   H     0.56674   0.95085   0.63530   0.00000  Uiso   1.00
H937   H     0.53793   0.50373   0.64658   0.00000  Uiso   1.00
H938   H     0.60144   0.51143   0.72171   0.00000  Uiso   1.00
H939   H     0.63225   0.96105   0.71274   0.00000  Uiso   1.00
H940   H     0.65428   0.59879   0.77525   0.00000  Uiso   1.00
H941   H     0.44419   0.60844   0.69544   0.00000  Uiso   1.00
H942   H     0.62241   0.65006   0.75197   0.00000  Uiso   1.00
H943   H     0.33557   0.65069   0.80639   0.00000  Uiso   1.00
H944   H     0.57913   0.65461   0.82590   0.00000  Uiso   1.00
H945   H     0.60912   0.60551   0.84837   0.00000  Uiso   1.00
H946   H     0.62411   0.84996   0.78461   0.00000  Uiso   1.00
H947   H     0.33817   0.85111   0.74362   0.00000  Uiso   1.00
H948   H     0.65465   0.90219   0.77093   0.00000  Uiso   1.00
H949   H     0.58152   0.84481   0.69958   0.00000  Uiso   1.00
H950   H     0.61103   0.89405   0.68432   0.00000  Uiso   1.00
H951   H     0.44126   0.89145   0.78587   0.00000  Uiso   1.00
H952   H     0.45012   0.52736   0.69508   0.00000  Uiso   1.00
H953   H     0.44710   0.97257   0.78798   0.00000  Uiso   1.00
H954   H     0.42046   0.72474   0.52398   0.00000  Uiso   1.00
H955   H     0.57982   0.72534   0.97673   0.00000  Uiso   1.00
H956   H     0.42213   0.72509   0.61118   0.00000  Uiso   1.00
N957   N     0.50000   0.74999   0.62623   0.00000  Uiso   1.00
N958   N     0.50000   0.75001   0.87376   0.00000  Uiso   1.00
O959   O     0.50000   0.68453   0.78974   0.00000  Uiso   1.00
O960   O     0.50000   0.81546   0.71026   0.00000  Uiso   1.00
O961   O     0.50000   0.68453   0.71026   0.00000  Uiso   1.00
O962   O     0.50000   0.81547   0.78974   0.00000  Uiso   1.00
O963   O     0.42392   0.75000   0.78044   0.00000  Uiso   1.00
O964   O     0.57608   0.75000   0.71955   0.00000  Uiso   1.00
O965   O     0.42392   0.74999   0.70096   0.00000  Uiso   1.00
O966   O     0.57608   0.75000   0.79903   0.00000  Uiso   1.00
Zn967  Zn    0.50000   0.75000   0.80307   0.00000  Uiso   1.00
Zn968  Zn    0.50000   0.74999   0.69693   0.00000  Uiso   1.00
C969   C     0.83636   0.66403   0.75081   0.00000  Uiso   1.00
C970   C     0.78878   0.76334   0.94134   0.00000  Uiso   1.00
C971   C     0.83337   0.74987   0.52663   0.00000  Uiso   1.00
C972   C     0.83337   0.74987   0.97338   0.00000  Uiso   1.00
C973   C     0.73367   0.74993   0.73754   0.00000  Uiso   1.00
C974   C     0.93299   0.74997   0.76246   0.00000  Uiso   1.00
C975   C     0.67864   0.74980   0.73080   0.00000  Uiso   1.00
C976   C     0.98801   0.74984   0.76921   0.00000  Uiso   1.00
C977   C     0.88398   0.54757   0.78679   0.00000  Uiso   1.00
C978   C     0.88580   0.95233   0.72961   0.00000  Uiso   1.00
C979   C     0.88240   0.59493   0.78552   0.00000  Uiso   1.00
C980   C     0.83625   0.83596   0.75001   0.00000  Uiso   1.00
C981   C     0.88380   0.90498   0.72998   0.00000  Uiso   1.00
C982   C     0.84250   0.61620   0.75271   0.00000  Uiso   1.00
C983   C     0.84235   0.88374   0.74984   0.00000  Uiso   1.00
C984   C     0.80756   0.59183   0.72053   0.00000  Uiso   1.00
C985   C     0.80585   0.90809   0.77059   0.00000  Uiso   1.00
C986   C     0.81071   0.54601   0.72045   0.00000  Uiso   1.00
C987   C     0.80898   0.95391   0.77162   0.00000  Uiso   1.00
C988   C     0.84820   0.52408   0.75311   0.00000  Uiso   1.00
C989   C     0.84820   0.97583   0.75135   0.00000  Uiso   1.00
C990   C     0.92260   0.52204   0.82366   0.00000  Uiso   1.00
C991   C     0.78887   0.73615   0.54661   0.00000  Uiso   1.00
C992   C     0.90151   0.51842   0.87140   0.00000  Uiso   1.00
C993   C     0.94055   0.99441   0.90914   0.00000  Uiso   1.00
C994   C     0.92678   0.97789   0.70602   0.00000  Uiso   1.00
C995   C     0.90826   0.98393   0.65232   0.00000  Uiso   1.00
C996   C     0.94957   0.50831   0.62815   0.00000  Uiso   1.00
C997   C     0.92627   0.62221   0.81427   0.00000  Uiso   1.00
C998   C     0.97066   0.63090   0.78508   0.00000  Uiso   1.00
C999   C     0.92818   0.87764   0.71425   0.00000  Uiso   1.00
C1000  C     0.97228   0.86984   0.75599   0.00000  Uiso   1.00
C1001  C     0.87797   0.73648   0.95378   0.00000  Uiso   1.00
C1002  C     0.78978   0.73621   0.59642   0.00000  Uiso   1.00
C1003  C     0.87701   0.73653   0.90396   0.00000  Uiso   1.00
C1004  C     0.87686   0.76382   0.60783   0.00000  Uiso   1.00
C1005  C     0.78970   0.76345   0.89180   0.00000  Uiso   1.00
C1006  C     0.87782   0.76371   0.55829   0.00000  Uiso   1.00
H1007  H     0.99136   0.74980   0.69436   0.00000  Uiso   1.00
H1008  H     0.91140   0.72566   0.88951   0.00000  Uiso   1.00
H1009  H     0.91111   0.77516   0.63150   0.00000  Uiso   1.00
H1010  H     0.75532   0.77449   0.86782   0.00000  Uiso   1.00
H1011  H     0.91288   0.77514   0.54486   0.00000  Uiso   1.00
H1012  H     0.75363   0.77448   0.95445   0.00000  Uiso   1.00
H1013  H     0.94812   0.95998   0.89744   0.00000  Uiso   1.00
H1014  H     0.97822   0.51323   0.91549   0.00000  Uiso   1.00
H1015  H     0.92413   0.99210   0.94316   0.00000  Uiso   1.00
H1016  H     0.89353   0.55224   0.88451   0.00000  Uiso   1.00
H1017  H     0.86390   0.99939   0.86634   0.00000  Uiso   1.00
H1018  H     0.67528   0.74979   0.80566   0.00000  Uiso   1.00
H1019  H     0.92984   0.98769   0.81190   0.00000  Uiso   1.00
H1020  H     0.96208   0.53782   0.82814   0.00000  Uiso   1.00
H1021  H     0.95748   0.54203   0.64373   0.00000  Uiso   1.00
H1022  H     0.98673   0.98878   0.63265   0.00000  Uiso   1.00
H1023  H     0.93505   0.51234   0.58941   0.00000  Uiso   1.00
H1024  H     0.90007   0.95085   0.63530   0.00000  Uiso   1.00
H1025  H     0.87126   0.50373   0.64658   0.00000  Uiso   1.00
H1026  H     0.93477   0.51143   0.72171   0.00000  Uiso   1.00
H1027  H     0.96558   0.96105   0.71274   0.00000  Uiso   1.00
H1028  H     0.98761   0.59879   0.77525   0.00000  Uiso   1.00
H1029  H     0.77753   0.60844   0.69544   0.00000  Uiso   1.00
H1030  H     0.95574   0.65006   0.75197   0.00000  Uiso   1.00
H1031  H     0.66890   0.65069   0.80639   0.00000  Uiso   1.00
H1032  H     0.91247   0.65461   0.82590   0.00000  Uiso   1.00
H1033  H     0.94246   0.60551   0.84837   0.00000  Uiso   1.00
H1034  H     0.95745   0.84996   0.78461   0.00000  Uiso   1.00
H1035  H     0.67150   0.85111   0.74362   0.00000  Uiso   1.00
H1036  H     0.98798   0.90219   0.77093   0.00000  Uiso   1.00
H1037  H     0.91485   0.84481   0.69958   0.00000  Uiso   1.00
H1038  H     0.94436   0.89405   0.68432   0.00000  Uiso   1.00
H1039  H     0.77460   0.89145   0.78587   0.00000  Uiso   1.00
H1040  H     0.78345   0.52736   0.69508   0.00000  Uiso   1.00
H1041  H     0.78043   0.97257   0.78798   0.00000  Uiso   1.00
H1042  H     0.75379   0.72474   0.52398   0.00000  Uiso   1.00
H1043  H     0.91315   0.72534   0.97673   0.00000  Uiso   1.00
H1044  H     0.75547   0.72509   0.61118   0.00000  Uiso   1.00
N1045  N     0.83333   0.74999   0.62623   0.00000  Uiso   1.00
N1046  N     0.83333   0.75001   0.87376   0.00000  Uiso   1.00
O1047  O     0.83334   0.68453   0.78974   0.00000  Uiso   1.00
O1048  O     0.83333   0.81546   0.71026   0.00000  Uiso   1.00
O1049  O     0.83334   0.68453   0.71026   0.00000  Uiso   1.00
O1050  O     0.83333   0.81547   0.78974   0.00000  Uiso   1.00
O1051  O     0.75725   0.75000   0.78044   0.00000  Uiso   1.00
O1052  O     0.90942   0.75000   0.71955   0.00000  Uiso   1.00
O1053  O     0.75725   0.74999   0.70096   0.00000  Uiso   1.00
O1054  O     0.90942   0.75000   0.79903   0.00000  Uiso   1.00
Zn1055 Zn    0.83333   0.75000   0.80307   0.00000  Uiso   1.00
Zn1056 Zn    0.83333   0.74999   0.69693   0.00000  Uiso   1.00
loop_
_geom_bond_atom_site_label_1
_geom_bond_atom_site_label_2
_geom_bond_distance
_geom_bond_site_symmetry_2
_ccdc_geom_bond_type
C1     O81     1.287   .     A
C1     O79     1.282   .     A
C1     C14     1.437   .     S
C2     H44     1.083   .     S
C2     C4      1.408   .     A
C2     C37     1.407   .     A
C3     C23     1.409   .     A
C3     C38     1.408   .     A
C3     C532    1.509   1_554 S
C4     C33     1.409   .     A
C4     C531    1.509   .     S
C5     O83     1.275   .     A
C5     O85     1.277   .     A
C5     C7      1.399   .     S
C6     O84     1.275   .     A
C6     C8      1.399   .     S
C6     O86     1.277   .     A
C7     C184    1.329   1_455 S
C7     H215    1.088   1_455 S
C8     C95     1.329   .     S
C8     H138    1.088   .     S
C9     C22     1.527   .     S
C9     C11     1.415   .     A
C9     C20     1.415   .     A
C10    C26     1.527   .     S
C10    C21     1.415   .     A
C10    C13     1.415   .     A
C11    C14     1.422   .     A
C11    C29     1.529   .     S
C12    C15     1.435   .     S
C12    O82     1.286   .     A
C12    O80     1.281   .     A
C13    C15     1.422   .     A
C13    C31     1.528   .     S
C14    C16     1.392   .     A
C15    C17     1.392   .     A
C16    H61     1.084   .     S
C16    C18     1.371   .     A
C17    C19     1.371   .     A
C17    H71     1.085   .     S
C18    H72     1.084   .     S
C18    C20     1.391   .     A
C19    C21     1.391   .     A
C19    H73     1.084   .     S
C20    C285    1.442   1_545 S
C21    C284    1.442   .     S
C22    C24     1.534   .     S
C22    H52     1.109   .     S
C22    H315    1.108   1_545 S
C23    C34     1.408   .     A
C23    H74     1.083   .     S
C24    H48     1.111   .     S
C24    C289    1.526   1_545 S
C24    H313    1.112   1_545 S
C25    H45     1.111   .     S
C25    H47     1.110   .     S
C25    C288    1.526   .     S
C25    H310    1.111   .     S
C26    C27     1.533   .     S
C26    H59     1.108   .     S
C26    H322    1.108   .     S
C27    H56     1.111   .     S
C27    C292    1.526   .     S
C27    H321    1.112   .     S
C28    H55     1.110   .     S
C28    H53     1.111   .     S
C28    C291    1.526   1_545 S
C28    H318    1.111   1_545 S
C29    H64     1.103   .     S
C29    C30     1.527   .     S
C29    H65     1.106   .     S
C30    H60     1.111   .     S
C30    H62     1.111   .     S
C30    H151    1.110   .     S
C31    H70     1.107   .     S
C31    C32     1.527   .     S
C31    H69     1.104   .     S
C32    H66     1.111   .     S
C32    H68     1.110   .     S
C32    H155    1.110   .     S
C33    H75     1.083   .     S
C33    C35     1.408   .     A
C34    N77     1.364   .     A
C34    H76     1.081   .     S
C35    N78     1.364   .     A
C35    H40     1.081   .     S
C36    N77     1.365   .     A
C36    H41     1.081   .     S
C36    C38     1.408   .     A
C37    H42     1.081   .     S
C37    N78     1.365   .     A
C38    H43     1.083   .     S
H39    C95     1.088   .     S
H46    C289    1.111   1_545 S
H49    C288    1.112   .     S
H50    C184    1.088   1_455 S
H51    C286    1.108   .     S
H54    C292    1.111   .     S
H57    C291    1.112   1_545 S
H58    C290    1.108   1_545 S
H63    C206    1.110   1_455 S
H67    C208    1.110   1_455 S
N77    Zn88    2.003   .     S
N78    Zn87    2.003   .     S
O79    Zn87    1.996   .     S
O80    Zn88    1.996   .     S
O81    Zn88    1.986   .     S
O82    Zn87    1.986   .     S
O83    Zn87    1.966   .     S
O84    Zn88    1.966   .     S
O85    Zn88    1.977   .     S
O86    Zn87    1.977   .     S
C89    O169    1.287   .     A
C89    O167    1.282   .     A
C89    C102    1.437   .     S
C90    H132    1.083   .     S
C90    C92     1.408   .     A
C90    C125    1.407   .     A
C91    C111    1.409   .     A
C91    C126    1.408   .     A
C91    C620    1.509   1_554 S
C92    C121    1.409   .     A
C92    C619    1.509   .     S
C93    O171    1.275   .     A
C93    O173    1.277   .     A
C93    C95     1.399   .     S
C94    O172    1.275   .     A
C94    C96     1.399   .     S
C94    O174    1.277   .     A
C96    C183    1.329   .     S
C96    H226    1.088   .     S
C97    C110    1.527   .     S
C97    C99     1.415   .     A
C97    C108    1.415   .     A
C98    C114    1.527   .     S
C98    C109    1.415   .     A
C98    C101    1.415   .     A
C99    C102    1.422   .     A
C99    C117    1.529   .     S
C100   C103    1.435   .     S
C100   O170    1.286   .     A
C100   O168    1.281   .     A
C101   C103    1.422   .     A
C101   C119    1.528   .     S
C102   C104    1.392   .     A
C103   C105    1.392   .     A
C104   H149    1.084   .     S
C104   C106    1.371   .     A
C105   C107    1.371   .     A
C105   H159    1.085   .     S
C106   H160    1.084   .     S
C106   C108    1.391   .     A
C107   C109    1.391   .     A
C107   H161    1.084   .     S
C108   C373    1.442   1_545 S
C109   C372    1.442   .     S
C110   C112    1.534   .     S
C110   H140    1.109   .     S
C110   H403    1.108   1_545 S
C111   C122    1.408   .     A
C111   H162    1.083   .     S
C112   H136    1.111   .     S
C112   C377    1.526   1_545 S
C112   H401    1.112   1_545 S
C113   H133    1.111   .     S
C113   H135    1.110   .     S
C113   C376    1.526   .     S
C113   H398    1.111   .     S
C114   C115    1.533   .     S
C114   H147    1.108   .     S
C114   H410    1.108   .     S
C115   H144    1.111   .     S
C115   C380    1.526   .     S
C115   H409    1.112   .     S
C116   H143    1.110   .     S
C116   H141    1.111   .     S
C116   C379    1.526   1_545 S
C116   H406    1.111   1_545 S
C117   H152    1.103   .     S
C117   C118    1.527   .     S
C117   H153    1.106   .     S
C118   H148    1.111   .     S
C118   H150    1.111   .     S
C118   H239    1.110   .     S
C119   H158    1.107   .     S
C119   C120    1.527   .     S
C119   H157    1.104   .     S
C120   H154    1.111   .     S
C120   H156    1.110   .     S
C120   H243    1.110   .     S
C121   H163    1.083   .     S
C121   C123    1.408   .     A
C122   N165    1.364   .     A
C122   H164    1.081   .     S
C123   N166    1.364   .     A
C123   H128    1.081   .     S
C124   N165    1.365   .     A
C124   H129    1.081   .     S
C124   C126    1.408   .     A
C125   H130    1.081   .     S
C125   N166    1.365   .     A
C126   H131    1.083   .     S
H127   C183    1.088   .     S
H134   C377    1.111   1_545 S
H137   C376    1.112   .     S
H139   C374    1.108   .     S
H142   C380    1.111   .     S
H145   C379    1.112   1_545 S
H146   C378    1.108   1_545 S
N165   Zn176   2.003   .     S
N166   Zn175   2.003   .     S
O167   Zn175   1.996   .     S
O168   Zn176   1.996   .     S
O169   Zn176   1.986   .     S
O170   Zn175   1.986   .     S
O171   Zn175   1.966   .     S
O172   Zn176   1.966   .     S
O173   Zn176   1.977   .     S
O174   Zn175   1.977   .     S
C177   O257    1.287   .     A
C177   O255    1.282   .     A
C177   C190    1.437   .     S
C178   H220    1.083   .     S
C178   C180    1.408   .     A
C178   C213    1.407   .     A
C179   C199    1.409   .     A
C179   C214    1.408   .     A
C179   C708    1.509   1_554 S
C180   C209    1.409   .     A
C180   C707    1.509   .     S
C181   O259    1.275   .     A
C181   O261    1.277   .     A
C181   C183    1.399   .     S
C182   O260    1.275   .     A
C182   C184    1.399   .     S
C182   O262    1.277   .     A
C184   C7      1.329   1_655 S
C184   H50     1.088   1_655 S
C185   C198    1.527   .     S
C185   C187    1.415   .     A
C185   C196    1.415   .     A
C186   C202    1.527   .     S
C186   C197    1.415   .     A
C186   C189    1.415   .     A
C187   C190    1.422   .     A
C187   C205    1.529   .     S
C188   C191    1.435   .     S
C188   O258    1.286   .     A
C188   O256    1.281   .     A
C189   C191    1.422   .     A
C189   C207    1.528   .     S
C190   C192    1.392   .     A
C191   C193    1.392   .     A
C192   H237    1.084   .     S
C192   C194    1.371   .     A
C193   C195    1.371   .     A
C193   H247    1.085   .     S
C194   H248    1.084   .     S
C194   C196    1.391   .     A
C195   C197    1.391   .     A
C195   H249    1.084   .     S
C196   C461    1.442   1_545 S
C197   C460    1.442   .     S
C198   C200    1.534   .     S
C198   H228    1.109   .     S
C198   H491    1.108   1_545 S
C199   C210    1.408   .     A
C199   H250    1.083   .     S
C200   H224    1.111   .     S
C200   C465    1.526   1_545 S
C200   H489    1.112   1_545 S
C201   H221    1.111   .     S
C201   H223    1.110   .     S
C201   C464    1.526   .     S
C201   H486    1.111   .     S
C202   C203    1.533   .     S
C202   H235    1.108   .     S
C202   H498    1.108   .     S
C203   H232    1.111   .     S
C203   C468    1.526   .     S
C203   H497    1.112   .     S
C204   H231    1.110   .     S
C204   H229    1.111   .     S
C204   C467    1.526   1_545 S
C204   H494    1.111   1_545 S
C205   H240    1.103   .     S
C205   C206    1.527   .     S
C205   H241    1.106   .     S
C206   H236    1.111   .     S
C206   H238    1.111   .     S
C206   H63     1.110   1_655 S
C207   H246    1.107   .     S
C207   C208    1.527   .     S
C207   H245    1.104   .     S
C208   H242    1.111   .     S
C208   H244    1.110   .     S
C208   H67     1.110   1_655 S
C209   H251    1.083   .     S
C209   C211    1.408   .     A
C210   N253    1.364   .     A
C210   H252    1.081   .     S
C211   N254    1.364   .     A
C211   H216    1.081   .     S
C212   N253    1.365   .     A
C212   H217    1.081   .     S
C212   C214    1.408   .     A
C213   H218    1.081   .     S
C213   N254    1.365   .     A
C214   H219    1.083   .     S
H215   C7      1.088   1_655 S
H222   C465    1.111   1_545 S
H225   C464    1.112   .     S
H227   C462    1.108   .     S
H230   C468    1.111   .     S
H233   C467    1.112   1_545 S
H234   C466    1.108   1_545 S
N253   Zn264   2.003   .     S
N254   Zn263   2.003   .     S
O255   Zn263   1.996   .     S
O256   Zn264   1.996   .     S
O257   Zn264   1.986   .     S
O258   Zn263   1.986   .     S
O259   Zn263   1.966   .     S
O260   Zn264   1.966   .     S
O261   Zn264   1.977   .     S
O262   Zn263   1.977   .     S
C265   O345    1.287   .     A
C265   O343    1.282   .     A
C265   C278    1.437   .     S
C266   H308    1.083   .     S
C266   C268    1.408   .     A
C266   C301    1.407   .     A
C267   C287    1.409   .     A
C267   C302    1.408   .     A
C267   C796    1.509   1_554 S
C268   C297    1.409   .     A
C268   C795    1.509   .     S
C269   O347    1.275   .     A
C269   O349    1.277   .     A
C269   C271    1.399   .     S
C270   O348    1.275   .     A
C270   C272    1.399   .     S
C270   O350    1.277   .     A
C271   C448    1.329   1_455 S
C271   H479    1.088   1_455 S
C272   C359    1.329   .     S
C272   H402    1.088   .     S
C273   C286    1.527   .     S
C273   C275    1.415   .     A
C273   C284    1.415   .     A
C274   C290    1.527   .     S
C274   C285    1.415   .     A
C274   C277    1.415   .     A
C275   C278    1.422   .     A
C275   C293    1.529   .     S
C276   C279    1.435   .     S
C276   O346    1.286   .     A
C276   O344    1.281   .     A
C277   C279    1.422   .     A
C277   C295    1.528   .     S
C278   C280    1.392   .     A
C279   C281    1.392   .     A
C280   H325    1.084   .     S
C280   C282    1.371   .     A
C281   C283    1.371   .     A
C281   H335    1.085   .     S
C282   H336    1.084   .     S
C282   C284    1.391   .     A
C283   C285    1.391   .     A
C283   H337    1.084   .     S
C285   C20     1.442   1_565 S
C286   C288    1.534   .     S
C286   H316    1.109   .     S
C287   C298    1.408   .     A
C287   H338    1.083   .     S
C288   H312    1.111   .     S
C289   H309    1.111   .     S
C289   H311    1.110   .     S
C289   C24     1.526   1_565 S
C289   H46     1.111   1_565 S
C290   C291    1.533   .     S
C290   H323    1.108   .     S
C290   H58     1.108   1_565 S
C291   H320    1.111   .     S
C291   C28     1.526   1_565 S
C291   H57     1.112   1_565 S
C292   H319    1.110   .     S
C292   H317    1.111   .     S
C293   H328    1.103   .     S
C293   C294    1.527   .     S
C293   H329    1.106   .     S
C294   H324    1.111   .     S
C294   H326    1.111   .     S
C294   H415    1.110   .     S
C295   H334    1.107   .     S
C295   C296    1.527   .     S
C295   H333    1.104   .     S
C296   H330    1.111   .     S
C296   H332    1.110   .     S
C296   H419    1.110   .     S
C297   H339    1.083   .     S
C297   C299    1.408   .     A
C298   N341    1.364   .     A
C298   H340    1.081   .     S
C299   N342    1.364   .     A
C299   H304    1.081   .     S
C300   N341    1.365   .     A
C300   H305    1.081   .     S
C300   C302    1.408   .     A
C301   H306    1.081   .     S
C301   N342    1.365   .     A
C302   H307    1.083   .     S
H303   C359    1.088   .     S
H313   C24     1.112   1_565 S
H314   C448    1.088   1_455 S
H315   C22     1.108   1_565 S
H318   C28     1.111   1_565 S
H327   C470    1.110   1_455 S
H331   C472    1.110   1_455 S
N341   Zn352   2.003   .     S
N342   Zn351   2.003   .     S
O343   Zn351   1.996   .     S
O344   Zn352   1.996   .     S
O345   Zn352   1.986   .     S
O346   Zn351   1.986   .     S
O347   Zn351   1.966   .     S
O348   Zn352   1.966   .     S
O349   Zn352   1.977   .     S
O350   Zn351   1.977   .     S
C353   O433    1.287   .     A
C353   O431    1.282   .     A
C353   C366    1.437   .     S
C354   H396    1.083   .     S
C354   C356    1.408   .     A
C354   C389    1.407   .     A
C355   C375    1.409   .     A
C355   C390    1.408   .     A
C355   C884    1.509   1_554 S
C356   C385    1.409   .     A
C356   C883    1.509   .     S
C357   O435    1.275   .     A
C357   O437    1.277   .     A
C357   C359    1.399   .     S
C358   O436    1.275   .     A
C358   C360    1.399   .     S
C358   O438    1.277   .     A
C360   C447    1.329   .     S
C360   H490    1.088   .     S
C361   C374    1.527   .     S
C361   C363    1.415   .     A
C361   C372    1.415   .     A
C362   C378    1.527   .     S
C362   C373    1.415   .     A
C362   C365    1.415   .     A
C363   C366    1.422   .     A
C363   C381    1.529   .     S
C364   C367    1.435   .     S
C364   O434    1.286   .     A
C364   O432    1.281   .     A
C365   C367    1.422   .     A
C365   C383    1.528   .     S
C366   C368    1.392   .     A
C367   C369    1.392   .     A
C368   H413    1.084   .     S
C368   C370    1.371   .     A
C369   C371    1.371   .     A
C369   H423    1.085   .     S
C370   H424    1.084   .     S
C370   C372    1.391   .     A
C371   C373    1.391   .     A
C371   H425    1.084   .     S
C373   C108    1.442   1_565 S
C374   C376    1.534   .     S
C374   H404    1.109   .     S
C375   C386    1.408   .     A
C375   H426    1.083   .     S
C376   H400    1.111   .     S
C377   H397    1.111   .     S
C377   H399    1.110   .     S
C377   C112    1.526   1_565 S
C377   H134    1.111   1_565 S
C378   C379    1.533   .     S
C378   H411    1.108   .     S
C378   H146    1.108   1_565 S
C379   H408    1.111   .     S
C379   C116    1.526   1_565 S
C379   H145    1.112   1_565 S
C380   H407    1.110   .     S
C380   H405    1.111   .     S
C381   H416    1.103   .     S
C381   C382    1.527   .     S
C381   H417    1.106   .     S
C382   H412    1.111   .     S
C382   H414    1.111   .     S
C382   H503    1.110   .     S
C383   H422    1.107   .     S
C383   C384    1.527   .     S
C383   H421    1.104   .     S
C384   H418    1.111   .     S
C384   H420    1.110   .     S
C384   H507    1.110   .     S
C385   H427    1.083   .     S
C385   C387    1.408   .     A
C386   N429    1.364   .     A
C386   H428    1.081   .     S
C387   N430    1.364   .     A
C387   H392    1.081   .     S
C388   N429    1.365   .     A
C388   H393    1.081   .     S
C388   C390    1.408   .     A
C389   H394    1.081   .     S
C389   N430    1.365   .     A
C390   H395    1.083   .     S
H391   C447    1.088   .     S
H401   C112    1.112   1_565 S
H403   C110    1.108   1_565 S
H406   C116    1.111   1_565 S
N429   Zn440   2.003   .     S
N430   Zn439   2.003   .     S
O431   Zn439   1.996   .     S
O432   Zn440   1.996   .     S
O433   Zn440   1.986   .     S
O434   Zn439   1.986   .     S
O435   Zn439   1.966   .     S
O436   Zn440   1.966   .     S
O437   Zn440   1.977   .     S
O438   Zn439   1.977   .     S
C441   O521    1.287   .     A
C441   O519    1.282   .     A
C441   C454    1.437   .     S
C442   H484    1.083   .     S
C442   C444    1.408   .     A
C442   C477    1.407   .     A
C443   C463    1.409   .     A
C443   C478    1.408   .     A
C443   C972    1.509   1_554 S
C444   C473    1.409   .     A
C444   C971    1.509   .     S
C445   O523    1.275   .     A
C445   O525    1.277   .     A
C445   C447    1.399   .     S
C446   O524    1.275   .     A
C446   C448    1.399   .     S
C446   O526    1.277   .     A
C448   C271    1.329   1_655 S
C448   H314    1.088   1_655 S
C449   C462    1.527   .     S
C449   C451    1.415   .     A
C449   C460    1.415   .     A
C450   C466    1.527   .     S
C450   C461    1.415   .     A
C450   C453    1.415   .     A
C451   C454    1.422   .     A
C451   C469    1.529   .     S
C452   C455    1.435   .     S
C452   O522    1.286   .     A
C452   O520    1.281   .     A
C453   C455    1.422   .     A
C453   C471    1.528   .     S
C454   C456    1.392   .     A
C455   C457    1.392   .     A
C456   H501    1.084   .     S
C456   C458    1.371   .     A
C457   C459    1.371   .     A
C457   H511    1.085   .     S
C458   H512    1.084   .     S
C458   C460    1.391   .     A
C459   C461    1.391   .     A
C459   H513    1.084   .     S
C461   C196    1.442   1_565 S
C462   C464    1.534   .     S
C462   H492    1.109   .     S
C463   C474    1.408   .     A
C463   H514    1.083   .     S
C464   H488    1.111   .     S
C465   H485    1.111   .     S
C465   H487    1.110   .     S
C465   C200    1.526   1_565 S
C465   H222    1.111   1_565 S
C466   C467    1.533   .     S
C466   H499    1.108   .     S
C466   H234    1.108   1_565 S
C467   H496    1.111   .     S
C467   C204    1.526   1_565 S
C467   H233    1.112   1_565 S
C468   H495    1.110   .     S
C468   H493    1.111   .     S
C469   H504    1.103   .     S
C469   C470    1.527   .     S
C469   H505    1.106   .     S
C470   H500    1.111   .     S
C470   H502    1.111   .     S
C470   H327    1.110   1_655 S
C471   H510    1.107   .     S
C471   C472    1.527   .     S
C471   H509    1.104   .     S
C472   H506    1.111   .     S
C472   H508    1.110   .     S
C472   H331    1.110   1_655 S
C473   H515    1.083   .     S
C473   C475    1.408   .     A
C474   N517    1.364   .     A
C474   H516    1.081   .     S
C475   N518    1.364   .     A
C475   H480    1.081   .     S
C476   N517    1.365   .     A
C476   H481    1.081   .     S
C476   C478    1.408   .     A
C477   H482    1.081   .     S
C477   N518    1.365   .     A
C478   H483    1.083   .     S
H479   C271    1.088   1_655 S
H489   C200    1.112   1_565 S
H491   C198    1.108   1_565 S
H494   C204    1.111   1_565 S
N517   Zn528   2.003   .     S
N518   Zn527   2.003   .     S
O519   Zn527   1.996   .     S
O520   Zn528   1.996   .     S
O521   Zn528   1.986   .     S
O522   Zn527   1.986   .     S
O523   Zn527   1.966   .     S
O524   Zn528   1.966   .     S
O525   Zn528   1.977   .     S
O526   Zn527   1.977   .     S
C529   O609    1.287   .     A
C529   O607    1.282   .     A
C529   C542    1.437   .     S
C530   H572    1.083   .     S
C530   C532    1.408   .     A
C530   C565    1.407   .     A
C531   C551    1.409   .     A
C531   C566    1.408   .     A
C532   C561    1.409   .     A
C532   C3      1.509   1_556 S
C533   O611    1.275   .     A
C533   O613    1.277   .     A
C533   C535    1.399   .     S
C534   O612    1.275   .     A
C534   C536    1.399   .     S
C534   O614    1.277   .     A
C535   C712    1.329   1_455 S
C535   H743    1.088   1_455 S
C536   C623    1.329   .     S
C536   H666    1.088   .     S
C537   C550    1.527   .     S
C537   C539    1.415   .     A
C537   C548    1.415   .     A
C538   C554    1.527   .     S
C538   C549    1.415   .     A
C538   C541    1.415   .     A
C539   C542    1.422   .     A
C539   C557    1.529   .     S
C540   C543    1.435   .     S
C540   O610    1.286   .     A
C540   O608    1.281   .     A
C541   C543    1.422   .     A
C541   C559    1.528   .     S
C542   C544    1.392   .     A
C543   C545    1.392   .     A
C544   H589    1.084   .     S
C544   C546    1.371   .     A
C545   C547    1.371   .     A
C545   H599    1.085   .     S
C546   H600    1.084   .     S
C546   C548    1.391   .     A
C547   C549    1.391   .     A
C547   H601    1.084   .     S
C548   C813    1.442   1_545 S
C549   C812    1.442   .     S
C550   C552    1.534   .     S
C550   H580    1.109   .     S
C550   H843    1.108   1_545 S
C551   C562    1.408   .     A
C551   H602    1.083   .     S
C552   H576    1.111   .     S
C552   C817    1.526   1_545 S
C552   H841    1.112   1_545 S
C553   H573    1.111   .     S
C553   H575    1.110   .     S
C553   C816    1.526   .     S
C553   H838    1.111   .     S
C554   C555    1.533   .     S
C554   H587    1.108   .     S
C554   H850    1.108   .     S
C555   H584    1.111   .     S
C555   C820    1.526   .     S
C555   H849    1.112   .     S
C556   H583    1.110   .     S
C556   H581    1.111   .     S
C556   C819    1.526   1_545 S
C556   H846    1.111   1_545 S
C557   H592    1.103   .     S
C557   C558    1.527   .     S
C557   H593    1.106   .     S
C558   H588    1.111   .     S
C558   H590    1.111   .     S
C558   H679    1.110   .     S
C559   H598    1.107   .     S
C559   C560    1.527   .     S
C559   H597    1.104   .     S
C560   H594    1.111   .     S
C560   H596    1.110   .     S
C560   H683    1.110   .     S
C561   H603    1.083   .     S
C561   C563    1.408   .     A
C562   N605    1.364   .     A
C562   H604    1.081   .     S
C563   N606    1.364   .     A
C563   H568    1.081   .     S
C564   N605    1.365   .     A
C564   H569    1.081   .     S
C564   C566    1.408   .     A
C565   H570    1.081   .     S
C565   N606    1.365   .     A
C566   H571    1.083   .     S
H567   C623    1.088   .     S
H574   C817    1.111   1_545 S
H577   C816    1.112   .     S
H578   C712    1.088   1_455 S
H579   C814    1.108   .     S
H582   C820    1.111   .     S
H585   C819    1.112   1_545 S
H586   C818    1.108   1_545 S
H591   C734    1.110   1_455 S
H595   C736    1.110   1_455 S
N605   Zn616   2.003   .     S
N606   Zn615   2.003   .     S
O607   Zn615   1.996   .     S
O608   Zn616   1.996   .     S
O609   Zn616   1.986   .     S
O610   Zn615   1.986   .     S
O611   Zn615   1.966   .     S
O612   Zn616   1.966   .     S
O613   Zn616   1.977   .     S
O614   Zn615   1.977   .     S
C617   O697    1.287   .     A
C617   O695    1.282   .     A
C617   C630    1.437   .     S
C618   H660    1.083   .     S
C618   C620    1.408   .     A
C618   C653    1.407   .     A
C619   C639    1.409   .     A
C619   C654    1.408   .     A
C620   C649    1.409   .     A
C620   C91     1.509   1_556 S
C621   O699    1.275   .     A
C621   O701    1.277   .     A
C621   C623    1.399   .     S
C622   O700    1.275   .     A
C622   C624    1.399   .     S
C622   O702    1.277   .     A
C624   C711    1.329   .     S
C624   H754    1.088   .     S
C625   C638    1.527   .     S
C625   C627    1.415   .     A
C625   C636    1.415   .     A
C626   C642    1.527   .     S
C626   C637    1.415   .     A
C626   C629    1.415   .     A
C627   C630    1.422   .     A
C627   C645    1.529   .     S
C628   C631    1.435   .     S
C628   O698    1.286   .     A
C628   O696    1.281   .     A
C629   C631    1.422   .     A
C629   C647    1.528   .     S
C630   C632    1.392   .     A
C631   C633    1.392   .     A
C632   H677    1.084   .     S
C632   C634    1.371   .     A
C633   C635    1.371   .     A
C633   H687    1.085   .     S
C634   H688    1.084   .     S
C634   C636    1.391   .     A
C635   C637    1.391   .     A
C635   H689    1.084   .     S
C636   C901    1.442   1_545 S
C637   C900    1.442   .     S
C638   C640    1.534   .     S
C638   H668    1.109   .     S
C638   H931    1.108   1_545 S
C639   C650    1.408   .     A
C639   H690    1.083   .     S
C640   H664    1.111   .     S
C640   C905    1.526   1_545 S
C640   H929    1.112   1_545 S
C641   H661    1.111   .     S
C641   H663    1.110   .     S
C641   C904    1.526   .     S
C641   H926    1.111   .     S
C642   C643    1.533   .     S
C642   H675    1.108   .     S
C642   H938    1.108   .     S
C643   H672    1.111   .     S
C643   C908    1.526   .     S
C643   H937    1.112   .     S
C644   H671    1.110   .     S
C644   H669    1.111   .     S
C644   C907    1.526   1_545 S
C644   H934    1.111   1_545 S
C645   H680    1.103   .     S
C645   C646    1.527   .     S
C645   H681    1.106   .     S
C646   H676    1.111   .     S
C646   H678    1.111   .     S
C646   H767    1.110   .     S
C647   H686    1.107   .     S
C647   C648    1.527   .     S
C647   H685    1.104   .     S
C648   H682    1.111   .     S
C648   H684    1.110   .     S
C648   H771    1.110   .     S
C649   H691    1.083   .     S
C649   C651    1.408   .     A
C650   N693    1.364   .     A
C650   H692    1.081   .     S
C651   N694    1.364   .     A
C651   H656    1.081   .     S
C652   N693    1.365   .     A
C652   H657    1.081   .     S
C652   C654    1.408   .     A
C653   H658    1.081   .     S
C653   N694    1.365   .     A
C654   H659    1.083   .     S
H655   C711    1.088   .     S
H662   C905    1.111   1_545 S
H665   C904    1.112   .     S
H667   C902    1.108   .     S
H670   C908    1.111   .     S
H673   C907    1.112   1_545 S
H674   C906    1.108   1_545 S
N693   Zn704   2.003   .     S
N694   Zn703   2.003   .     S
O695   Zn703   1.996   .     S
O696   Zn704   1.996   .     S
O697   Zn704   1.986   .     S
O698   Zn703   1.986   .     S
O699   Zn703   1.966   .     S
O700   Zn704   1.966   .     S
O701   Zn704   1.977   .     S
O702   Zn703   1.977   .     S
C705   O785    1.287   .     A
C705   O783    1.282   .     A
C705   C718    1.437   .     S
C706   H748    1.083   .     S
C706   C708    1.408   .     A
C706   C741    1.407   .     A
C707   C727    1.409   .     A
C707   C742    1.408   .     A
C708   C737    1.409   .     A
C708   C179    1.509   1_556 S
C709   O787    1.275   .     A
C709   O789    1.277   .     A
C709   C711    1.399   .     S
C710   O788    1.275   .     A
C710   C712    1.399   .     S
C710   O790    1.277   .     A
C712   C535    1.329   1_655 S
C712   H578    1.088   1_655 S
C713   C726    1.527   .     S
C713   C715    1.415   .     A
C713   C724    1.415   .     A
C714   C730    1.527   .     S
C714   C725    1.415   .     A
C714   C717    1.415   .     A
C715   C718    1.422   .     A
C715   C733    1.529   .     S
C716   C719    1.435   .     S
C716   O786    1.286   .     A
C716   O784    1.281   .     A
C717   C719    1.422   .     A
C717   C735    1.528   .     S
C718   C720    1.392   .     A
C719   C721    1.392   .     A
C720   H765    1.084   .     S
C720   C722    1.371   .     A
C721   C723    1.371   .     A
C721   H775    1.085   .     S
C722   H776    1.084   .     S
C722   C724    1.391   .     A
C723   C725    1.391   .     A
C723   H777    1.084   .     S
C724   C989    1.442   1_545 S
C725   C988    1.442   .     S
C726   C728    1.534   .     S
C726   H756    1.109   .     S
C726   H1019   1.108   1_545 S
C727   C738    1.408   .     A
C727   H778    1.083   .     S
C728   H752    1.111   .     S
C728   C993    1.526   1_545 S
C728   H1017   1.112   1_545 S
C729   H749    1.111   .     S
C729   H751    1.110   .     S
C729   C992    1.526   .     S
C729   H1014   1.111   .     S
C730   C731    1.533   .     S
C730   H763    1.108   .     S
C730   H1026   1.108   .     S
C731   H760    1.111   .     S
C731   C996    1.526   .     S
C731   H1025   1.112   .     S
C732   H759    1.110   .     S
C732   H757    1.111   .     S
C732   C995    1.526   1_545 S
C732   H1022   1.111   1_545 S
C733   H768    1.103   .     S
C733   C734    1.527   .     S
C733   H769    1.106   .     S
C734   H764    1.111   .     S
C734   H766    1.111   .     S
C734   H591    1.110   1_655 S
C735   H774    1.107   .     S
C735   C736    1.527   .     S
C735   H773    1.104   .     S
C736   H770    1.111   .     S
C736   H772    1.110   .     S
C736   H595    1.110   1_655 S
C737   H779    1.083   .     S
C737   C739    1.408   .     A
C738   N781    1.364   .     A
C738   H780    1.081   .     S
C739   N782    1.364   .     A
C739   H744    1.081   .     S
C740   N781    1.365   .     A
C740   H745    1.081   .     S
C740   C742    1.408   .     A
C741   H746    1.081   .     S
C741   N782    1.365   .     A
C742   H747    1.083   .     S
H743   C535    1.088   1_655 S
H750   C993    1.111   1_545 S
H753   C992    1.112   .     S
H755   C990    1.108   .     S
H758   C996    1.111   .     S
H761   C995    1.112   1_545 S
H762   C994    1.108   1_545 S
N781   Zn792   2.003   .     S
N782   Zn791   2.003   .     S
O783   Zn791   1.996   .     S
O784   Zn792   1.996   .     S
O785   Zn792   1.986   .     S
O786   Zn791   1.986   .     S
O787   Zn791   1.966   .     S
O788   Zn792   1.966   .     S
O789   Zn792   1.977   .     S
O790   Zn791   1.977   .     S
C793   O873    1.287   .     A
C793   O871    1.282   .     A
C793   C806    1.437   .     S
C794   H836    1.083   .     S
C794   C796    1.408   .     A
C794   C829    1.407   .     A
C795   C815    1.409   .     A
C795   C830    1.408   .     A
C796   C825    1.409   .     A
C796   C267    1.509   1_556 S
C797   O875    1.275   .     A
C797   O877    1.277   .     A
C797   C799    1.399   .     S
C798   O876    1.275   .     A
C798   C800    1.399   .     S
C798   O878    1.277   .     A
C799   C976    1.329   1_455 S
C799   H1007   1.088   1_455 S
C800   C887    1.329   .     S
C800   H930    1.088   .     S
C801   C814    1.527   .     S
C801   C803    1.415   .     A
C801   C812    1.415   .     A
C802   C818    1.527   .     S
C802   C813    1.415   .     A
C802   C805    1.415   .     A
C803   C806    1.422   .     A
C803   C821    1.529   .     S
C804   C807    1.435   .     S
C804   O874    1.286   .     A
C804   O872    1.281   .     A
C805   C807    1.422   .     A
C805   C823    1.528   .     S
C806   C808    1.392   .     A
C807   C809    1.392   .     A
C808   H853    1.084   .     S
C808   C810    1.371   .     A
C809   C811    1.371   .     A
C809   H863    1.085   .     S
C810   H864    1.084   .     S
C810   C812    1.391   .     A
C811   C813    1.391   .     A
C811   H865    1.084   .     S
C813   C548    1.442   1_565 S
C814   C816    1.534   .     S
C814   H844    1.109   .     S
C815   C826    1.408   .     A
C815   H866    1.083   .     S
C816   H840    1.111   .     S
C817   H837    1.111   .     S
C817   H839    1.110   .     S
C817   C552    1.526   1_565 S
C817   H574    1.111   1_565 S
C818   C819    1.533   .     S
C818   H851    1.108   .     S
C818   H586    1.108   1_565 S
C819   H848    1.111   .     S
C819   C556    1.526   1_565 S
C819   H585    1.112   1_565 S
C820   H847    1.110   .     S
C820   H845    1.111   .     S
C821   H856    1.103   .     S
C821   C822    1.527   .     S
C821   H857    1.106   .     S
C822   H852    1.111   .     S
C822   H854    1.111   .     S
C822   H943    1.110   .     S
C823   H862    1.107   .     S
C823   C824    1.527   .     S
C823   H861    1.104   .     S
C824   H858    1.111   .     S
C824   H860    1.110   .     S
C824   H947    1.110   .     S
C825   H867    1.083   .     S
C825   C827    1.408   .     A
C826   N869    1.364   .     A
C826   H868    1.081   .     S
C827   N870    1.364   .     A
C827   H832    1.081   .     S
C828   N869    1.365   .     A
C828   H833    1.081   .     S
C828   C830    1.408   .     A
C829   H834    1.081   .     S
C829   N870    1.365   .     A
C830   H835    1.083   .     S
H831   C887    1.088   .     S
H841   C552    1.112   1_565 S
H842   C976    1.088   1_455 S
H843   C550    1.108   1_565 S
H846   C556    1.111   1_565 S
H855   C998    1.110   1_455 S
H859   C1000   1.110   1_455 S
N869   Zn880   2.003   .     S
N870   Zn879   2.003   .     S
O871   Zn879   1.996   .     S
O872   Zn880   1.996   .     S
O873   Zn880   1.986   .     S
O874   Zn879   1.986   .     S
O875   Zn879   1.966   .     S
O876   Zn880   1.966   .     S
O877   Zn880   1.977   .     S
O878   Zn879   1.977   .     S
C881   O961    1.287   .     A
C881   O959    1.282   .     A
C881   C894    1.437   .     S
C882   H924    1.083   .     S
C882   C884    1.408   .     A
C882   C917    1.407   .     A
C883   C903    1.409   .     A
C883   C918    1.408   .     A
C884   C913    1.409   .     A
C884   C355    1.509   1_556 S
C885   O963    1.275   .     A
C885   O965    1.277   .     A
C885   C887    1.399   .     S
C886   O964    1.275   .     A
C886   C888    1.399   .     S
C886   O966    1.277   .     A
C888   C975    1.329   .     S
C888   H1018   1.088   .     S
C889   C902    1.527   .     S
C889   C891    1.415   .     A
C889   C900    1.415   .     A
C890   C906    1.527   .     S
C890   C901    1.415   .     A
C890   C893    1.415   .     A
C891   C894    1.422   .     A
C891   C909    1.529   .     S
C892   C895    1.435   .     S
C892   O962    1.286   .     A
C892   O960    1.281   .     A
C893   C895    1.422   .     A
C893   C911    1.528   .     S
C894   C896    1.392   .     A
C895   C897    1.392   .     A
C896   H941    1.084   .     S
C896   C898    1.371   .     A
C897   C899    1.371   .     A
C897   H951    1.085   .     S
C898   H952    1.084   .     S
C898   C900    1.391   .     A
C899   C901    1.391   .     A
C899   H953    1.084   .     S
C901   C636    1.442   1_565 S
C902   C904    1.534   .     S
C902   H932    1.109   .     S
C903   C914    1.408   .     A
C903   H954    1.083   .     S
C904   H928    1.111   .     S
C905   H925    1.111   .     S
C905   H927    1.110   .     S
C905   C640    1.526   1_565 S
C905   H662    1.111   1_565 S
C906   C907    1.533   .     S
C906   H939    1.108   .     S
C906   H674    1.108   1_565 S
C907   H936    1.111   .     S
C907   C644    1.526   1_565 S
C907   H673    1.112   1_565 S
C908   H935    1.110   .     S
C908   H933    1.111   .     S
C909   H944    1.103   .     S
C909   C910    1.527   .     S
C909   H945    1.106   .     S
C910   H940    1.111   .     S
C910   H942    1.111   .     S
C910   H1031   1.110   .     S
C911   H950    1.107   .     S
C911   C912    1.527   .     S
C911   H949    1.104   .     S
C912   H946    1.111   .     S
C912   H948    1.110   .     S
C912   H1035   1.110   .     S
C913   H955    1.083   .     S
C913   C915    1.408   .     A
C914   N957    1.364   .     A
C914   H956    1.081   .     S
C915   N958    1.364   .     A
C915   H920    1.081   .     S
C916   N957    1.365   .     A
C916   H921    1.081   .     S
C916   C918    1.408   .     A
C917   H922    1.081   .     S
C917   N958    1.365   .     A
C918   H923    1.083   .     S
H919   C975    1.088   .     S
H929   C640    1.112   1_565 S
H931   C638    1.108   1_565 S
H934   C644    1.111   1_565 S
N957   Zn968   2.003   .     S
N958   Zn967   2.003   .     S
O959   Zn967   1.996   .     S
O960   Zn968   1.996   .     S
O961   Zn968   1.986   .     S
O962   Zn967   1.986   .     S
O963   Zn967   1.966   .     S
O964   Zn968   1.966   .     S
O965   Zn968   1.977   .     S
O966   Zn967   1.977   .     S
C969   O1049   1.287   .     A
C969   O1047   1.282   .     A
C969   C982    1.437   .     S
C970   H1012   1.083   .     S
C970   C972    1.408   .     A
C970   C1005   1.407   .     A
C971   C991    1.409   .     A
C971   C1006   1.408   .     A
C972   C1001   1.409   .     A
C972   C443    1.509   1_556 S
C973   O1051   1.275   .     A
C973   O1053   1.277   .     A
C973   C975    1.399   .     S
C974   O1052   1.275   .     A
C974   C976    1.399   .     S
C974   O1054   1.277   .     A
C976   C799    1.329   1_655 S
C976   H842    1.088   1_655 S
C977   C990    1.527   .     S
C977   C979    1.415   .     A
C977   C988    1.415   .     A
C978   C994    1.527   .     S
C978   C989    1.415   .     A
C978   C981    1.415   .     A
C979   C982    1.422   .     A
C979   C997    1.529   .     S
C980   C983    1.435   .     S
C980   O1050   1.286   .     A
C980   O1048   1.281   .     A
C981   C983    1.422   .     A
C981   C999    1.528   .     S
C982   C984    1.392   .     A
C983   C985    1.392   .     A
C984   H1029   1.084   .     S
C984   C986    1.371   .     A
C985   C987    1.371   .     A
C985   H1039   1.085   .     S
C986   H1040   1.084   .     S
C986   C988    1.391   .     A
C987   C989    1.391   .     A
C987   H1041   1.084   .     S
C989   C724    1.442   1_565 S
C990   C992    1.534   .     S
C990   H1020   1.109   .     S
C991   C1002   1.408   .     A
C991   H1042   1.083   .     S
C992   H1016   1.111   .     S
C993   H1013   1.111   .     S
C993   H1015   1.110   .     S
C993   C728    1.526   1_565 S
C993   H750    1.111   1_565 S
C994   C995    1.533   .     S
C994   H1027   1.108   .     S
C994   H762    1.108   1_565 S
C995   H1024   1.111   .     S
C995   C732    1.526   1_565 S
C995   H761    1.112   1_565 S
C996   H1023   1.110   .     S
C996   H1021   1.111   .     S
C997   H1032   1.103   .     S
C997   C998    1.527   .     S
C997   H1033   1.106   .     S
C998   H1028   1.111   .     S
C998   H1030   1.111   .     S
C998   H855    1.110   1_655 S
C999   H1038   1.107   .     S
C999   C1000   1.527   .     S
C999   H1037   1.104   .     S
C1000  H1034   1.111   .     S
C1000  H1036   1.110   .     S
C1000  H859    1.110   1_655 S
C1001  H1043   1.083   .     S
C1001  C1003   1.408   .     A
C1002  N1045   1.364   .     A
C1002  H1044   1.081   .     S
C1003  N1046   1.364   .     A
C1003  H1008   1.081   .     S
C1004  N1045   1.365   .     A
C1004  H1009   1.081   .     S
C1004  C1006   1.408   .     A
C1005  H1010   1.081   .     S
C1005  N1046   1.365   .     A
C1006  H1011   1.083   .     S
H1007  C799    1.088   1_655 S
H1017  C728    1.112   1_565 S
H1019  C726    1.108   1_565 S
H1022  C732    1.111   1_565 S
N1045  Zn1056  2.003   .     S
N1046  Zn1055  2.003   .     S
O1047  Zn1055  1.996   .     S
O1048  Zn1056  1.996   .     S
O1049  Zn1056  1.986   .     S
O1050  Zn1055  1.986   .     S
O1051  Zn1055  1.966   .     S
O1052  Zn1056  1.966   .     S
O1053  Zn1056  1.977   .     S
O1054  Zn1055  1.977   .     S
