data_str_m2_o1_o18_pcu_sym.122
_audit_creation_date              2020-01-03
_audit_creation_method            'Materials Studio'
_symmetry_space_group_name_H-M    'P1'
_symmetry_Int_Tables_number       1
_symmetry_cell_setting            triclinic
loop_
_symmetry_equiv_pos_as_xyz
  x,y,z
_cell_length_a                    28.6868
_cell_length_b                    32.3584
_cell_length_c                    30.9628
_cell_angle_alpha                 89.2255
_cell_angle_beta                  73.8156
_cell_angle_gamma                 90.6006
loop_
_atom_site_label
_atom_site_type_symbol
_atom_site_fract_x
_atom_site_fract_y
_atom_site_fract_z
_atom_site_U_iso_or_equiv
_atom_site_adp_type
_atom_site_occupancy
C1     C     0.00016   0.08752   0.24879   0.00000  Uiso   1.00
C2     C     0.33319   0.24582   0.25118   0.00000  Uiso   1.00
C3     C     0.19535   0.17103   0.04740   0.00000  Uiso   1.00
C4     C     0.13817   0.15988   0.45259   0.00000  Uiso   1.00
C5     C     0.24016   0.19020   0.02482   0.00000  Uiso   1.00
C6     C     0.09268   0.14183   0.47557   0.00000  Uiso   1.00
C7     C     0.31258   0.02062   0.21921   0.00000  Uiso   1.00
C8     C     0.02081   0.31274   0.28071   0.00000  Uiso   1.00
C9     C     0.31229   0.31095   0.22189   0.00000  Uiso   1.00
C10    C     0.02107   0.02240   0.27804   0.00000  Uiso   1.00
C11    C     0.33319   0.29047   0.25181   0.00000  Uiso   1.00
C12    C     0.00017   0.04288   0.24813   0.00000  Uiso   1.00
C13    C     0.18242   0.13964   0.27700   0.00000  Uiso   1.00
C14    C     0.15102   0.19344   0.22269   0.00000  Uiso   1.00
C15    C     0.13309   0.13989   0.27695   0.00000  Uiso   1.00
C16    C     0.20031   0.19327   0.22284   0.00000  Uiso   1.00
C17    C     0.30593   0.16775   0.33601   0.00000  Uiso   1.00
C18    C     0.02739   0.16573   0.16399   0.00000  Uiso   1.00
C19    C     0.29060   0.17327   0.38477   0.00000  Uiso   1.00
C20    C     0.04262   0.16032   0.11524   0.00000  Uiso   1.00
C21    C     0.30315   0.20162   0.45253   0.00000  Uiso   1.00
C22    C     0.02845   0.13440   0.04717   0.00000  Uiso   1.00
C23    C     0.31988   0.19455   0.40652   0.00000  Uiso   1.00
C24    C     0.01175   0.14197   0.09303   0.00000  Uiso   1.00
C25    C     0.24387   0.16096   0.40889   0.00000  Uiso   1.00
C26    C     0.09028   0.17025   0.09146   0.00000  Uiso   1.00
C27    C     0.22412   0.17220   0.45386   0.00000  Uiso   1.00
C28    C     0.10943   0.15897   0.04644   0.00000  Uiso   1.00
C29    C     0.25584   0.18884   0.47736   0.00000  Uiso   1.00
C30    C     0.07710   0.14366   0.02293   0.00000  Uiso   1.00
C31    C     0.17401   0.16569   0.47626   0.00000  Uiso   1.00
C32    C     0.15950   0.16489   0.02389   0.00000  Uiso   1.00
Cu33   Cu    0.04689   0.16667   0.25000   0.00000  Uiso   1.00
Cu34   Cu    0.28645   0.16666   0.25000   0.00000  Uiso   1.00
H35    H     0.11228   0.18727   0.10852   0.00000  Uiso   1.00
H36    H     0.22309   0.14220   0.39211   0.00000  Uiso   1.00
H37    H     0.30790   0.13392   0.11094   0.00000  Uiso   1.00
H38    H     0.02258   0.20531   0.38809   0.00000  Uiso   1.00
H39    H     0.32791   0.21690   0.46794   0.00000  Uiso   1.00
H40    H     0.00232   0.12269   0.03090   0.00000  Uiso   1.00
H41    H     0.29707   0.29307   0.19956   0.00000  Uiso   1.00
H42    H     0.03629   0.04028   0.30037   0.00000  Uiso   1.00
H43    H     0.10739   0.11851   0.29854   0.00000  Uiso   1.00
H44    H     0.22606   0.21452   0.20110   0.00000  Uiso   1.00
N45    N     0.11736   0.16668   0.24999   0.00000  Uiso   1.00
N46    N     0.21597   0.16666   0.25001   0.00000  Uiso   1.00
O47    O     0.03958   0.10655   0.25000   0.00000  Uiso   1.00
O48    O     0.29375   0.22678   0.25000   0.00000  Uiso   1.00
O49    O     0.29372   0.10654   0.25000   0.00000  Uiso   1.00
O50    O     0.03961   0.22679   0.25000   0.00000  Uiso   1.00
O51    O     0.01852   0.16668   0.31492   0.00000  Uiso   1.00
O52    O     0.31481   0.16666   0.18508   0.00000  Uiso   1.00
O53    O     0.27267   0.16667   0.31492   0.00000  Uiso   1.00
O54    O     0.06067   0.16667   0.18508   0.00000  Uiso   1.00
C55    C     0.27126   0.20868   0.05107   0.00000  Uiso   1.00
H56    H     0.31041   0.20679   0.03978   0.00000  Uiso   1.00
O57    O     0.25305   0.22726   0.08562   0.00000  Uiso   1.00
C58    C     0.06080   0.12302   0.45048   0.00000  Uiso   1.00
H59    H     0.05112   0.13984   0.42397   0.00000  Uiso   1.00
O60    O     0.04525   0.08773   0.45935   0.00000  Uiso   1.00
C61    C     0.19124   0.15001   0.09166   0.00000  Uiso   1.00
H62    H     0.21167   0.16093   0.11396   0.00000  Uiso   1.00
O63    O     0.16671   0.11851   0.10266   0.00000  Uiso   1.00
C64    C     0.14547   0.17963   0.40722   0.00000  Uiso   1.00
H65    H     0.16916   0.20661   0.39799   0.00000  Uiso   1.00
O66    O     0.12657   0.16610   0.37952   0.00000  Uiso   1.00
C67    C     0.29345   0.04139   0.18463   0.00000  Uiso   1.00
H68    H     0.30061   0.07395   0.17653   0.00000  Uiso   1.00
O69    O     0.26977   0.02214   0.16418   0.00000  Uiso   1.00
C70    C     0.04001   0.29198   0.31524   0.00000  Uiso   1.00
H71    H     0.03303   0.25940   0.32322   0.00000  Uiso   1.00
O72    O     0.06355   0.31128   0.33579   0.00000  Uiso   1.00
Cl73   Cl    0.19875   0.10330   0.31261   0.00000  Uiso   1.00
Cl74   Cl    0.13498   0.22915   0.18632   0.00000  Uiso   1.00
C75    C     0.33349   0.08752   0.24879   0.00000  Uiso   1.00
C76    C     0.66652   0.24582   0.25118   0.00000  Uiso   1.00
C77    C     0.52869   0.17103   0.04740   0.00000  Uiso   1.00
C78    C     0.47151   0.15988   0.45259   0.00000  Uiso   1.00
C79    C     0.57349   0.19020   0.02482   0.00000  Uiso   1.00
C80    C     0.42602   0.14183   0.47557   0.00000  Uiso   1.00
C81    C     0.64591   0.02062   0.21921   0.00000  Uiso   1.00
C82    C     0.35414   0.31274   0.28071   0.00000  Uiso   1.00
C83    C     0.64563   0.31095   0.22189   0.00000  Uiso   1.00
C84    C     0.35440   0.02240   0.27804   0.00000  Uiso   1.00
C85    C     0.66652   0.29047   0.25181   0.00000  Uiso   1.00
C86    C     0.33351   0.04288   0.24813   0.00000  Uiso   1.00
C87    C     0.51576   0.13964   0.27700   0.00000  Uiso   1.00
C88    C     0.48435   0.19344   0.22269   0.00000  Uiso   1.00
C89    C     0.46642   0.13989   0.27695   0.00000  Uiso   1.00
C90    C     0.53365   0.19327   0.22284   0.00000  Uiso   1.00
C91    C     0.63926   0.16775   0.33601   0.00000  Uiso   1.00
C92    C     0.36072   0.16573   0.16399   0.00000  Uiso   1.00
C93    C     0.62393   0.17327   0.38477   0.00000  Uiso   1.00
C94    C     0.37595   0.16032   0.11524   0.00000  Uiso   1.00
C95    C     0.63648   0.20162   0.45253   0.00000  Uiso   1.00
C96    C     0.36179   0.13440   0.04717   0.00000  Uiso   1.00
C97    C     0.65322   0.19455   0.40652   0.00000  Uiso   1.00
C98    C     0.34508   0.14197   0.09303   0.00000  Uiso   1.00
C99    C     0.57720   0.16096   0.40889   0.00000  Uiso   1.00
C100   C     0.42362   0.17025   0.09146   0.00000  Uiso   1.00
C101   C     0.55746   0.17220   0.45386   0.00000  Uiso   1.00
C102   C     0.44277   0.15897   0.04644   0.00000  Uiso   1.00
C103   C     0.58918   0.18884   0.47736   0.00000  Uiso   1.00
C104   C     0.41043   0.14366   0.02293   0.00000  Uiso   1.00
C105   C     0.50734   0.16569   0.47626   0.00000  Uiso   1.00
C106   C     0.49283   0.16489   0.02389   0.00000  Uiso   1.00
Cu107  Cu    0.38022   0.16667   0.25000   0.00000  Uiso   1.00
Cu108  Cu    0.61978   0.16666   0.25000   0.00000  Uiso   1.00
H109   H     0.44561   0.18727   0.10852   0.00000  Uiso   1.00
H110   H     0.55642   0.14220   0.39211   0.00000  Uiso   1.00
H111   H     0.64123   0.13392   0.11094   0.00000  Uiso   1.00
H112   H     0.35591   0.20531   0.38809   0.00000  Uiso   1.00
H113   H     0.66125   0.21690   0.46794   0.00000  Uiso   1.00
H114   H     0.33566   0.12269   0.03090   0.00000  Uiso   1.00
H115   H     0.63041   0.29307   0.19956   0.00000  Uiso   1.00
H116   H     0.36962   0.04028   0.30037   0.00000  Uiso   1.00
H117   H     0.44072   0.11851   0.29854   0.00000  Uiso   1.00
H118   H     0.55940   0.21452   0.20110   0.00000  Uiso   1.00
N119   N     0.45069   0.16668   0.24999   0.00000  Uiso   1.00
N120   N     0.54931   0.16666   0.25001   0.00000  Uiso   1.00
O121   O     0.37291   0.10655   0.25000   0.00000  Uiso   1.00
O122   O     0.62709   0.22678   0.25000   0.00000  Uiso   1.00
O123   O     0.62706   0.10654   0.25000   0.00000  Uiso   1.00
O124   O     0.37294   0.22679   0.25000   0.00000  Uiso   1.00
O125   O     0.35186   0.16668   0.31492   0.00000  Uiso   1.00
O126   O     0.64814   0.16666   0.18508   0.00000  Uiso   1.00
O127   O     0.60600   0.16667   0.31492   0.00000  Uiso   1.00
O128   O     0.39400   0.16667   0.18508   0.00000  Uiso   1.00
C129   C     0.60460   0.20868   0.05107   0.00000  Uiso   1.00
H130   H     0.64375   0.20679   0.03978   0.00000  Uiso   1.00
O131   O     0.58638   0.22726   0.08562   0.00000  Uiso   1.00
C132   C     0.39413   0.12302   0.45048   0.00000  Uiso   1.00
H133   H     0.38445   0.13984   0.42397   0.00000  Uiso   1.00
O134   O     0.37858   0.08773   0.45935   0.00000  Uiso   1.00
C135   C     0.52457   0.15001   0.09166   0.00000  Uiso   1.00
H136   H     0.54501   0.16093   0.11396   0.00000  Uiso   1.00
O137   O     0.50004   0.11851   0.10266   0.00000  Uiso   1.00
C138   C     0.47881   0.17963   0.40722   0.00000  Uiso   1.00
H139   H     0.50250   0.20661   0.39799   0.00000  Uiso   1.00
O140   O     0.45991   0.16610   0.37952   0.00000  Uiso   1.00
C141   C     0.62678   0.04139   0.18463   0.00000  Uiso   1.00
H142   H     0.63395   0.07395   0.17653   0.00000  Uiso   1.00
O143   O     0.60310   0.02214   0.16418   0.00000  Uiso   1.00
C144   C     0.37334   0.29198   0.31524   0.00000  Uiso   1.00
H145   H     0.36636   0.25940   0.32322   0.00000  Uiso   1.00
O146   O     0.39688   0.31128   0.33579   0.00000  Uiso   1.00
Cl147  Cl    0.53208   0.10330   0.31261   0.00000  Uiso   1.00
Cl148  Cl    0.46832   0.22915   0.18632   0.00000  Uiso   1.00
C149   C     0.66682   0.08752   0.24879   0.00000  Uiso   1.00
C150   C     0.99985   0.24582   0.25118   0.00000  Uiso   1.00
C151   C     0.86202   0.17103   0.04740   0.00000  Uiso   1.00
C152   C     0.80484   0.15988   0.45259   0.00000  Uiso   1.00
C153   C     0.90682   0.19020   0.02482   0.00000  Uiso   1.00
C154   C     0.75935   0.14183   0.47557   0.00000  Uiso   1.00
C155   C     0.97925   0.02062   0.21921   0.00000  Uiso   1.00
C156   C     0.68747   0.31274   0.28071   0.00000  Uiso   1.00
C157   C     0.97896   0.31095   0.22189   0.00000  Uiso   1.00
C158   C     0.68773   0.02240   0.27804   0.00000  Uiso   1.00
C159   C     0.99985   0.29047   0.25181   0.00000  Uiso   1.00
C160   C     0.66684   0.04288   0.24813   0.00000  Uiso   1.00
C161   C     0.84909   0.13964   0.27700   0.00000  Uiso   1.00
C162   C     0.81768   0.19344   0.22269   0.00000  Uiso   1.00
C163   C     0.79975   0.13989   0.27695   0.00000  Uiso   1.00
C164   C     0.86698   0.19327   0.22284   0.00000  Uiso   1.00
C165   C     0.97260   0.16775   0.33601   0.00000  Uiso   1.00
C166   C     0.69405   0.16573   0.16399   0.00000  Uiso   1.00
C167   C     0.95726   0.17327   0.38477   0.00000  Uiso   1.00
C168   C     0.70929   0.16032   0.11524   0.00000  Uiso   1.00
C169   C     0.96981   0.20162   0.45253   0.00000  Uiso   1.00
C170   C     0.69512   0.13440   0.04717   0.00000  Uiso   1.00
C171   C     0.98655   0.19455   0.40652   0.00000  Uiso   1.00
C172   C     0.67841   0.14197   0.09303   0.00000  Uiso   1.00
C173   C     0.91053   0.16096   0.40889   0.00000  Uiso   1.00
C174   C     0.75695   0.17025   0.09146   0.00000  Uiso   1.00
C175   C     0.89079   0.17220   0.45386   0.00000  Uiso   1.00
C176   C     0.77610   0.15897   0.04644   0.00000  Uiso   1.00
C177   C     0.92251   0.18884   0.47736   0.00000  Uiso   1.00
C178   C     0.74377   0.14366   0.02293   0.00000  Uiso   1.00
C179   C     0.84068   0.16569   0.47626   0.00000  Uiso   1.00
C180   C     0.82616   0.16489   0.02389   0.00000  Uiso   1.00
Cu181  Cu    0.71355   0.16667   0.25000   0.00000  Uiso   1.00
Cu182  Cu    0.95311   0.16666   0.25000   0.00000  Uiso   1.00
H183   H     0.77895   0.18727   0.10852   0.00000  Uiso   1.00
H184   H     0.88975   0.14220   0.39211   0.00000  Uiso   1.00
H185   H     0.97456   0.13392   0.11094   0.00000  Uiso   1.00
H186   H     0.68924   0.20531   0.38809   0.00000  Uiso   1.00
H187   H     0.99458   0.21690   0.46794   0.00000  Uiso   1.00
H188   H     0.66899   0.12269   0.03090   0.00000  Uiso   1.00
H189   H     0.96374   0.29307   0.19956   0.00000  Uiso   1.00
H190   H     0.70295   0.04028   0.30037   0.00000  Uiso   1.00
H191   H     0.77405   0.11851   0.29854   0.00000  Uiso   1.00
H192   H     0.89273   0.21452   0.20110   0.00000  Uiso   1.00
N193   N     0.78403   0.16668   0.24999   0.00000  Uiso   1.00
N194   N     0.88264   0.16666   0.25001   0.00000  Uiso   1.00
O195   O     0.70625   0.10655   0.25000   0.00000  Uiso   1.00
O196   O     0.96042   0.22678   0.25000   0.00000  Uiso   1.00
O197   O     0.96039   0.10654   0.25000   0.00000  Uiso   1.00
O198   O     0.70628   0.22679   0.25000   0.00000  Uiso   1.00
O199   O     0.68519   0.16668   0.31492   0.00000  Uiso   1.00
O200   O     0.98148   0.16666   0.18508   0.00000  Uiso   1.00
O201   O     0.93933   0.16667   0.31492   0.00000  Uiso   1.00
O202   O     0.72733   0.16667   0.18508   0.00000  Uiso   1.00
C203   C     0.93793   0.20868   0.05107   0.00000  Uiso   1.00
H204   H     0.97708   0.20679   0.03978   0.00000  Uiso   1.00
O205   O     0.91971   0.22726   0.08562   0.00000  Uiso   1.00
C206   C     0.72746   0.12302   0.45048   0.00000  Uiso   1.00
H207   H     0.71778   0.13984   0.42397   0.00000  Uiso   1.00
O208   O     0.71192   0.08773   0.45935   0.00000  Uiso   1.00
C209   C     0.85791   0.15001   0.09166   0.00000  Uiso   1.00
H210   H     0.87834   0.16093   0.11396   0.00000  Uiso   1.00
O211   O     0.83338   0.11851   0.10266   0.00000  Uiso   1.00
C212   C     0.81214   0.17963   0.40722   0.00000  Uiso   1.00
H213   H     0.83583   0.20661   0.39799   0.00000  Uiso   1.00
O214   O     0.79324   0.16610   0.37952   0.00000  Uiso   1.00
C215   C     0.96011   0.04139   0.18463   0.00000  Uiso   1.00
H216   H     0.96728   0.07395   0.17653   0.00000  Uiso   1.00
O217   O     0.93644   0.02214   0.16418   0.00000  Uiso   1.00
C218   C     0.70668   0.29198   0.31524   0.00000  Uiso   1.00
H219   H     0.69970   0.25940   0.32322   0.00000  Uiso   1.00
O220   O     0.73022   0.31128   0.33579   0.00000  Uiso   1.00
Cl221  Cl    0.86542   0.10330   0.31261   0.00000  Uiso   1.00
Cl222  Cl    0.80165   0.22915   0.18632   0.00000  Uiso   1.00
C223   C     0.00016   0.42085   0.24879   0.00000  Uiso   1.00
C224   C     0.33319   0.57915   0.25118   0.00000  Uiso   1.00
C225   C     0.19535   0.50437   0.04740   0.00000  Uiso   1.00
C226   C     0.13817   0.49321   0.45259   0.00000  Uiso   1.00
C227   C     0.24016   0.52353   0.02482   0.00000  Uiso   1.00
C228   C     0.09268   0.47516   0.47557   0.00000  Uiso   1.00
C229   C     0.31258   0.35395   0.21921   0.00000  Uiso   1.00
C230   C     0.02081   0.64607   0.28071   0.00000  Uiso   1.00
C231   C     0.31229   0.64428   0.22189   0.00000  Uiso   1.00
C232   C     0.02107   0.35574   0.27804   0.00000  Uiso   1.00
C233   C     0.33319   0.62380   0.25181   0.00000  Uiso   1.00
C234   C     0.00017   0.37621   0.24813   0.00000  Uiso   1.00
C235   C     0.18242   0.47297   0.27700   0.00000  Uiso   1.00
C236   C     0.15102   0.52677   0.22269   0.00000  Uiso   1.00
C237   C     0.13309   0.47322   0.27695   0.00000  Uiso   1.00
C238   C     0.20031   0.52660   0.22284   0.00000  Uiso   1.00
C239   C     0.30593   0.50108   0.33601   0.00000  Uiso   1.00
C240   C     0.02739   0.49907   0.16399   0.00000  Uiso   1.00
C241   C     0.29060   0.50661   0.38477   0.00000  Uiso   1.00
C242   C     0.04262   0.49365   0.11524   0.00000  Uiso   1.00
C243   C     0.30315   0.53496   0.45253   0.00000  Uiso   1.00
C244   C     0.02845   0.46773   0.04717   0.00000  Uiso   1.00
C245   C     0.31988   0.52788   0.40652   0.00000  Uiso   1.00
C246   C     0.01175   0.47531   0.09303   0.00000  Uiso   1.00
C247   C     0.24387   0.49429   0.40889   0.00000  Uiso   1.00
C248   C     0.09028   0.50358   0.09146   0.00000  Uiso   1.00
C249   C     0.22412   0.50553   0.45386   0.00000  Uiso   1.00
C250   C     0.10943   0.49230   0.04644   0.00000  Uiso   1.00
C251   C     0.25584   0.52217   0.47736   0.00000  Uiso   1.00
C252   C     0.07710   0.47699   0.02293   0.00000  Uiso   1.00
C253   C     0.17401   0.49903   0.47626   0.00000  Uiso   1.00
C254   C     0.15950   0.49822   0.02389   0.00000  Uiso   1.00
Cu255  Cu    0.04689   0.50001   0.25000   0.00000  Uiso   1.00
Cu256  Cu    0.28645   0.49999   0.25000   0.00000  Uiso   1.00
H257   H     0.11228   0.52060   0.10852   0.00000  Uiso   1.00
H258   H     0.22309   0.47553   0.39211   0.00000  Uiso   1.00
H259   H     0.30790   0.46726   0.11094   0.00000  Uiso   1.00
H260   H     0.02258   0.53865   0.38809   0.00000  Uiso   1.00
H261   H     0.32791   0.55023   0.46794   0.00000  Uiso   1.00
H262   H     0.00232   0.45602   0.03090   0.00000  Uiso   1.00
H263   H     0.29707   0.62641   0.19956   0.00000  Uiso   1.00
H264   H     0.03629   0.37361   0.30037   0.00000  Uiso   1.00
H265   H     0.10739   0.45184   0.29854   0.00000  Uiso   1.00
H266   H     0.22606   0.54785   0.20110   0.00000  Uiso   1.00
N267   N     0.11736   0.50001   0.24999   0.00000  Uiso   1.00
N268   N     0.21597   0.49999   0.25001   0.00000  Uiso   1.00
O269   O     0.03958   0.43989   0.25000   0.00000  Uiso   1.00
O270   O     0.29375   0.56011   0.25000   0.00000  Uiso   1.00
O271   O     0.29372   0.43988   0.25000   0.00000  Uiso   1.00
O272   O     0.03961   0.56012   0.25000   0.00000  Uiso   1.00
O273   O     0.01852   0.50001   0.31492   0.00000  Uiso   1.00
O274   O     0.31481   0.49999   0.18508   0.00000  Uiso   1.00
O275   O     0.27267   0.50000   0.31492   0.00000  Uiso   1.00
O276   O     0.06067   0.50000   0.18508   0.00000  Uiso   1.00
C277   C     0.27126   0.54201   0.05107   0.00000  Uiso   1.00
H278   H     0.31041   0.54012   0.03978   0.00000  Uiso   1.00
O279   O     0.25305   0.56059   0.08562   0.00000  Uiso   1.00
C280   C     0.06080   0.45635   0.45048   0.00000  Uiso   1.00
H281   H     0.05112   0.47317   0.42397   0.00000  Uiso   1.00
O282   O     0.04525   0.42107   0.45935   0.00000  Uiso   1.00
C283   C     0.19124   0.48335   0.09166   0.00000  Uiso   1.00
H284   H     0.21167   0.49427   0.11396   0.00000  Uiso   1.00
O285   O     0.16671   0.45185   0.10266   0.00000  Uiso   1.00
C286   C     0.14547   0.51296   0.40722   0.00000  Uiso   1.00
H287   H     0.16916   0.53995   0.39799   0.00000  Uiso   1.00
O288   O     0.12657   0.49944   0.37952   0.00000  Uiso   1.00
C289   C     0.29345   0.37473   0.18463   0.00000  Uiso   1.00
H290   H     0.30061   0.40728   0.17653   0.00000  Uiso   1.00
O291   O     0.26977   0.35548   0.16418   0.00000  Uiso   1.00
C292   C     0.04001   0.62532   0.31524   0.00000  Uiso   1.00
H293   H     0.03303   0.59274   0.32322   0.00000  Uiso   1.00
O294   O     0.06355   0.64461   0.33579   0.00000  Uiso   1.00
Cl295  Cl    0.19875   0.43663   0.31261   0.00000  Uiso   1.00
Cl296  Cl    0.13498   0.56249   0.18632   0.00000  Uiso   1.00
C297   C     0.33349   0.42085   0.24879   0.00000  Uiso   1.00
C298   C     0.66652   0.57915   0.25118   0.00000  Uiso   1.00
C299   C     0.52869   0.50437   0.04740   0.00000  Uiso   1.00
C300   C     0.47151   0.49321   0.45259   0.00000  Uiso   1.00
C301   C     0.57349   0.52353   0.02482   0.00000  Uiso   1.00
C302   C     0.42602   0.47516   0.47557   0.00000  Uiso   1.00
C303   C     0.64591   0.35395   0.21921   0.00000  Uiso   1.00
C304   C     0.35414   0.64607   0.28071   0.00000  Uiso   1.00
C305   C     0.64563   0.64428   0.22189   0.00000  Uiso   1.00
C306   C     0.35440   0.35574   0.27804   0.00000  Uiso   1.00
C307   C     0.66652   0.62380   0.25181   0.00000  Uiso   1.00
C308   C     0.33351   0.37621   0.24813   0.00000  Uiso   1.00
C309   C     0.51576   0.47297   0.27700   0.00000  Uiso   1.00
C310   C     0.48435   0.52677   0.22269   0.00000  Uiso   1.00
C311   C     0.46642   0.47322   0.27695   0.00000  Uiso   1.00
C312   C     0.53365   0.52660   0.22284   0.00000  Uiso   1.00
C313   C     0.63926   0.50108   0.33601   0.00000  Uiso   1.00
C314   C     0.36072   0.49907   0.16399   0.00000  Uiso   1.00
C315   C     0.62393   0.50661   0.38477   0.00000  Uiso   1.00
C316   C     0.37595   0.49365   0.11524   0.00000  Uiso   1.00
C317   C     0.63648   0.53496   0.45253   0.00000  Uiso   1.00
C318   C     0.36179   0.46773   0.04717   0.00000  Uiso   1.00
C319   C     0.65322   0.52788   0.40652   0.00000  Uiso   1.00
C320   C     0.34508   0.47531   0.09303   0.00000  Uiso   1.00
C321   C     0.57720   0.49429   0.40889   0.00000  Uiso   1.00
C322   C     0.42362   0.50358   0.09146   0.00000  Uiso   1.00
C323   C     0.55746   0.50553   0.45386   0.00000  Uiso   1.00
C324   C     0.44277   0.49230   0.04644   0.00000  Uiso   1.00
C325   C     0.58918   0.52217   0.47736   0.00000  Uiso   1.00
C326   C     0.41043   0.47699   0.02293   0.00000  Uiso   1.00
C327   C     0.50734   0.49903   0.47626   0.00000  Uiso   1.00
C328   C     0.49283   0.49822   0.02389   0.00000  Uiso   1.00
Cu329  Cu    0.38022   0.50001   0.25000   0.00000  Uiso   1.00
Cu330  Cu    0.61978   0.49999   0.25000   0.00000  Uiso   1.00
H331   H     0.44561   0.52060   0.10852   0.00000  Uiso   1.00
H332   H     0.55642   0.47553   0.39211   0.00000  Uiso   1.00
H333   H     0.64123   0.46726   0.11094   0.00000  Uiso   1.00
H334   H     0.35591   0.53865   0.38809   0.00000  Uiso   1.00
H335   H     0.66125   0.55023   0.46794   0.00000  Uiso   1.00
H336   H     0.33566   0.45602   0.03090   0.00000  Uiso   1.00
H337   H     0.63041   0.62641   0.19956   0.00000  Uiso   1.00
H338   H     0.36962   0.37361   0.30037   0.00000  Uiso   1.00
H339   H     0.44072   0.45184   0.29854   0.00000  Uiso   1.00
H340   H     0.55940   0.54785   0.20110   0.00000  Uiso   1.00
N341   N     0.45069   0.50001   0.24999   0.00000  Uiso   1.00
N342   N     0.54931   0.49999   0.25001   0.00000  Uiso   1.00
O343   O     0.37291   0.43989   0.25000   0.00000  Uiso   1.00
O344   O     0.62709   0.56011   0.25000   0.00000  Uiso   1.00
O345   O     0.62706   0.43988   0.25000   0.00000  Uiso   1.00
O346   O     0.37294   0.56012   0.25000   0.00000  Uiso   1.00
O347   O     0.35186   0.50001   0.31492   0.00000  Uiso   1.00
O348   O     0.64814   0.49999   0.18508   0.00000  Uiso   1.00
O349   O     0.60600   0.50000   0.31492   0.00000  Uiso   1.00
O350   O     0.39400   0.50000   0.18508   0.00000  Uiso   1.00
C351   C     0.60460   0.54201   0.05107   0.00000  Uiso   1.00
H352   H     0.64375   0.54012   0.03978   0.00000  Uiso   1.00
O353   O     0.58638   0.56059   0.08562   0.00000  Uiso   1.00
C354   C     0.39413   0.45635   0.45048   0.00000  Uiso   1.00
H355   H     0.38445   0.47317   0.42397   0.00000  Uiso   1.00
O356   O     0.37858   0.42107   0.45935   0.00000  Uiso   1.00
C357   C     0.52457   0.48335   0.09166   0.00000  Uiso   1.00
H358   H     0.54501   0.49427   0.11396   0.00000  Uiso   1.00
O359   O     0.50004   0.45185   0.10266   0.00000  Uiso   1.00
C360   C     0.47881   0.51296   0.40722   0.00000  Uiso   1.00
H361   H     0.50250   0.53995   0.39799   0.00000  Uiso   1.00
O362   O     0.45991   0.49944   0.37952   0.00000  Uiso   1.00
C363   C     0.62678   0.37473   0.18463   0.00000  Uiso   1.00
H364   H     0.63395   0.40728   0.17653   0.00000  Uiso   1.00
O365   O     0.60310   0.35548   0.16418   0.00000  Uiso   1.00
C366   C     0.37334   0.62532   0.31524   0.00000  Uiso   1.00
H367   H     0.36636   0.59274   0.32322   0.00000  Uiso   1.00
O368   O     0.39688   0.64461   0.33579   0.00000  Uiso   1.00
Cl369  Cl    0.53208   0.43663   0.31261   0.00000  Uiso   1.00
Cl370  Cl    0.46832   0.56249   0.18632   0.00000  Uiso   1.00
C371   C     0.66682   0.42085   0.24879   0.00000  Uiso   1.00
C372   C     0.99985   0.57915   0.25118   0.00000  Uiso   1.00
C373   C     0.86202   0.50437   0.04740   0.00000  Uiso   1.00
C374   C     0.80484   0.49321   0.45259   0.00000  Uiso   1.00
C375   C     0.90682   0.52353   0.02482   0.00000  Uiso   1.00
C376   C     0.75935   0.47516   0.47557   0.00000  Uiso   1.00
C377   C     0.97925   0.35395   0.21921   0.00000  Uiso   1.00
C378   C     0.68747   0.64607   0.28071   0.00000  Uiso   1.00
C379   C     0.97896   0.64428   0.22189   0.00000  Uiso   1.00
C380   C     0.68773   0.35574   0.27804   0.00000  Uiso   1.00
C381   C     0.99985   0.62380   0.25181   0.00000  Uiso   1.00
C382   C     0.66684   0.37621   0.24813   0.00000  Uiso   1.00
C383   C     0.84909   0.47297   0.27700   0.00000  Uiso   1.00
C384   C     0.81768   0.52677   0.22269   0.00000  Uiso   1.00
C385   C     0.79975   0.47322   0.27695   0.00000  Uiso   1.00
C386   C     0.86698   0.52660   0.22284   0.00000  Uiso   1.00
C387   C     0.97260   0.50108   0.33601   0.00000  Uiso   1.00
C388   C     0.69405   0.49907   0.16399   0.00000  Uiso   1.00
C389   C     0.95726   0.50661   0.38477   0.00000  Uiso   1.00
C390   C     0.70929   0.49365   0.11524   0.00000  Uiso   1.00
C391   C     0.96981   0.53496   0.45253   0.00000  Uiso   1.00
C392   C     0.69512   0.46773   0.04717   0.00000  Uiso   1.00
C393   C     0.98655   0.52788   0.40652   0.00000  Uiso   1.00
C394   C     0.67841   0.47531   0.09303   0.00000  Uiso   1.00
C395   C     0.91053   0.49429   0.40889   0.00000  Uiso   1.00
C396   C     0.75695   0.50358   0.09146   0.00000  Uiso   1.00
C397   C     0.89079   0.50553   0.45386   0.00000  Uiso   1.00
C398   C     0.77610   0.49230   0.04644   0.00000  Uiso   1.00
C399   C     0.92251   0.52217   0.47736   0.00000  Uiso   1.00
C400   C     0.74377   0.47699   0.02293   0.00000  Uiso   1.00
C401   C     0.84068   0.49903   0.47626   0.00000  Uiso   1.00
C402   C     0.82616   0.49822   0.02389   0.00000  Uiso   1.00
Cu403  Cu    0.71355   0.50001   0.25000   0.00000  Uiso   1.00
Cu404  Cu    0.95311   0.49999   0.25000   0.00000  Uiso   1.00
H405   H     0.77895   0.52060   0.10852   0.00000  Uiso   1.00
H406   H     0.88975   0.47553   0.39211   0.00000  Uiso   1.00
H407   H     0.97456   0.46726   0.11094   0.00000  Uiso   1.00
H408   H     0.68924   0.53865   0.38809   0.00000  Uiso   1.00
H409   H     0.99458   0.55023   0.46794   0.00000  Uiso   1.00
H410   H     0.66899   0.45602   0.03090   0.00000  Uiso   1.00
H411   H     0.96374   0.62641   0.19956   0.00000  Uiso   1.00
H412   H     0.70295   0.37361   0.30037   0.00000  Uiso   1.00
H413   H     0.77405   0.45184   0.29854   0.00000  Uiso   1.00
H414   H     0.89273   0.54785   0.20110   0.00000  Uiso   1.00
N415   N     0.78403   0.50001   0.24999   0.00000  Uiso   1.00
N416   N     0.88264   0.49999   0.25001   0.00000  Uiso   1.00
O417   O     0.70625   0.43989   0.25000   0.00000  Uiso   1.00
O418   O     0.96042   0.56011   0.25000   0.00000  Uiso   1.00
O419   O     0.96039   0.43988   0.25000   0.00000  Uiso   1.00
O420   O     0.70628   0.56012   0.25000   0.00000  Uiso   1.00
O421   O     0.68519   0.50001   0.31492   0.00000  Uiso   1.00
O422   O     0.98148   0.49999   0.18508   0.00000  Uiso   1.00
O423   O     0.93933   0.50000   0.31492   0.00000  Uiso   1.00
O424   O     0.72733   0.50000   0.18508   0.00000  Uiso   1.00
C425   C     0.93793   0.54201   0.05107   0.00000  Uiso   1.00
H426   H     0.97708   0.54012   0.03978   0.00000  Uiso   1.00
O427   O     0.91971   0.56059   0.08562   0.00000  Uiso   1.00
C428   C     0.72746   0.45635   0.45048   0.00000  Uiso   1.00
H429   H     0.71778   0.47317   0.42397   0.00000  Uiso   1.00
O430   O     0.71192   0.42107   0.45935   0.00000  Uiso   1.00
C431   C     0.85791   0.48335   0.09166   0.00000  Uiso   1.00
H432   H     0.87834   0.49427   0.11396   0.00000  Uiso   1.00
O433   O     0.83338   0.45185   0.10266   0.00000  Uiso   1.00
C434   C     0.81214   0.51296   0.40722   0.00000  Uiso   1.00
H435   H     0.83583   0.53995   0.39799   0.00000  Uiso   1.00
O436   O     0.79324   0.49944   0.37952   0.00000  Uiso   1.00
C437   C     0.96011   0.37473   0.18463   0.00000  Uiso   1.00
H438   H     0.96728   0.40728   0.17653   0.00000  Uiso   1.00
O439   O     0.93644   0.35548   0.16418   0.00000  Uiso   1.00
C440   C     0.70668   0.62532   0.31524   0.00000  Uiso   1.00
H441   H     0.69970   0.59274   0.32322   0.00000  Uiso   1.00
O442   O     0.73022   0.64461   0.33579   0.00000  Uiso   1.00
Cl443  Cl    0.86542   0.43663   0.31261   0.00000  Uiso   1.00
Cl444  Cl    0.80165   0.56249   0.18632   0.00000  Uiso   1.00
C445   C     0.00016   0.75419   0.24879   0.00000  Uiso   1.00
C446   C     0.33319   0.91249   0.25118   0.00000  Uiso   1.00
C447   C     0.19535   0.83770   0.04740   0.00000  Uiso   1.00
C448   C     0.13817   0.82655   0.45259   0.00000  Uiso   1.00
C449   C     0.24016   0.85687   0.02482   0.00000  Uiso   1.00
C450   C     0.09268   0.80850   0.47557   0.00000  Uiso   1.00
C451   C     0.31258   0.68728   0.21921   0.00000  Uiso   1.00
C452   C     0.02081   0.97941   0.28071   0.00000  Uiso   1.00
C453   C     0.31229   0.97762   0.22189   0.00000  Uiso   1.00
C454   C     0.02107   0.68907   0.27804   0.00000  Uiso   1.00
C455   C     0.33319   0.95714   0.25181   0.00000  Uiso   1.00
C456   C     0.00017   0.70955   0.24813   0.00000  Uiso   1.00
C457   C     0.18242   0.80630   0.27700   0.00000  Uiso   1.00
C458   C     0.15102   0.86010   0.22269   0.00000  Uiso   1.00
C459   C     0.13309   0.80656   0.27695   0.00000  Uiso   1.00
C460   C     0.20031   0.85994   0.22284   0.00000  Uiso   1.00
C461   C     0.30593   0.83441   0.33601   0.00000  Uiso   1.00
C462   C     0.02739   0.83240   0.16399   0.00000  Uiso   1.00
C463   C     0.29060   0.83994   0.38477   0.00000  Uiso   1.00
C464   C     0.04262   0.82698   0.11524   0.00000  Uiso   1.00
C465   C     0.30315   0.86829   0.45253   0.00000  Uiso   1.00
C466   C     0.02845   0.80107   0.04717   0.00000  Uiso   1.00
C467   C     0.31988   0.86121   0.40652   0.00000  Uiso   1.00
C468   C     0.01175   0.80864   0.09303   0.00000  Uiso   1.00
C469   C     0.24387   0.82762   0.40889   0.00000  Uiso   1.00
C470   C     0.09028   0.83692   0.09146   0.00000  Uiso   1.00
C471   C     0.22412   0.83887   0.45386   0.00000  Uiso   1.00
C472   C     0.10943   0.82564   0.04644   0.00000  Uiso   1.00
C473   C     0.25584   0.85550   0.47736   0.00000  Uiso   1.00
C474   C     0.07710   0.81032   0.02293   0.00000  Uiso   1.00
C475   C     0.17401   0.83236   0.47626   0.00000  Uiso   1.00
C476   C     0.15950   0.83155   0.02389   0.00000  Uiso   1.00
Cu477  Cu    0.04689   0.83334   0.25000   0.00000  Uiso   1.00
Cu478  Cu    0.28645   0.83333   0.25000   0.00000  Uiso   1.00
H479   H     0.11228   0.85393   0.10852   0.00000  Uiso   1.00
H480   H     0.22309   0.80886   0.39211   0.00000  Uiso   1.00
H481   H     0.30790   0.80059   0.11094   0.00000  Uiso   1.00
H482   H     0.02258   0.87198   0.38809   0.00000  Uiso   1.00
H483   H     0.32791   0.88356   0.46794   0.00000  Uiso   1.00
H484   H     0.00232   0.78935   0.03090   0.00000  Uiso   1.00
H485   H     0.29707   0.95974   0.19956   0.00000  Uiso   1.00
H486   H     0.03629   0.70695   0.30037   0.00000  Uiso   1.00
H487   H     0.10739   0.78518   0.29854   0.00000  Uiso   1.00
H488   H     0.22606   0.88119   0.20110   0.00000  Uiso   1.00
N489   N     0.11736   0.83334   0.24999   0.00000  Uiso   1.00
N490   N     0.21597   0.83332   0.25001   0.00000  Uiso   1.00
O491   O     0.03958   0.77322   0.25000   0.00000  Uiso   1.00
O492   O     0.29375   0.89345   0.25000   0.00000  Uiso   1.00
O493   O     0.29372   0.77321   0.25000   0.00000  Uiso   1.00
O494   O     0.03961   0.89346   0.25000   0.00000  Uiso   1.00
O495   O     0.01852   0.83334   0.31492   0.00000  Uiso   1.00
O496   O     0.31481   0.83332   0.18508   0.00000  Uiso   1.00
O497   O     0.27267   0.83333   0.31492   0.00000  Uiso   1.00
O498   O     0.06067   0.83333   0.18508   0.00000  Uiso   1.00
C499   C     0.27126   0.87534   0.05107   0.00000  Uiso   1.00
H500   H     0.31041   0.87345   0.03978   0.00000  Uiso   1.00
O501   O     0.25305   0.89393   0.08562   0.00000  Uiso   1.00
C502   C     0.06080   0.78969   0.45048   0.00000  Uiso   1.00
H503   H     0.05112   0.80651   0.42397   0.00000  Uiso   1.00
O504   O     0.04525   0.75440   0.45935   0.00000  Uiso   1.00
C505   C     0.19124   0.81668   0.09166   0.00000  Uiso   1.00
H506   H     0.21167   0.82760   0.11396   0.00000  Uiso   1.00
O507   O     0.16671   0.78518   0.10266   0.00000  Uiso   1.00
C508   C     0.14547   0.84630   0.40722   0.00000  Uiso   1.00
H509   H     0.16916   0.87328   0.39799   0.00000  Uiso   1.00
O510   O     0.12657   0.83277   0.37952   0.00000  Uiso   1.00
C511   C     0.29345   0.70806   0.18463   0.00000  Uiso   1.00
H512   H     0.30061   0.74061   0.17653   0.00000  Uiso   1.00
O513   O     0.26977   0.68881   0.16418   0.00000  Uiso   1.00
C514   C     0.04001   0.95865   0.31524   0.00000  Uiso   1.00
H515   H     0.03303   0.92607   0.32322   0.00000  Uiso   1.00
O516   O     0.06355   0.97795   0.33579   0.00000  Uiso   1.00
Cl517  Cl    0.19875   0.76996   0.31261   0.00000  Uiso   1.00
Cl518  Cl    0.13498   0.89582   0.18632   0.00000  Uiso   1.00
C519   C     0.33349   0.75419   0.24879   0.00000  Uiso   1.00
C520   C     0.66652   0.91249   0.25118   0.00000  Uiso   1.00
C521   C     0.52869   0.83770   0.04740   0.00000  Uiso   1.00
C522   C     0.47151   0.82655   0.45259   0.00000  Uiso   1.00
C523   C     0.57349   0.85687   0.02482   0.00000  Uiso   1.00
C524   C     0.42602   0.80850   0.47557   0.00000  Uiso   1.00
C525   C     0.64591   0.68728   0.21921   0.00000  Uiso   1.00
C526   C     0.35414   0.97941   0.28071   0.00000  Uiso   1.00
C527   C     0.64563   0.97762   0.22189   0.00000  Uiso   1.00
C528   C     0.35440   0.68907   0.27804   0.00000  Uiso   1.00
C529   C     0.66652   0.95714   0.25181   0.00000  Uiso   1.00
C530   C     0.33351   0.70955   0.24813   0.00000  Uiso   1.00
C531   C     0.51576   0.80630   0.27700   0.00000  Uiso   1.00
C532   C     0.48435   0.86010   0.22269   0.00000  Uiso   1.00
C533   C     0.46642   0.80656   0.27695   0.00000  Uiso   1.00
C534   C     0.53365   0.85994   0.22284   0.00000  Uiso   1.00
C535   C     0.63926   0.83441   0.33601   0.00000  Uiso   1.00
C536   C     0.36072   0.83240   0.16399   0.00000  Uiso   1.00
C537   C     0.62393   0.83994   0.38477   0.00000  Uiso   1.00
C538   C     0.37595   0.82698   0.11524   0.00000  Uiso   1.00
C539   C     0.63648   0.86829   0.45253   0.00000  Uiso   1.00
C540   C     0.36179   0.80107   0.04717   0.00000  Uiso   1.00
C541   C     0.65322   0.86121   0.40652   0.00000  Uiso   1.00
C542   C     0.34508   0.80864   0.09303   0.00000  Uiso   1.00
C543   C     0.57720   0.82762   0.40889   0.00000  Uiso   1.00
C544   C     0.42362   0.83692   0.09146   0.00000  Uiso   1.00
C545   C     0.55746   0.83887   0.45386   0.00000  Uiso   1.00
C546   C     0.44277   0.82564   0.04644   0.00000  Uiso   1.00
C547   C     0.58918   0.85550   0.47736   0.00000  Uiso   1.00
C548   C     0.41043   0.81032   0.02293   0.00000  Uiso   1.00
C549   C     0.50734   0.83236   0.47626   0.00000  Uiso   1.00
C550   C     0.49283   0.83155   0.02389   0.00000  Uiso   1.00
Cu551  Cu    0.38022   0.83334   0.25000   0.00000  Uiso   1.00
Cu552  Cu    0.61978   0.83333   0.25000   0.00000  Uiso   1.00
H553   H     0.44561   0.85393   0.10852   0.00000  Uiso   1.00
H554   H     0.55642   0.80886   0.39211   0.00000  Uiso   1.00
H555   H     0.64123   0.80059   0.11094   0.00000  Uiso   1.00
H556   H     0.35591   0.87198   0.38809   0.00000  Uiso   1.00
H557   H     0.66125   0.88356   0.46794   0.00000  Uiso   1.00
H558   H     0.33566   0.78935   0.03090   0.00000  Uiso   1.00
H559   H     0.63041   0.95974   0.19956   0.00000  Uiso   1.00
H560   H     0.36962   0.70695   0.30037   0.00000  Uiso   1.00
H561   H     0.44072   0.78518   0.29854   0.00000  Uiso   1.00
H562   H     0.55940   0.88119   0.20110   0.00000  Uiso   1.00
N563   N     0.45069   0.83334   0.24999   0.00000  Uiso   1.00
N564   N     0.54931   0.83332   0.25001   0.00000  Uiso   1.00
O565   O     0.37291   0.77322   0.25000   0.00000  Uiso   1.00
O566   O     0.62709   0.89345   0.25000   0.00000  Uiso   1.00
O567   O     0.62706   0.77321   0.25000   0.00000  Uiso   1.00
O568   O     0.37294   0.89346   0.25000   0.00000  Uiso   1.00
O569   O     0.35186   0.83334   0.31492   0.00000  Uiso   1.00
O570   O     0.64814   0.83332   0.18508   0.00000  Uiso   1.00
O571   O     0.60600   0.83333   0.31492   0.00000  Uiso   1.00
O572   O     0.39400   0.83333   0.18508   0.00000  Uiso   1.00
C573   C     0.60460   0.87534   0.05107   0.00000  Uiso   1.00
H574   H     0.64375   0.87345   0.03978   0.00000  Uiso   1.00
O575   O     0.58638   0.89393   0.08562   0.00000  Uiso   1.00
C576   C     0.39413   0.78969   0.45048   0.00000  Uiso   1.00
H577   H     0.38445   0.80651   0.42397   0.00000  Uiso   1.00
O578   O     0.37858   0.75440   0.45935   0.00000  Uiso   1.00
C579   C     0.52457   0.81668   0.09166   0.00000  Uiso   1.00
H580   H     0.54501   0.82760   0.11396   0.00000  Uiso   1.00
O581   O     0.50004   0.78518   0.10266   0.00000  Uiso   1.00
C582   C     0.47881   0.84630   0.40722   0.00000  Uiso   1.00
H583   H     0.50250   0.87328   0.39799   0.00000  Uiso   1.00
O584   O     0.45991   0.83277   0.37952   0.00000  Uiso   1.00
C585   C     0.62678   0.70806   0.18463   0.00000  Uiso   1.00
H586   H     0.63395   0.74061   0.17653   0.00000  Uiso   1.00
O587   O     0.60310   0.68881   0.16418   0.00000  Uiso   1.00
C588   C     0.37334   0.95865   0.31524   0.00000  Uiso   1.00
H589   H     0.36636   0.92607   0.32322   0.00000  Uiso   1.00
O590   O     0.39688   0.97795   0.33579   0.00000  Uiso   1.00
Cl591  Cl    0.53208   0.76996   0.31261   0.00000  Uiso   1.00
Cl592  Cl    0.46832   0.89582   0.18632   0.00000  Uiso   1.00
C593   C     0.66682   0.75419   0.24879   0.00000  Uiso   1.00
C594   C     0.99985   0.91249   0.25118   0.00000  Uiso   1.00
C595   C     0.86202   0.83770   0.04740   0.00000  Uiso   1.00
C596   C     0.80484   0.82655   0.45259   0.00000  Uiso   1.00
C597   C     0.90682   0.85687   0.02482   0.00000  Uiso   1.00
C598   C     0.75935   0.80850   0.47557   0.00000  Uiso   1.00
C599   C     0.97925   0.68728   0.21921   0.00000  Uiso   1.00
C600   C     0.68747   0.97941   0.28071   0.00000  Uiso   1.00
C601   C     0.97896   0.97762   0.22189   0.00000  Uiso   1.00
C602   C     0.68773   0.68907   0.27804   0.00000  Uiso   1.00
C603   C     0.99985   0.95714   0.25181   0.00000  Uiso   1.00
C604   C     0.66684   0.70955   0.24813   0.00000  Uiso   1.00
C605   C     0.84909   0.80630   0.27700   0.00000  Uiso   1.00
C606   C     0.81768   0.86010   0.22269   0.00000  Uiso   1.00
C607   C     0.79975   0.80656   0.27695   0.00000  Uiso   1.00
C608   C     0.86698   0.85994   0.22284   0.00000  Uiso   1.00
C609   C     0.97260   0.83441   0.33601   0.00000  Uiso   1.00
C610   C     0.69405   0.83240   0.16399   0.00000  Uiso   1.00
C611   C     0.95726   0.83994   0.38477   0.00000  Uiso   1.00
C612   C     0.70929   0.82698   0.11524   0.00000  Uiso   1.00
C613   C     0.96981   0.86829   0.45253   0.00000  Uiso   1.00
C614   C     0.69512   0.80107   0.04717   0.00000  Uiso   1.00
C615   C     0.98655   0.86121   0.40652   0.00000  Uiso   1.00
C616   C     0.67841   0.80864   0.09303   0.00000  Uiso   1.00
C617   C     0.91053   0.82762   0.40889   0.00000  Uiso   1.00
C618   C     0.75695   0.83692   0.09146   0.00000  Uiso   1.00
C619   C     0.89079   0.83887   0.45386   0.00000  Uiso   1.00
C620   C     0.77610   0.82564   0.04644   0.00000  Uiso   1.00
C621   C     0.92251   0.85550   0.47736   0.00000  Uiso   1.00
C622   C     0.74377   0.81032   0.02293   0.00000  Uiso   1.00
C623   C     0.84068   0.83236   0.47626   0.00000  Uiso   1.00
C624   C     0.82616   0.83155   0.02389   0.00000  Uiso   1.00
Cu625  Cu    0.71355   0.83334   0.25000   0.00000  Uiso   1.00
Cu626  Cu    0.95311   0.83333   0.25000   0.00000  Uiso   1.00
H627   H     0.77895   0.85393   0.10852   0.00000  Uiso   1.00
H628   H     0.88975   0.80886   0.39211   0.00000  Uiso   1.00
H629   H     0.97456   0.80059   0.11094   0.00000  Uiso   1.00
H630   H     0.68924   0.87198   0.38809   0.00000  Uiso   1.00
H631   H     0.99458   0.88356   0.46794   0.00000  Uiso   1.00
H632   H     0.66899   0.78935   0.03090   0.00000  Uiso   1.00
H633   H     0.96374   0.95974   0.19956   0.00000  Uiso   1.00
H634   H     0.70295   0.70695   0.30037   0.00000  Uiso   1.00
H635   H     0.77405   0.78518   0.29854   0.00000  Uiso   1.00
H636   H     0.89273   0.88119   0.20110   0.00000  Uiso   1.00
N637   N     0.78403   0.83334   0.24999   0.00000  Uiso   1.00
N638   N     0.88264   0.83332   0.25001   0.00000  Uiso   1.00
O639   O     0.70625   0.77322   0.25000   0.00000  Uiso   1.00
O640   O     0.96042   0.89345   0.25000   0.00000  Uiso   1.00
O641   O     0.96039   0.77321   0.25000   0.00000  Uiso   1.00
O642   O     0.70628   0.89346   0.25000   0.00000  Uiso   1.00
O643   O     0.68519   0.83334   0.31492   0.00000  Uiso   1.00
O644   O     0.98148   0.83332   0.18508   0.00000  Uiso   1.00
O645   O     0.93933   0.83333   0.31492   0.00000  Uiso   1.00
O646   O     0.72733   0.83333   0.18508   0.00000  Uiso   1.00
C647   C     0.93793   0.87534   0.05107   0.00000  Uiso   1.00
H648   H     0.97708   0.87345   0.03978   0.00000  Uiso   1.00
O649   O     0.91971   0.89393   0.08562   0.00000  Uiso   1.00
C650   C     0.72746   0.78969   0.45048   0.00000  Uiso   1.00
H651   H     0.71778   0.80651   0.42397   0.00000  Uiso   1.00
O652   O     0.71192   0.75440   0.45935   0.00000  Uiso   1.00
C653   C     0.85791   0.81668   0.09166   0.00000  Uiso   1.00
H654   H     0.87834   0.82760   0.11396   0.00000  Uiso   1.00
O655   O     0.83338   0.78518   0.10266   0.00000  Uiso   1.00
C656   C     0.81214   0.84630   0.40722   0.00000  Uiso   1.00
H657   H     0.83583   0.87328   0.39799   0.00000  Uiso   1.00
O658   O     0.79324   0.83277   0.37952   0.00000  Uiso   1.00
C659   C     0.96011   0.70806   0.18463   0.00000  Uiso   1.00
H660   H     0.96728   0.74061   0.17653   0.00000  Uiso   1.00
O661   O     0.93644   0.68881   0.16418   0.00000  Uiso   1.00
C662   C     0.70668   0.95865   0.31524   0.00000  Uiso   1.00
H663   H     0.69970   0.92607   0.32322   0.00000  Uiso   1.00
O664   O     0.73022   0.97795   0.33579   0.00000  Uiso   1.00
Cl665  Cl    0.86542   0.76996   0.31261   0.00000  Uiso   1.00
Cl666  Cl    0.80165   0.89582   0.18632   0.00000  Uiso   1.00
C667   C     0.00016   0.08752   0.74879   0.00000  Uiso   1.00
C668   C     0.33319   0.24582   0.75118   0.00000  Uiso   1.00
C669   C     0.19535   0.17103   0.54740   0.00000  Uiso   1.00
C670   C     0.13817   0.15988   0.95259   0.00000  Uiso   1.00
C671   C     0.24016   0.19020   0.52482   0.00000  Uiso   1.00
C672   C     0.09268   0.14183   0.97557   0.00000  Uiso   1.00
C673   C     0.31258   0.02062   0.71921   0.00000  Uiso   1.00
C674   C     0.02081   0.31274   0.78071   0.00000  Uiso   1.00
C675   C     0.31229   0.31095   0.72189   0.00000  Uiso   1.00
C676   C     0.02107   0.02240   0.77804   0.00000  Uiso   1.00
C677   C     0.33319   0.29047   0.75181   0.00000  Uiso   1.00
C678   C     0.00017   0.04288   0.74813   0.00000  Uiso   1.00
C679   C     0.18242   0.13964   0.77700   0.00000  Uiso   1.00
C680   C     0.15102   0.19344   0.72269   0.00000  Uiso   1.00
C681   C     0.13309   0.13989   0.77695   0.00000  Uiso   1.00
C682   C     0.20031   0.19327   0.72284   0.00000  Uiso   1.00
C683   C     0.30593   0.16775   0.83601   0.00000  Uiso   1.00
C684   C     0.02739   0.16573   0.66399   0.00000  Uiso   1.00
C685   C     0.29060   0.17327   0.88477   0.00000  Uiso   1.00
C686   C     0.04262   0.16032   0.61524   0.00000  Uiso   1.00
C687   C     0.30315   0.20162   0.95253   0.00000  Uiso   1.00
C688   C     0.02845   0.13440   0.54717   0.00000  Uiso   1.00
C689   C     0.31988   0.19455   0.90652   0.00000  Uiso   1.00
C690   C     0.01175   0.14197   0.59303   0.00000  Uiso   1.00
C691   C     0.24387   0.16096   0.90889   0.00000  Uiso   1.00
C692   C     0.09028   0.17025   0.59146   0.00000  Uiso   1.00
C693   C     0.22412   0.17220   0.95386   0.00000  Uiso   1.00
C694   C     0.10943   0.15897   0.54644   0.00000  Uiso   1.00
C695   C     0.25584   0.18884   0.97736   0.00000  Uiso   1.00
C696   C     0.07710   0.14366   0.52293   0.00000  Uiso   1.00
C697   C     0.17401   0.16569   0.97626   0.00000  Uiso   1.00
C698   C     0.15950   0.16489   0.52389   0.00000  Uiso   1.00
Cu699  Cu    0.04689   0.16667   0.75000   0.00000  Uiso   1.00
Cu700  Cu    0.28645   0.16666   0.75000   0.00000  Uiso   1.00
H701   H     0.11228   0.18727   0.60852   0.00000  Uiso   1.00
H702   H     0.22309   0.14220   0.89211   0.00000  Uiso   1.00
H703   H     0.30790   0.13392   0.61094   0.00000  Uiso   1.00
H704   H     0.02258   0.20531   0.88809   0.00000  Uiso   1.00
H705   H     0.32791   0.21690   0.96794   0.00000  Uiso   1.00
H706   H     0.00232   0.12269   0.53090   0.00000  Uiso   1.00
H707   H     0.29707   0.29307   0.69956   0.00000  Uiso   1.00
H708   H     0.03629   0.04028   0.80037   0.00000  Uiso   1.00
H709   H     0.10739   0.11851   0.79854   0.00000  Uiso   1.00
H710   H     0.22606   0.21452   0.70110   0.00000  Uiso   1.00
N711   N     0.11736   0.16668   0.74999   0.00000  Uiso   1.00
N712   N     0.21597   0.16666   0.75001   0.00000  Uiso   1.00
O713   O     0.03958   0.10655   0.75000   0.00000  Uiso   1.00
O714   O     0.29375   0.22678   0.75000   0.00000  Uiso   1.00
O715   O     0.29372   0.10654   0.75000   0.00000  Uiso   1.00
O716   O     0.03961   0.22679   0.75000   0.00000  Uiso   1.00
O717   O     0.01852   0.16668   0.81492   0.00000  Uiso   1.00
O718   O     0.31481   0.16666   0.68508   0.00000  Uiso   1.00
O719   O     0.27267   0.16667   0.81492   0.00000  Uiso   1.00
O720   O     0.06067   0.16667   0.68508   0.00000  Uiso   1.00
C721   C     0.27126   0.20868   0.55107   0.00000  Uiso   1.00
H722   H     0.31041   0.20679   0.53978   0.00000  Uiso   1.00
O723   O     0.25305   0.22726   0.58562   0.00000  Uiso   1.00
C724   C     0.06080   0.12302   0.95048   0.00000  Uiso   1.00
H725   H     0.05112   0.13984   0.92397   0.00000  Uiso   1.00
O726   O     0.04525   0.08773   0.95935   0.00000  Uiso   1.00
C727   C     0.19124   0.15001   0.59166   0.00000  Uiso   1.00
H728   H     0.21167   0.16093   0.61396   0.00000  Uiso   1.00
O729   O     0.16671   0.11851   0.60266   0.00000  Uiso   1.00
C730   C     0.14547   0.17963   0.90722   0.00000  Uiso   1.00
H731   H     0.16916   0.20661   0.89799   0.00000  Uiso   1.00
O732   O     0.12657   0.16610   0.87952   0.00000  Uiso   1.00
C733   C     0.29345   0.04139   0.68463   0.00000  Uiso   1.00
H734   H     0.30061   0.07395   0.67653   0.00000  Uiso   1.00
O735   O     0.26977   0.02214   0.66418   0.00000  Uiso   1.00
C736   C     0.04001   0.29198   0.81524   0.00000  Uiso   1.00
H737   H     0.03303   0.25940   0.82322   0.00000  Uiso   1.00
O738   O     0.06355   0.31128   0.83579   0.00000  Uiso   1.00
Cl739  Cl    0.19875   0.10330   0.81261   0.00000  Uiso   1.00
Cl740  Cl    0.13498   0.22915   0.68632   0.00000  Uiso   1.00
C741   C     0.33349   0.08752   0.74879   0.00000  Uiso   1.00
C742   C     0.66652   0.24582   0.75118   0.00000  Uiso   1.00
C743   C     0.52869   0.17103   0.54740   0.00000  Uiso   1.00
C744   C     0.47151   0.15988   0.95259   0.00000  Uiso   1.00
C745   C     0.57349   0.19020   0.52482   0.00000  Uiso   1.00
C746   C     0.42602   0.14183   0.97557   0.00000  Uiso   1.00
C747   C     0.64591   0.02062   0.71921   0.00000  Uiso   1.00
C748   C     0.35414   0.31274   0.78071   0.00000  Uiso   1.00
C749   C     0.64563   0.31095   0.72189   0.00000  Uiso   1.00
C750   C     0.35440   0.02240   0.77804   0.00000  Uiso   1.00
C751   C     0.66652   0.29047   0.75181   0.00000  Uiso   1.00
C752   C     0.33351   0.04288   0.74813   0.00000  Uiso   1.00
C753   C     0.51576   0.13964   0.77700   0.00000  Uiso   1.00
C754   C     0.48435   0.19344   0.72269   0.00000  Uiso   1.00
C755   C     0.46642   0.13989   0.77695   0.00000  Uiso   1.00
C756   C     0.53365   0.19327   0.72284   0.00000  Uiso   1.00
C757   C     0.63926   0.16775   0.83601   0.00000  Uiso   1.00
C758   C     0.36072   0.16573   0.66399   0.00000  Uiso   1.00
C759   C     0.62393   0.17327   0.88477   0.00000  Uiso   1.00
C760   C     0.37595   0.16032   0.61524   0.00000  Uiso   1.00
C761   C     0.63648   0.20162   0.95253   0.00000  Uiso   1.00
C762   C     0.36179   0.13440   0.54717   0.00000  Uiso   1.00
C763   C     0.65322   0.19455   0.90652   0.00000  Uiso   1.00
C764   C     0.34508   0.14197   0.59303   0.00000  Uiso   1.00
C765   C     0.57720   0.16096   0.90889   0.00000  Uiso   1.00
C766   C     0.42362   0.17025   0.59146   0.00000  Uiso   1.00
C767   C     0.55746   0.17220   0.95386   0.00000  Uiso   1.00
C768   C     0.44277   0.15897   0.54644   0.00000  Uiso   1.00
C769   C     0.58918   0.18884   0.97736   0.00000  Uiso   1.00
C770   C     0.41043   0.14366   0.52293   0.00000  Uiso   1.00
C771   C     0.50734   0.16569   0.97626   0.00000  Uiso   1.00
C772   C     0.49283   0.16489   0.52389   0.00000  Uiso   1.00
Cu773  Cu    0.38022   0.16667   0.75000   0.00000  Uiso   1.00
Cu774  Cu    0.61978   0.16666   0.75000   0.00000  Uiso   1.00
H775   H     0.44561   0.18727   0.60852   0.00000  Uiso   1.00
H776   H     0.55642   0.14220   0.89211   0.00000  Uiso   1.00
H777   H     0.64123   0.13392   0.61094   0.00000  Uiso   1.00
H778   H     0.35591   0.20531   0.88809   0.00000  Uiso   1.00
H779   H     0.66125   0.21690   0.96794   0.00000  Uiso   1.00
H780   H     0.33566   0.12269   0.53090   0.00000  Uiso   1.00
H781   H     0.63041   0.29307   0.69956   0.00000  Uiso   1.00
H782   H     0.36962   0.04028   0.80037   0.00000  Uiso   1.00
H783   H     0.44072   0.11851   0.79854   0.00000  Uiso   1.00
H784   H     0.55940   0.21452   0.70110   0.00000  Uiso   1.00
N785   N     0.45069   0.16668   0.74999   0.00000  Uiso   1.00
N786   N     0.54931   0.16666   0.75001   0.00000  Uiso   1.00
O787   O     0.37291   0.10655   0.75000   0.00000  Uiso   1.00
O788   O     0.62709   0.22678   0.75000   0.00000  Uiso   1.00
O789   O     0.62706   0.10654   0.75000   0.00000  Uiso   1.00
O790   O     0.37294   0.22679   0.75000   0.00000  Uiso   1.00
O791   O     0.35186   0.16668   0.81492   0.00000  Uiso   1.00
O792   O     0.64814   0.16666   0.68508   0.00000  Uiso   1.00
O793   O     0.60600   0.16667   0.81492   0.00000  Uiso   1.00
O794   O     0.39400   0.16667   0.68508   0.00000  Uiso   1.00
C795   C     0.60460   0.20868   0.55107   0.00000  Uiso   1.00
H796   H     0.64375   0.20679   0.53978   0.00000  Uiso   1.00
O797   O     0.58638   0.22726   0.58562   0.00000  Uiso   1.00
C798   C     0.39413   0.12302   0.95048   0.00000  Uiso   1.00
H799   H     0.38445   0.13984   0.92397   0.00000  Uiso   1.00
O800   O     0.37858   0.08773   0.95935   0.00000  Uiso   1.00
C801   C     0.52457   0.15001   0.59166   0.00000  Uiso   1.00
H802   H     0.54501   0.16093   0.61396   0.00000  Uiso   1.00
O803   O     0.50004   0.11851   0.60266   0.00000  Uiso   1.00
C804   C     0.47881   0.17963   0.90722   0.00000  Uiso   1.00
H805   H     0.50250   0.20661   0.89799   0.00000  Uiso   1.00
O806   O     0.45991   0.16610   0.87952   0.00000  Uiso   1.00
C807   C     0.62678   0.04139   0.68463   0.00000  Uiso   1.00
H808   H     0.63395   0.07395   0.67653   0.00000  Uiso   1.00
O809   O     0.60310   0.02214   0.66418   0.00000  Uiso   1.00
C810   C     0.37334   0.29198   0.81524   0.00000  Uiso   1.00
H811   H     0.36636   0.25940   0.82322   0.00000  Uiso   1.00
O812   O     0.39688   0.31128   0.83579   0.00000  Uiso   1.00
Cl813  Cl    0.53208   0.10330   0.81261   0.00000  Uiso   1.00
Cl814  Cl    0.46832   0.22915   0.68632   0.00000  Uiso   1.00
C815   C     0.66682   0.08752   0.74879   0.00000  Uiso   1.00
C816   C     0.99985   0.24582   0.75118   0.00000  Uiso   1.00
C817   C     0.86202   0.17103   0.54740   0.00000  Uiso   1.00
C818   C     0.80484   0.15988   0.95259   0.00000  Uiso   1.00
C819   C     0.90682   0.19020   0.52482   0.00000  Uiso   1.00
C820   C     0.75935   0.14183   0.97557   0.00000  Uiso   1.00
C821   C     0.97925   0.02062   0.71921   0.00000  Uiso   1.00
C822   C     0.68747   0.31274   0.78071   0.00000  Uiso   1.00
C823   C     0.97896   0.31095   0.72189   0.00000  Uiso   1.00
C824   C     0.68773   0.02240   0.77804   0.00000  Uiso   1.00
C825   C     0.99985   0.29047   0.75181   0.00000  Uiso   1.00
C826   C     0.66684   0.04288   0.74813   0.00000  Uiso   1.00
C827   C     0.84909   0.13964   0.77700   0.00000  Uiso   1.00
C828   C     0.81768   0.19344   0.72269   0.00000  Uiso   1.00
C829   C     0.79975   0.13989   0.77695   0.00000  Uiso   1.00
C830   C     0.86698   0.19327   0.72284   0.00000  Uiso   1.00
C831   C     0.97260   0.16775   0.83601   0.00000  Uiso   1.00
C832   C     0.69405   0.16573   0.66399   0.00000  Uiso   1.00
C833   C     0.95726   0.17327   0.88477   0.00000  Uiso   1.00
C834   C     0.70929   0.16032   0.61524   0.00000  Uiso   1.00
C835   C     0.96981   0.20162   0.95253   0.00000  Uiso   1.00
C836   C     0.69512   0.13440   0.54717   0.00000  Uiso   1.00
C837   C     0.98655   0.19455   0.90652   0.00000  Uiso   1.00
C838   C     0.67841   0.14197   0.59303   0.00000  Uiso   1.00
C839   C     0.91053   0.16096   0.90889   0.00000  Uiso   1.00
C840   C     0.75695   0.17025   0.59146   0.00000  Uiso   1.00
C841   C     0.89079   0.17220   0.95386   0.00000  Uiso   1.00
C842   C     0.77610   0.15897   0.54644   0.00000  Uiso   1.00
C843   C     0.92251   0.18884   0.97736   0.00000  Uiso   1.00
C844   C     0.74377   0.14366   0.52293   0.00000  Uiso   1.00
C845   C     0.84068   0.16569   0.97626   0.00000  Uiso   1.00
C846   C     0.82616   0.16489   0.52389   0.00000  Uiso   1.00
Cu847  Cu    0.71355   0.16667   0.75000   0.00000  Uiso   1.00
Cu848  Cu    0.95311   0.16666   0.75000   0.00000  Uiso   1.00
H849   H     0.77895   0.18727   0.60852   0.00000  Uiso   1.00
H850   H     0.88975   0.14220   0.89211   0.00000  Uiso   1.00
H851   H     0.97456   0.13392   0.61094   0.00000  Uiso   1.00
H852   H     0.68924   0.20531   0.88809   0.00000  Uiso   1.00
H853   H     0.99458   0.21690   0.96794   0.00000  Uiso   1.00
H854   H     0.66899   0.12269   0.53090   0.00000  Uiso   1.00
H855   H     0.96374   0.29307   0.69956   0.00000  Uiso   1.00
H856   H     0.70295   0.04028   0.80037   0.00000  Uiso   1.00
H857   H     0.77405   0.11851   0.79854   0.00000  Uiso   1.00
H858   H     0.89273   0.21452   0.70110   0.00000  Uiso   1.00
N859   N     0.78403   0.16668   0.74999   0.00000  Uiso   1.00
N860   N     0.88264   0.16666   0.75001   0.00000  Uiso   1.00
O861   O     0.70625   0.10655   0.75000   0.00000  Uiso   1.00
O862   O     0.96042   0.22678   0.75000   0.00000  Uiso   1.00
O863   O     0.96039   0.10654   0.75000   0.00000  Uiso   1.00
O864   O     0.70628   0.22679   0.75000   0.00000  Uiso   1.00
O865   O     0.68519   0.16668   0.81492   0.00000  Uiso   1.00
O866   O     0.98148   0.16666   0.68508   0.00000  Uiso   1.00
O867   O     0.93933   0.16667   0.81492   0.00000  Uiso   1.00
O868   O     0.72733   0.16667   0.68508   0.00000  Uiso   1.00
C869   C     0.93793   0.20868   0.55107   0.00000  Uiso   1.00
H870   H     0.97708   0.20679   0.53978   0.00000  Uiso   1.00
O871   O     0.91971   0.22726   0.58562   0.00000  Uiso   1.00
C872   C     0.72746   0.12302   0.95048   0.00000  Uiso   1.00
H873   H     0.71778   0.13984   0.92397   0.00000  Uiso   1.00
O874   O     0.71192   0.08773   0.95935   0.00000  Uiso   1.00
C875   C     0.85791   0.15001   0.59166   0.00000  Uiso   1.00
H876   H     0.87834   0.16093   0.61396   0.00000  Uiso   1.00
O877   O     0.83338   0.11851   0.60266   0.00000  Uiso   1.00
C878   C     0.81214   0.17963   0.90722   0.00000  Uiso   1.00
H879   H     0.83583   0.20661   0.89799   0.00000  Uiso   1.00
O880   O     0.79324   0.16610   0.87952   0.00000  Uiso   1.00
C881   C     0.96011   0.04139   0.68463   0.00000  Uiso   1.00
H882   H     0.96728   0.07395   0.67653   0.00000  Uiso   1.00
O883   O     0.93644   0.02214   0.66418   0.00000  Uiso   1.00
C884   C     0.70668   0.29198   0.81524   0.00000  Uiso   1.00
H885   H     0.69970   0.25940   0.82322   0.00000  Uiso   1.00
O886   O     0.73022   0.31128   0.83579   0.00000  Uiso   1.00
Cl887  Cl    0.86542   0.10330   0.81261   0.00000  Uiso   1.00
Cl888  Cl    0.80165   0.22915   0.68632   0.00000  Uiso   1.00
C889   C     0.00016   0.42085   0.74879   0.00000  Uiso   1.00
C890   C     0.33319   0.57915   0.75118   0.00000  Uiso   1.00
C891   C     0.19535   0.50437   0.54740   0.00000  Uiso   1.00
C892   C     0.13817   0.49321   0.95259   0.00000  Uiso   1.00
C893   C     0.24016   0.52353   0.52482   0.00000  Uiso   1.00
C894   C     0.09268   0.47516   0.97557   0.00000  Uiso   1.00
C895   C     0.31258   0.35395   0.71921   0.00000  Uiso   1.00
C896   C     0.02081   0.64607   0.78071   0.00000  Uiso   1.00
C897   C     0.31229   0.64428   0.72189   0.00000  Uiso   1.00
C898   C     0.02107   0.35574   0.77804   0.00000  Uiso   1.00
C899   C     0.33319   0.62380   0.75181   0.00000  Uiso   1.00
C900   C     0.00017   0.37621   0.74813   0.00000  Uiso   1.00
C901   C     0.18242   0.47297   0.77700   0.00000  Uiso   1.00
C902   C     0.15102   0.52677   0.72269   0.00000  Uiso   1.00
C903   C     0.13309   0.47322   0.77695   0.00000  Uiso   1.00
C904   C     0.20031   0.52660   0.72284   0.00000  Uiso   1.00
C905   C     0.30593   0.50108   0.83601   0.00000  Uiso   1.00
C906   C     0.02739   0.49907   0.66399   0.00000  Uiso   1.00
C907   C     0.29060   0.50661   0.88477   0.00000  Uiso   1.00
C908   C     0.04262   0.49365   0.61524   0.00000  Uiso   1.00
C909   C     0.30315   0.53496   0.95253   0.00000  Uiso   1.00
C910   C     0.02845   0.46773   0.54717   0.00000  Uiso   1.00
C911   C     0.31988   0.52788   0.90652   0.00000  Uiso   1.00
C912   C     0.01175   0.47531   0.59303   0.00000  Uiso   1.00
C913   C     0.24387   0.49429   0.90889   0.00000  Uiso   1.00
C914   C     0.09028   0.50358   0.59146   0.00000  Uiso   1.00
C915   C     0.22412   0.50553   0.95386   0.00000  Uiso   1.00
C916   C     0.10943   0.49230   0.54644   0.00000  Uiso   1.00
C917   C     0.25584   0.52217   0.97736   0.00000  Uiso   1.00
C918   C     0.07710   0.47699   0.52293   0.00000  Uiso   1.00
C919   C     0.17401   0.49903   0.97626   0.00000  Uiso   1.00
C920   C     0.15950   0.49822   0.52389   0.00000  Uiso   1.00
Cu921  Cu    0.04689   0.50001   0.75000   0.00000  Uiso   1.00
Cu922  Cu    0.28645   0.49999   0.75000   0.00000  Uiso   1.00
H923   H     0.11228   0.52060   0.60852   0.00000  Uiso   1.00
H924   H     0.22309   0.47553   0.89211   0.00000  Uiso   1.00
H925   H     0.30790   0.46726   0.61094   0.00000  Uiso   1.00
H926   H     0.02258   0.53865   0.88809   0.00000  Uiso   1.00
H927   H     0.32791   0.55023   0.96794   0.00000  Uiso   1.00
H928   H     0.00232   0.45602   0.53090   0.00000  Uiso   1.00
H929   H     0.29707   0.62641   0.69956   0.00000  Uiso   1.00
H930   H     0.03629   0.37361   0.80037   0.00000  Uiso   1.00
H931   H     0.10739   0.45184   0.79854   0.00000  Uiso   1.00
H932   H     0.22606   0.54785   0.70110   0.00000  Uiso   1.00
N933   N     0.11736   0.50001   0.74999   0.00000  Uiso   1.00
N934   N     0.21597   0.49999   0.75001   0.00000  Uiso   1.00
O935   O     0.03958   0.43989   0.75000   0.00000  Uiso   1.00
O936   O     0.29375   0.56011   0.75000   0.00000  Uiso   1.00
O937   O     0.29372   0.43988   0.75000   0.00000  Uiso   1.00
O938   O     0.03961   0.56012   0.75000   0.00000  Uiso   1.00
O939   O     0.01852   0.50001   0.81492   0.00000  Uiso   1.00
O940   O     0.31481   0.49999   0.68508   0.00000  Uiso   1.00
O941   O     0.27267   0.50000   0.81492   0.00000  Uiso   1.00
O942   O     0.06067   0.50000   0.68508   0.00000  Uiso   1.00
C943   C     0.27126   0.54201   0.55107   0.00000  Uiso   1.00
H944   H     0.31041   0.54012   0.53978   0.00000  Uiso   1.00
O945   O     0.25305   0.56059   0.58562   0.00000  Uiso   1.00
C946   C     0.06080   0.45635   0.95048   0.00000  Uiso   1.00
H947   H     0.05112   0.47317   0.92397   0.00000  Uiso   1.00
O948   O     0.04525   0.42107   0.95935   0.00000  Uiso   1.00
C949   C     0.19124   0.48335   0.59166   0.00000  Uiso   1.00
H950   H     0.21167   0.49427   0.61396   0.00000  Uiso   1.00
O951   O     0.16671   0.45185   0.60266   0.00000  Uiso   1.00
C952   C     0.14547   0.51296   0.90722   0.00000  Uiso   1.00
H953   H     0.16916   0.53995   0.89799   0.00000  Uiso   1.00
O954   O     0.12657   0.49944   0.87952   0.00000  Uiso   1.00
C955   C     0.29345   0.37473   0.68463   0.00000  Uiso   1.00
H956   H     0.30061   0.40728   0.67653   0.00000  Uiso   1.00
O957   O     0.26977   0.35548   0.66418   0.00000  Uiso   1.00
C958   C     0.04001   0.62532   0.81524   0.00000  Uiso   1.00
H959   H     0.03303   0.59274   0.82322   0.00000  Uiso   1.00
O960   O     0.06355   0.64461   0.83579   0.00000  Uiso   1.00
Cl961  Cl    0.19875   0.43663   0.81261   0.00000  Uiso   1.00
Cl962  Cl    0.13498   0.56249   0.68632   0.00000  Uiso   1.00
C963   C     0.33349   0.42085   0.74879   0.00000  Uiso   1.00
C964   C     0.66652   0.57915   0.75118   0.00000  Uiso   1.00
C965   C     0.52869   0.50437   0.54740   0.00000  Uiso   1.00
C966   C     0.47151   0.49321   0.95259   0.00000  Uiso   1.00
C967   C     0.57349   0.52353   0.52482   0.00000  Uiso   1.00
C968   C     0.42602   0.47516   0.97557   0.00000  Uiso   1.00
C969   C     0.64591   0.35395   0.71921   0.00000  Uiso   1.00
C970   C     0.35414   0.64607   0.78071   0.00000  Uiso   1.00
C971   C     0.64563   0.64428   0.72189   0.00000  Uiso   1.00
C972   C     0.35440   0.35574   0.77804   0.00000  Uiso   1.00
C973   C     0.66652   0.62380   0.75181   0.00000  Uiso   1.00
C974   C     0.33351   0.37621   0.74813   0.00000  Uiso   1.00
C975   C     0.51576   0.47297   0.77700   0.00000  Uiso   1.00
C976   C     0.48435   0.52677   0.72269   0.00000  Uiso   1.00
C977   C     0.46642   0.47322   0.77695   0.00000  Uiso   1.00
C978   C     0.53365   0.52660   0.72284   0.00000  Uiso   1.00
C979   C     0.63926   0.50108   0.83601   0.00000  Uiso   1.00
C980   C     0.36072   0.49907   0.66399   0.00000  Uiso   1.00
C981   C     0.62393   0.50661   0.88477   0.00000  Uiso   1.00
C982   C     0.37595   0.49365   0.61524   0.00000  Uiso   1.00
C983   C     0.63648   0.53496   0.95253   0.00000  Uiso   1.00
C984   C     0.36179   0.46773   0.54717   0.00000  Uiso   1.00
C985   C     0.65322   0.52788   0.90652   0.00000  Uiso   1.00
C986   C     0.34508   0.47531   0.59303   0.00000  Uiso   1.00
C987   C     0.57720   0.49429   0.90889   0.00000  Uiso   1.00
C988   C     0.42362   0.50358   0.59146   0.00000  Uiso   1.00
C989   C     0.55746   0.50553   0.95386   0.00000  Uiso   1.00
C990   C     0.44277   0.49230   0.54644   0.00000  Uiso   1.00
C991   C     0.58918   0.52217   0.97736   0.00000  Uiso   1.00
C992   C     0.41043   0.47699   0.52293   0.00000  Uiso   1.00
C993   C     0.50734   0.49903   0.97626   0.00000  Uiso   1.00
C994   C     0.49283   0.49822   0.52389   0.00000  Uiso   1.00
Cu995  Cu    0.38022   0.50001   0.75000   0.00000  Uiso   1.00
Cu996  Cu    0.61978   0.49999   0.75000   0.00000  Uiso   1.00
H997   H     0.44561   0.52060   0.60852   0.00000  Uiso   1.00
H998   H     0.55642   0.47553   0.89211   0.00000  Uiso   1.00
H999   H     0.64123   0.46726   0.61094   0.00000  Uiso   1.00
H1000  H     0.35591   0.53865   0.88809   0.00000  Uiso   1.00
H1001  H     0.66125   0.55023   0.96794   0.00000  Uiso   1.00
H1002  H     0.33566   0.45602   0.53090   0.00000  Uiso   1.00
H1003  H     0.63041   0.62641   0.69956   0.00000  Uiso   1.00
H1004  H     0.36962   0.37361   0.80037   0.00000  Uiso   1.00
H1005  H     0.44072   0.45184   0.79854   0.00000  Uiso   1.00
H1006  H     0.55940   0.54785   0.70110   0.00000  Uiso   1.00
N1007  N     0.45069   0.50001   0.74999   0.00000  Uiso   1.00
N1008  N     0.54931   0.49999   0.75001   0.00000  Uiso   1.00
O1009  O     0.37291   0.43989   0.75000   0.00000  Uiso   1.00
O1010  O     0.62709   0.56011   0.75000   0.00000  Uiso   1.00
O1011  O     0.62706   0.43988   0.75000   0.00000  Uiso   1.00
O1012  O     0.37294   0.56012   0.75000   0.00000  Uiso   1.00
O1013  O     0.35186   0.50001   0.81492   0.00000  Uiso   1.00
O1014  O     0.64814   0.49999   0.68508   0.00000  Uiso   1.00
O1015  O     0.60600   0.50000   0.81492   0.00000  Uiso   1.00
O1016  O     0.39400   0.50000   0.68508   0.00000  Uiso   1.00
C1017  C     0.60460   0.54201   0.55107   0.00000  Uiso   1.00
H1018  H     0.64375   0.54012   0.53978   0.00000  Uiso   1.00
O1019  O     0.58638   0.56059   0.58562   0.00000  Uiso   1.00
C1020  C     0.39413   0.45635   0.95048   0.00000  Uiso   1.00
H1021  H     0.38445   0.47317   0.92397   0.00000  Uiso   1.00
O1022  O     0.37858   0.42107   0.95935   0.00000  Uiso   1.00
C1023  C     0.52457   0.48335   0.59166   0.00000  Uiso   1.00
H1024  H     0.54501   0.49427   0.61396   0.00000  Uiso   1.00
O1025  O     0.50004   0.45185   0.60266   0.00000  Uiso   1.00
C1026  C     0.47881   0.51296   0.90722   0.00000  Uiso   1.00
H1027  H     0.50250   0.53995   0.89799   0.00000  Uiso   1.00
O1028  O     0.45991   0.49944   0.87952   0.00000  Uiso   1.00
C1029  C     0.62678   0.37473   0.68463   0.00000  Uiso   1.00
H1030  H     0.63395   0.40728   0.67653   0.00000  Uiso   1.00
O1031  O     0.60310   0.35548   0.66418   0.00000  Uiso   1.00
C1032  C     0.37334   0.62532   0.81524   0.00000  Uiso   1.00
H1033  H     0.36636   0.59274   0.82322   0.00000  Uiso   1.00
O1034  O     0.39688   0.64461   0.83579   0.00000  Uiso   1.00
Cl1035 Cl    0.53208   0.43663   0.81261   0.00000  Uiso   1.00
Cl1036 Cl    0.46832   0.56249   0.68632   0.00000  Uiso   1.00
C1037  C     0.66682   0.42085   0.74879   0.00000  Uiso   1.00
C1038  C     0.99985   0.57915   0.75118   0.00000  Uiso   1.00
C1039  C     0.86202   0.50437   0.54740   0.00000  Uiso   1.00
C1040  C     0.80484   0.49321   0.95259   0.00000  Uiso   1.00
C1041  C     0.90682   0.52353   0.52482   0.00000  Uiso   1.00
C1042  C     0.75935   0.47516   0.97557   0.00000  Uiso   1.00
C1043  C     0.97925   0.35395   0.71921   0.00000  Uiso   1.00
C1044  C     0.68747   0.64607   0.78071   0.00000  Uiso   1.00
C1045  C     0.97896   0.64428   0.72189   0.00000  Uiso   1.00
C1046  C     0.68773   0.35574   0.77804   0.00000  Uiso   1.00
C1047  C     0.99985   0.62380   0.75181   0.00000  Uiso   1.00
C1048  C     0.66684   0.37621   0.74813   0.00000  Uiso   1.00
C1049  C     0.84909   0.47297   0.77700   0.00000  Uiso   1.00
C1050  C     0.81768   0.52677   0.72269   0.00000  Uiso   1.00
C1051  C     0.79975   0.47322   0.77695   0.00000  Uiso   1.00
C1052  C     0.86698   0.52660   0.72284   0.00000  Uiso   1.00
C1053  C     0.97260   0.50108   0.83601   0.00000  Uiso   1.00
C1054  C     0.69405   0.49907   0.66399   0.00000  Uiso   1.00
C1055  C     0.95726   0.50661   0.88477   0.00000  Uiso   1.00
C1056  C     0.70929   0.49365   0.61524   0.00000  Uiso   1.00
C1057  C     0.96981   0.53496   0.95253   0.00000  Uiso   1.00
C1058  C     0.69512   0.46773   0.54717   0.00000  Uiso   1.00
C1059  C     0.98655   0.52788   0.90652   0.00000  Uiso   1.00
C1060  C     0.67841   0.47531   0.59303   0.00000  Uiso   1.00
C1061  C     0.91053   0.49429   0.90889   0.00000  Uiso   1.00
C1062  C     0.75695   0.50358   0.59146   0.00000  Uiso   1.00
C1063  C     0.89079   0.50553   0.95386   0.00000  Uiso   1.00
C1064  C     0.77610   0.49230   0.54644   0.00000  Uiso   1.00
C1065  C     0.92251   0.52217   0.97736   0.00000  Uiso   1.00
C1066  C     0.74377   0.47699   0.52293   0.00000  Uiso   1.00
C1067  C     0.84068   0.49903   0.97626   0.00000  Uiso   1.00
C1068  C     0.82616   0.49822   0.52389   0.00000  Uiso   1.00
Cu1069 Cu    0.71355   0.50001   0.75000   0.00000  Uiso   1.00
Cu1070 Cu    0.95311   0.49999   0.75000   0.00000  Uiso   1.00
H1071  H     0.77895   0.52060   0.60852   0.00000  Uiso   1.00
H1072  H     0.88975   0.47553   0.89211   0.00000  Uiso   1.00
H1073  H     0.97456   0.46726   0.61094   0.00000  Uiso   1.00
H1074  H     0.68924   0.53865   0.88809   0.00000  Uiso   1.00
H1075  H     0.99458   0.55023   0.96794   0.00000  Uiso   1.00
H1076  H     0.66899   0.45602   0.53090   0.00000  Uiso   1.00
H1077  H     0.96374   0.62641   0.69956   0.00000  Uiso   1.00
H1078  H     0.70295   0.37361   0.80037   0.00000  Uiso   1.00
H1079  H     0.77405   0.45184   0.79854   0.00000  Uiso   1.00
H1080  H     0.89273   0.54785   0.70110   0.00000  Uiso   1.00
N1081  N     0.78403   0.50001   0.74999   0.00000  Uiso   1.00
N1082  N     0.88264   0.49999   0.75001   0.00000  Uiso   1.00
O1083  O     0.70625   0.43989   0.75000   0.00000  Uiso   1.00
O1084  O     0.96042   0.56011   0.75000   0.00000  Uiso   1.00
O1085  O     0.96039   0.43988   0.75000   0.00000  Uiso   1.00
O1086  O     0.70628   0.56012   0.75000   0.00000  Uiso   1.00
O1087  O     0.68519   0.50001   0.81492   0.00000  Uiso   1.00
O1088  O     0.98148   0.49999   0.68508   0.00000  Uiso   1.00
O1089  O     0.93933   0.50000   0.81492   0.00000  Uiso   1.00
O1090  O     0.72733   0.50000   0.68508   0.00000  Uiso   1.00
C1091  C     0.93793   0.54201   0.55107   0.00000  Uiso   1.00
H1092  H     0.97708   0.54012   0.53978   0.00000  Uiso   1.00
O1093  O     0.91971   0.56059   0.58562   0.00000  Uiso   1.00
C1094  C     0.72746   0.45635   0.95048   0.00000  Uiso   1.00
H1095  H     0.71778   0.47317   0.92397   0.00000  Uiso   1.00
O1096  O     0.71192   0.42107   0.95935   0.00000  Uiso   1.00
C1097  C     0.85791   0.48335   0.59166   0.00000  Uiso   1.00
H1098  H     0.87834   0.49427   0.61396   0.00000  Uiso   1.00
O1099  O     0.83338   0.45185   0.60266   0.00000  Uiso   1.00
C1100  C     0.81214   0.51296   0.90722   0.00000  Uiso   1.00
H1101  H     0.83583   0.53995   0.89799   0.00000  Uiso   1.00
O1102  O     0.79324   0.49944   0.87952   0.00000  Uiso   1.00
C1103  C     0.96011   0.37473   0.68463   0.00000  Uiso   1.00
H1104  H     0.96728   0.40728   0.67653   0.00000  Uiso   1.00
O1105  O     0.93644   0.35548   0.66418   0.00000  Uiso   1.00
C1106  C     0.70668   0.62532   0.81524   0.00000  Uiso   1.00
H1107  H     0.69970   0.59274   0.82322   0.00000  Uiso   1.00
O1108  O     0.73022   0.64461   0.83579   0.00000  Uiso   1.00
Cl1109 Cl    0.86542   0.43663   0.81261   0.00000  Uiso   1.00
Cl1110 Cl    0.80165   0.56249   0.68632   0.00000  Uiso   1.00
C1111  C     0.00016   0.75419   0.74879   0.00000  Uiso   1.00
C1112  C     0.33319   0.91249   0.75118   0.00000  Uiso   1.00
C1113  C     0.19535   0.83770   0.54740   0.00000  Uiso   1.00
C1114  C     0.13817   0.82655   0.95259   0.00000  Uiso   1.00
C1115  C     0.24016   0.85687   0.52482   0.00000  Uiso   1.00
C1116  C     0.09268   0.80850   0.97557   0.00000  Uiso   1.00
C1117  C     0.31258   0.68728   0.71921   0.00000  Uiso   1.00
C1118  C     0.02081   0.97941   0.78071   0.00000  Uiso   1.00
C1119  C     0.31229   0.97762   0.72189   0.00000  Uiso   1.00
C1120  C     0.02107   0.68907   0.77804   0.00000  Uiso   1.00
C1121  C     0.33319   0.95714   0.75181   0.00000  Uiso   1.00
C1122  C     0.00017   0.70955   0.74813   0.00000  Uiso   1.00
C1123  C     0.18242   0.80630   0.77700   0.00000  Uiso   1.00
C1124  C     0.15102   0.86010   0.72269   0.00000  Uiso   1.00
C1125  C     0.13309   0.80656   0.77695   0.00000  Uiso   1.00
C1126  C     0.20031   0.85994   0.72284   0.00000  Uiso   1.00
C1127  C     0.30593   0.83441   0.83601   0.00000  Uiso   1.00
C1128  C     0.02739   0.83240   0.66399   0.00000  Uiso   1.00
C1129  C     0.29060   0.83994   0.88477   0.00000  Uiso   1.00
C1130  C     0.04262   0.82698   0.61524   0.00000  Uiso   1.00
C1131  C     0.30315   0.86829   0.95253   0.00000  Uiso   1.00
C1132  C     0.02845   0.80107   0.54717   0.00000  Uiso   1.00
C1133  C     0.31988   0.86121   0.90652   0.00000  Uiso   1.00
C1134  C     0.01175   0.80864   0.59303   0.00000  Uiso   1.00
C1135  C     0.24387   0.82762   0.90889   0.00000  Uiso   1.00
C1136  C     0.09028   0.83692   0.59146   0.00000  Uiso   1.00
C1137  C     0.22412   0.83887   0.95386   0.00000  Uiso   1.00
C1138  C     0.10943   0.82564   0.54644   0.00000  Uiso   1.00
C1139  C     0.25584   0.85550   0.97736   0.00000  Uiso   1.00
C1140  C     0.07710   0.81032   0.52293   0.00000  Uiso   1.00
C1141  C     0.17401   0.83236   0.97626   0.00000  Uiso   1.00
C1142  C     0.15950   0.83155   0.52389   0.00000  Uiso   1.00
Cu1143 Cu    0.04689   0.83334   0.75000   0.00000  Uiso   1.00
Cu1144 Cu    0.28645   0.83333   0.75000   0.00000  Uiso   1.00
H1145  H     0.11228   0.85393   0.60852   0.00000  Uiso   1.00
H1146  H     0.22309   0.80886   0.89211   0.00000  Uiso   1.00
H1147  H     0.30790   0.80059   0.61094   0.00000  Uiso   1.00
H1148  H     0.02258   0.87198   0.88809   0.00000  Uiso   1.00
H1149  H     0.32791   0.88356   0.96794   0.00000  Uiso   1.00
H1150  H     0.00232   0.78935   0.53090   0.00000  Uiso   1.00
H1151  H     0.29707   0.95974   0.69956   0.00000  Uiso   1.00
H1152  H     0.03629   0.70695   0.80037   0.00000  Uiso   1.00
H1153  H     0.10739   0.78518   0.79854   0.00000  Uiso   1.00
H1154  H     0.22606   0.88119   0.70110   0.00000  Uiso   1.00
N1155  N     0.11736   0.83334   0.74999   0.00000  Uiso   1.00
N1156  N     0.21597   0.83332   0.75001   0.00000  Uiso   1.00
O1157  O     0.03958   0.77322   0.75000   0.00000  Uiso   1.00
O1158  O     0.29375   0.89345   0.75000   0.00000  Uiso   1.00
O1159  O     0.29372   0.77321   0.75000   0.00000  Uiso   1.00
O1160  O     0.03961   0.89346   0.75000   0.00000  Uiso   1.00
O1161  O     0.01852   0.83334   0.81492   0.00000  Uiso   1.00
O1162  O     0.31481   0.83332   0.68508   0.00000  Uiso   1.00
O1163  O     0.27267   0.83333   0.81492   0.00000  Uiso   1.00
O1164  O     0.06067   0.83333   0.68508   0.00000  Uiso   1.00
C1165  C     0.27126   0.87534   0.55107   0.00000  Uiso   1.00
H1166  H     0.31041   0.87345   0.53978   0.00000  Uiso   1.00
O1167  O     0.25305   0.89393   0.58562   0.00000  Uiso   1.00
C1168  C     0.06080   0.78969   0.95048   0.00000  Uiso   1.00
H1169  H     0.05112   0.80651   0.92397   0.00000  Uiso   1.00
O1170  O     0.04525   0.75440   0.95935   0.00000  Uiso   1.00
C1171  C     0.19124   0.81668   0.59166   0.00000  Uiso   1.00
H1172  H     0.21167   0.82760   0.61396   0.00000  Uiso   1.00
O1173  O     0.16671   0.78518   0.60266   0.00000  Uiso   1.00
C1174  C     0.14547   0.84630   0.90722   0.00000  Uiso   1.00
H1175  H     0.16916   0.87328   0.89799   0.00000  Uiso   1.00
O1176  O     0.12657   0.83277   0.87952   0.00000  Uiso   1.00
C1177  C     0.29345   0.70806   0.68463   0.00000  Uiso   1.00
H1178  H     0.30061   0.74061   0.67653   0.00000  Uiso   1.00
O1179  O     0.26977   0.68881   0.66418   0.00000  Uiso   1.00
C1180  C     0.04001   0.95865   0.81524   0.00000  Uiso   1.00
H1181  H     0.03303   0.92607   0.82322   0.00000  Uiso   1.00
O1182  O     0.06355   0.97795   0.83579   0.00000  Uiso   1.00
Cl1183 Cl    0.19875   0.76996   0.81261   0.00000  Uiso   1.00
Cl1184 Cl    0.13498   0.89582   0.68632   0.00000  Uiso   1.00
C1185  C     0.33349   0.75419   0.74879   0.00000  Uiso   1.00
C1186  C     0.66652   0.91249   0.75118   0.00000  Uiso   1.00
C1187  C     0.52869   0.83770   0.54740   0.00000  Uiso   1.00
C1188  C     0.47151   0.82655   0.95259   0.00000  Uiso   1.00
C1189  C     0.57349   0.85687   0.52482   0.00000  Uiso   1.00
C1190  C     0.42602   0.80850   0.97557   0.00000  Uiso   1.00
C1191  C     0.64591   0.68728   0.71921   0.00000  Uiso   1.00
C1192  C     0.35414   0.97941   0.78071   0.00000  Uiso   1.00
C1193  C     0.64563   0.97762   0.72189   0.00000  Uiso   1.00
C1194  C     0.35440   0.68907   0.77804   0.00000  Uiso   1.00
C1195  C     0.66652   0.95714   0.75181   0.00000  Uiso   1.00
C1196  C     0.33351   0.70955   0.74813   0.00000  Uiso   1.00
C1197  C     0.51576   0.80630   0.77700   0.00000  Uiso   1.00
C1198  C     0.48435   0.86010   0.72269   0.00000  Uiso   1.00
C1199  C     0.46642   0.80656   0.77695   0.00000  Uiso   1.00
C1200  C     0.53365   0.85994   0.72284   0.00000  Uiso   1.00
C1201  C     0.63926   0.83441   0.83601   0.00000  Uiso   1.00
C1202  C     0.36072   0.83240   0.66399   0.00000  Uiso   1.00
C1203  C     0.62393   0.83994   0.88477   0.00000  Uiso   1.00
C1204  C     0.37595   0.82698   0.61524   0.00000  Uiso   1.00
C1205  C     0.63648   0.86829   0.95253   0.00000  Uiso   1.00
C1206  C     0.36179   0.80107   0.54717   0.00000  Uiso   1.00
C1207  C     0.65322   0.86121   0.90652   0.00000  Uiso   1.00
C1208  C     0.34508   0.80864   0.59303   0.00000  Uiso   1.00
C1209  C     0.57720   0.82762   0.90889   0.00000  Uiso   1.00
C1210  C     0.42362   0.83692   0.59146   0.00000  Uiso   1.00
C1211  C     0.55746   0.83887   0.95386   0.00000  Uiso   1.00
C1212  C     0.44277   0.82564   0.54644   0.00000  Uiso   1.00
C1213  C     0.58918   0.85550   0.97736   0.00000  Uiso   1.00
C1214  C     0.41043   0.81032   0.52293   0.00000  Uiso   1.00
C1215  C     0.50734   0.83236   0.97626   0.00000  Uiso   1.00
C1216  C     0.49283   0.83155   0.52389   0.00000  Uiso   1.00
Cu1217 Cu    0.38022   0.83334   0.75000   0.00000  Uiso   1.00
Cu1218 Cu    0.61978   0.83333   0.75000   0.00000  Uiso   1.00
H1219  H     0.44561   0.85393   0.60852   0.00000  Uiso   1.00
H1220  H     0.55642   0.80886   0.89211   0.00000  Uiso   1.00
H1221  H     0.64123   0.80059   0.61094   0.00000  Uiso   1.00
H1222  H     0.35591   0.87198   0.88809   0.00000  Uiso   1.00
H1223  H     0.66125   0.88356   0.96794   0.00000  Uiso   1.00
H1224  H     0.33566   0.78935   0.53090   0.00000  Uiso   1.00
H1225  H     0.63041   0.95974   0.69956   0.00000  Uiso   1.00
H1226  H     0.36962   0.70695   0.80037   0.00000  Uiso   1.00
H1227  H     0.44072   0.78518   0.79854   0.00000  Uiso   1.00
H1228  H     0.55940   0.88119   0.70110   0.00000  Uiso   1.00
N1229  N     0.45069   0.83334   0.74999   0.00000  Uiso   1.00
N1230  N     0.54931   0.83332   0.75001   0.00000  Uiso   1.00
O1231  O     0.37291   0.77322   0.75000   0.00000  Uiso   1.00
O1232  O     0.62709   0.89345   0.75000   0.00000  Uiso   1.00
O1233  O     0.62706   0.77321   0.75000   0.00000  Uiso   1.00
O1234  O     0.37294   0.89346   0.75000   0.00000  Uiso   1.00
O1235  O     0.35186   0.83334   0.81492   0.00000  Uiso   1.00
O1236  O     0.64814   0.83332   0.68508   0.00000  Uiso   1.00
O1237  O     0.60600   0.83333   0.81492   0.00000  Uiso   1.00
O1238  O     0.39400   0.83333   0.68508   0.00000  Uiso   1.00
C1239  C     0.60460   0.87534   0.55107   0.00000  Uiso   1.00
H1240  H     0.64375   0.87345   0.53978   0.00000  Uiso   1.00
O1241  O     0.58638   0.89393   0.58562   0.00000  Uiso   1.00
C1242  C     0.39413   0.78969   0.95048   0.00000  Uiso   1.00
H1243  H     0.38445   0.80651   0.92397   0.00000  Uiso   1.00
O1244  O     0.37858   0.75440   0.95935   0.00000  Uiso   1.00
C1245  C     0.52457   0.81668   0.59166   0.00000  Uiso   1.00
H1246  H     0.54501   0.82760   0.61396   0.00000  Uiso   1.00
O1247  O     0.50004   0.78518   0.60266   0.00000  Uiso   1.00
C1248  C     0.47881   0.84630   0.90722   0.00000  Uiso   1.00
H1249  H     0.50250   0.87328   0.89799   0.00000  Uiso   1.00
O1250  O     0.45991   0.83277   0.87952   0.00000  Uiso   1.00
C1251  C     0.62678   0.70806   0.68463   0.00000  Uiso   1.00
H1252  H     0.63395   0.74061   0.67653   0.00000  Uiso   1.00
O1253  O     0.60310   0.68881   0.66418   0.00000  Uiso   1.00
C1254  C     0.37334   0.95865   0.81524   0.00000  Uiso   1.00
H1255  H     0.36636   0.92607   0.82322   0.00000  Uiso   1.00
O1256  O     0.39688   0.97795   0.83579   0.00000  Uiso   1.00
Cl1257 Cl    0.53208   0.76996   0.81261   0.00000  Uiso   1.00
Cl1258 Cl    0.46832   0.89582   0.68632   0.00000  Uiso   1.00
C1259  C     0.66682   0.75419   0.74879   0.00000  Uiso   1.00
C1260  C     0.99985   0.91249   0.75118   0.00000  Uiso   1.00
C1261  C     0.86202   0.83770   0.54740   0.00000  Uiso   1.00
C1262  C     0.80484   0.82655   0.95259   0.00000  Uiso   1.00
C1263  C     0.90682   0.85687   0.52482   0.00000  Uiso   1.00
C1264  C     0.75935   0.80850   0.97557   0.00000  Uiso   1.00
C1265  C     0.97925   0.68728   0.71921   0.00000  Uiso   1.00
C1266  C     0.68747   0.97941   0.78071   0.00000  Uiso   1.00
C1267  C     0.97896   0.97762   0.72189   0.00000  Uiso   1.00
C1268  C     0.68773   0.68907   0.77804   0.00000  Uiso   1.00
C1269  C     0.99985   0.95714   0.75181   0.00000  Uiso   1.00
C1270  C     0.66684   0.70955   0.74813   0.00000  Uiso   1.00
C1271  C     0.84909   0.80630   0.77700   0.00000  Uiso   1.00
C1272  C     0.81768   0.86010   0.72269   0.00000  Uiso   1.00
C1273  C     0.79975   0.80656   0.77695   0.00000  Uiso   1.00
C1274  C     0.86698   0.85994   0.72284   0.00000  Uiso   1.00
C1275  C     0.97260   0.83441   0.83601   0.00000  Uiso   1.00
C1276  C     0.69405   0.83240   0.66399   0.00000  Uiso   1.00
C1277  C     0.95726   0.83994   0.88477   0.00000  Uiso   1.00
C1278  C     0.70929   0.82698   0.61524   0.00000  Uiso   1.00
C1279  C     0.96981   0.86829   0.95253   0.00000  Uiso   1.00
C1280  C     0.69512   0.80107   0.54717   0.00000  Uiso   1.00
C1281  C     0.98655   0.86121   0.90652   0.00000  Uiso   1.00
C1282  C     0.67841   0.80864   0.59303   0.00000  Uiso   1.00
C1283  C     0.91053   0.82762   0.90889   0.00000  Uiso   1.00
C1284  C     0.75695   0.83692   0.59146   0.00000  Uiso   1.00
C1285  C     0.89079   0.83887   0.95386   0.00000  Uiso   1.00
C1286  C     0.77610   0.82564   0.54644   0.00000  Uiso   1.00
C1287  C     0.92251   0.85550   0.97736   0.00000  Uiso   1.00
C1288  C     0.74377   0.81032   0.52293   0.00000  Uiso   1.00
C1289  C     0.84068   0.83236   0.97626   0.00000  Uiso   1.00
C1290  C     0.82616   0.83155   0.52389   0.00000  Uiso   1.00
Cu1291 Cu    0.71355   0.83334   0.75000   0.00000  Uiso   1.00
Cu1292 Cu    0.95311   0.83333   0.75000   0.00000  Uiso   1.00
H1293  H     0.77895   0.85393   0.60852   0.00000  Uiso   1.00
H1294  H     0.88975   0.80886   0.89211   0.00000  Uiso   1.00
H1295  H     0.97456   0.80059   0.61094   0.00000  Uiso   1.00
H1296  H     0.68924   0.87198   0.88809   0.00000  Uiso   1.00
H1297  H     0.99458   0.88356   0.96794   0.00000  Uiso   1.00
H1298  H     0.66899   0.78935   0.53090   0.00000  Uiso   1.00
H1299  H     0.96374   0.95974   0.69956   0.00000  Uiso   1.00
H1300  H     0.70295   0.70695   0.80037   0.00000  Uiso   1.00
H1301  H     0.77405   0.78518   0.79854   0.00000  Uiso   1.00
H1302  H     0.89273   0.88119   0.70110   0.00000  Uiso   1.00
N1303  N     0.78403   0.83334   0.74999   0.00000  Uiso   1.00
N1304  N     0.88264   0.83332   0.75001   0.00000  Uiso   1.00
O1305  O     0.70625   0.77322   0.75000   0.00000  Uiso   1.00
O1306  O     0.96042   0.89345   0.75000   0.00000  Uiso   1.00
O1307  O     0.96039   0.77321   0.75000   0.00000  Uiso   1.00
O1308  O     0.70628   0.89346   0.75000   0.00000  Uiso   1.00
O1309  O     0.68519   0.83334   0.81492   0.00000  Uiso   1.00
O1310  O     0.98148   0.83332   0.68508   0.00000  Uiso   1.00
O1311  O     0.93933   0.83333   0.81492   0.00000  Uiso   1.00
O1312  O     0.72733   0.83333   0.68508   0.00000  Uiso   1.00
C1313  C     0.93793   0.87534   0.55107   0.00000  Uiso   1.00
H1314  H     0.97708   0.87345   0.53978   0.00000  Uiso   1.00
O1315  O     0.91971   0.89393   0.58562   0.00000  Uiso   1.00
C1316  C     0.72746   0.78969   0.95048   0.00000  Uiso   1.00
H1317  H     0.71778   0.80651   0.92397   0.00000  Uiso   1.00
O1318  O     0.71192   0.75440   0.95935   0.00000  Uiso   1.00
C1319  C     0.85791   0.81668   0.59166   0.00000  Uiso   1.00
H1320  H     0.87834   0.82760   0.61396   0.00000  Uiso   1.00
O1321  O     0.83338   0.78518   0.60266   0.00000  Uiso   1.00
C1322  C     0.81214   0.84630   0.90722   0.00000  Uiso   1.00
H1323  H     0.83583   0.87328   0.89799   0.00000  Uiso   1.00
O1324  O     0.79324   0.83277   0.87952   0.00000  Uiso   1.00
C1325  C     0.96011   0.70806   0.68463   0.00000  Uiso   1.00
H1326  H     0.96728   0.74061   0.67653   0.00000  Uiso   1.00
O1327  O     0.93644   0.68881   0.66418   0.00000  Uiso   1.00
C1328  C     0.70668   0.95865   0.81524   0.00000  Uiso   1.00
H1329  H     0.69970   0.92607   0.82322   0.00000  Uiso   1.00
O1330  O     0.73022   0.97795   0.83579   0.00000  Uiso   1.00
Cl1331 Cl    0.86542   0.76996   0.81261   0.00000  Uiso   1.00
Cl1332 Cl    0.80165   0.89582   0.68632   0.00000  Uiso   1.00
loop_
_geom_bond_atom_site_label_1
_geom_bond_atom_site_label_2
_geom_bond_distance
_geom_bond_site_symmetry_2
_ccdc_geom_bond_type
C1     C12     1.445   .     S
C1     O47     1.292   .     A
C1     O197    1.293   1_455 S
C2     C11     1.445   .     S
C2     O48     1.292   .     A
C2     O124    1.294   .     S
C3     C61     1.496   .     S
C3     C5      1.413   .     A
C3     C32     1.430   .     A
C4     C6      1.416   .     A
C4     C64     1.495   .     S
C4     C31     1.432   .     A
C5     C55     1.490   .     S
C5     C695    1.413   1_554 S
C6     C58     1.486   .     S
C6     C696    1.411   .     S
C7     C67     1.488   .     S
C7     C453    1.393   1_545 S
C7     C86     1.410   .     S
C8     C70     1.488   .     S
C8     C232    1.392   .     S
C8     C159    1.410   1_455 S
C9     C11     1.399   .     A
C9     H41     1.085   .     S
C9     C229    1.393   .     S
C10    H42     1.085   .     S
C10    C12     1.399   .     A
C10    C452    1.392   1_545 S
C11    C82     1.410   .     S
C12    C155    1.410   1_455 S
C13    N46     1.380   .     A
C13    Cl73    1.756   .     S
C13    C15     1.416   .     A
C14    Cl74    1.755   .     S
C14    C16     1.416   .     A
C14    N45     1.380   .     A
C15    N45     1.360   .     A
C15    H43     1.082   .     S
C16    H44     1.082   .     S
C16    N46     1.360   .     A
C17    O53     1.298   .     A
C17    C19     1.464   .     S
C17    O125    1.298   .     S
C18    C20     1.463   .     S
C18    O54     1.298   .     A
C18    O200    1.298   1_455 S
C19    C23     1.396   .     A
C19    C25     1.392   .     A
C20    C24     1.396   .     A
C20    C26     1.392   .     A
C21    C29     1.415   .     A
C21    H39     1.079   .     S
C21    C23     1.394   .     A
C22    H40     1.081   .     S
C22    C24     1.392   .     A
C22    C30     1.415   .     A
C23    H112    1.083   .     S
C24    H185    1.083   1_455 S
C25    C27     1.404   .     A
C25    H36     1.080   .     S
C26    C28     1.403   .     A
C26    H35     1.080   .     S
C27    C29     1.420   .     A
C27    C31     1.423   .     A
C28    C32     1.421   .     A
C28    C30     1.418   .     A
C29    C671    1.413   .     S
C30    C672    1.411   1_554 S
C31    C698    1.416   .     S
C32    C697    1.416   1_554 S
Cu33   N45     2.022   .     S
Cu33   O50     1.959   .     S
Cu33   O47     1.954   .     S
Cu33   O54     1.937   .     S
Cu33   O51     1.947   .     S
Cu33   Cu182   2.690   1_455 S
Cu34   N46     2.022   .     S
Cu34   O48     1.954   .     S
Cu34   O49     1.959   .     S
Cu34   O52     1.947   .     S
Cu34   O53     1.937   .     S
Cu34   Cu107   2.690   .     S
H37    C98     1.083   .     S
H38    C171    1.083   1_455 S
O49    C75     1.293   .     S
O50    C150    1.294   1_455 S
O51    C165    1.298   1_455 S
O52    C92     1.298   .     S
C55    H56     1.082   .     S
C55    O57     1.221   .     D
C58    O60     1.221   .     D
C58    H59     1.080   .     S
C61    O63     1.221   .     D
C61    H62     1.083   .     S
C64    O66     1.219   .     D
C64    H65     1.086   .     S
C67    H68     1.084   .     S
C67    O69     1.221   .     D
C70    H71     1.083   .     S
C70    O72     1.221   .     D
C75    C86     1.445   .     S
C75    O121    1.292   .     A
C76    C85     1.445   .     S
C76    O122    1.292   .     A
C76    O198    1.294   .     S
C77    C135    1.496   .     S
C77    C79     1.413   .     A
C77    C106    1.430   .     A
C78    C80     1.416   .     A
C78    C138    1.495   .     S
C78    C105    1.432   .     A
C79    C129    1.490   .     S
C79    C769    1.413   1_554 S
C80    C132    1.486   .     S
C80    C770    1.411   .     S
C81    C141    1.488   .     S
C81    C527    1.393   1_545 S
C81    C160    1.410   .     S
C82    C144    1.488   .     S
C82    C306    1.392   .     S
C83    C85     1.399   .     A
C83    H115    1.085   .     S
C83    C303    1.393   .     S
C84    H116    1.085   .     S
C84    C86     1.399   .     A
C84    C526    1.392   1_545 S
C85    C156    1.410   .     S
C87    N120    1.380   .     A
C87    Cl147   1.756   .     S
C87    C89     1.416   .     A
C88    Cl148   1.755   .     S
C88    C90     1.416   .     A
C88    N119    1.380   .     A
C89    N119    1.360   .     A
C89    H117    1.082   .     S
C90    H118    1.082   .     S
C90    N120    1.360   .     A
C91    O127    1.298   .     A
C91    C93     1.464   .     S
C91    O199    1.298   .     S
C92    C94     1.463   .     S
C92    O128    1.298   .     A
C93    C97     1.396   .     A
C93    C99     1.392   .     A
C94    C98     1.396   .     A
C94    C100    1.392   .     A
C95    C103    1.415   .     A
C95    H113    1.079   .     S
C95    C97     1.394   .     A
C96    H114    1.081   .     S
C96    C98     1.392   .     A
C96    C104    1.415   .     A
C97    H186    1.083   .     S
C99    C101    1.404   .     A
C99    H110    1.080   .     S
C100   C102    1.403   .     A
C100   H109    1.080   .     S
C101   C103    1.420   .     A
C101   C105    1.423   .     A
C102   C106    1.421   .     A
C102   C104    1.418   .     A
C103   C745    1.413   .     S
C104   C746    1.411   1_554 S
C105   C772    1.416   .     S
C106   C771    1.416   1_554 S
Cu107  N119    2.022   .     S
Cu107  O124    1.959   .     S
Cu107  O121    1.954   .     S
Cu107  O128    1.937   .     S
Cu107  O125    1.947   .     S
Cu108  N120    2.022   .     S
Cu108  O122    1.954   .     S
Cu108  O123    1.959   .     S
Cu108  O126    1.947   .     S
Cu108  O127    1.937   .     S
Cu108  Cu181   2.690   .     S
H111   C172    1.083   .     S
O123   C149    1.293   .     S
O126   C166    1.298   .     S
C129   H130    1.082   .     S
C129   O131    1.221   .     D
C132   O134    1.221   .     D
C132   H133    1.080   .     S
C135   O137    1.221   .     D
C135   H136    1.083   .     S
C138   O140    1.219   .     D
C138   H139    1.086   .     S
C141   H142    1.084   .     S
C141   O143    1.221   .     D
C144   H145    1.083   .     S
C144   O146    1.221   .     D
C149   C160    1.445   .     S
C149   O195    1.292   .     A
C150   C159    1.445   .     S
C150   O196    1.292   .     A
C150   O50     1.294   1_655 S
C151   C209    1.496   .     S
C151   C153    1.413   .     A
C151   C180    1.430   .     A
C152   C154    1.416   .     A
C152   C212    1.495   .     S
C152   C179    1.432   .     A
C153   C203    1.490   .     S
C153   C843    1.413   1_554 S
C154   C206    1.486   .     S
C154   C844    1.411   .     S
C155   C215    1.488   .     S
C155   C601    1.393   1_545 S
C155   C12     1.410   1_655 S
C156   C218    1.488   .     S
C156   C380    1.392   .     S
C157   C159    1.399   .     A
C157   H189    1.085   .     S
C157   C377    1.393   .     S
C158   H190    1.085   .     S
C158   C160    1.399   .     A
C158   C600    1.392   1_545 S
C159   C8      1.410   1_655 S
C161   N194    1.380   .     A
C161   Cl221   1.756   .     S
C161   C163    1.416   .     A
C162   Cl222   1.755   .     S
C162   C164    1.416   .     A
C162   N193    1.380   .     A
C163   N193    1.360   .     A
C163   H191    1.082   .     S
C164   H192    1.082   .     S
C164   N194    1.360   .     A
C165   O201    1.298   .     A
C165   C167    1.464   .     S
C165   O51     1.298   1_655 S
C166   C168    1.463   .     S
C166   O202    1.298   .     A
C167   C171    1.396   .     A
C167   C173    1.392   .     A
C168   C172    1.396   .     A
C168   C174    1.392   .     A
C169   C177    1.415   .     A
C169   H187    1.079   .     S
C169   C171    1.394   .     A
C170   H188    1.081   .     S
C170   C172    1.392   .     A
C170   C178    1.415   .     A
C171   H38     1.083   1_655 S
C173   C175    1.404   .     A
C173   H184    1.080   .     S
C174   C176    1.403   .     A
C174   H183    1.080   .     S
C175   C177    1.420   .     A
C175   C179    1.423   .     A
C176   C180    1.421   .     A
C176   C178    1.418   .     A
C177   C819    1.413   .     S
C178   C820    1.411   1_554 S
C179   C846    1.416   .     S
C180   C845    1.416   1_554 S
Cu181  N193    2.022   .     S
Cu181  O198    1.959   .     S
Cu181  O195    1.954   .     S
Cu181  O202    1.937   .     S
Cu181  O199    1.947   .     S
Cu182  N194    2.022   .     S
Cu182  O196    1.954   .     S
Cu182  O197    1.959   .     S
Cu182  O200    1.947   .     S
Cu182  O201    1.937   .     S
Cu182  Cu33    2.690   1_655 S
H185   C24     1.083   1_655 S
O197   C1      1.293   1_655 S
O200   C18     1.298   1_655 S
C203   H204    1.082   .     S
C203   O205    1.221   .     D
C206   O208    1.221   .     D
C206   H207    1.080   .     S
C209   O211    1.221   .     D
C209   H210    1.083   .     S
C212   O214    1.219   .     D
C212   H213    1.086   .     S
C215   H216    1.084   .     S
C215   O217    1.221   .     D
C218   H219    1.083   .     S
C218   O220    1.221   .     D
C223   C234    1.445   .     S
C223   O269    1.292   .     A
C223   O419    1.293   1_455 S
C224   C233    1.445   .     S
C224   O270    1.292   .     A
C224   O346    1.294   .     S
C225   C283    1.496   .     S
C225   C227    1.413   .     A
C225   C254    1.430   .     A
C226   C228    1.416   .     A
C226   C286    1.495   .     S
C226   C253    1.432   .     A
C227   C277    1.490   .     S
C227   C917    1.413   1_554 S
C228   C280    1.486   .     S
C228   C918    1.411   .     S
C229   C289    1.488   .     S
C229   C308    1.410   .     S
C230   C292    1.488   .     S
C230   C454    1.392   .     S
C230   C381    1.410   1_455 S
C231   C233    1.399   .     A
C231   H263    1.085   .     S
C231   C451    1.393   .     S
C232   H264    1.085   .     S
C232   C234    1.399   .     A
C233   C304    1.410   .     S
C234   C377    1.410   1_455 S
C235   N268    1.380   .     A
C235   Cl295   1.756   .     S
C235   C237    1.416   .     A
C236   Cl296   1.755   .     S
C236   C238    1.416   .     A
C236   N267    1.380   .     A
C237   N267    1.360   .     A
C237   H265    1.082   .     S
C238   H266    1.082   .     S
C238   N268    1.360   .     A
C239   O275    1.298   .     A
C239   C241    1.464   .     S
C239   O347    1.298   .     S
C240   C242    1.463   .     S
C240   O276    1.298   .     A
C240   O422    1.298   1_455 S
C241   C245    1.396   .     A
C241   C247    1.392   .     A
C242   C246    1.396   .     A
C242   C248    1.392   .     A
C243   C251    1.415   .     A
C243   H261    1.079   .     S
C243   C245    1.394   .     A
C244   H262    1.081   .     S
C244   C246    1.392   .     A
C244   C252    1.415   .     A
C245   H334    1.083   .     S
C246   H407    1.083   1_455 S
C247   C249    1.404   .     A
C247   H258    1.080   .     S
C248   C250    1.403   .     A
C248   H257    1.080   .     S
C249   C251    1.420   .     A
C249   C253    1.423   .     A
C250   C254    1.421   .     A
C250   C252    1.418   .     A
C251   C893    1.413   .     S
C252   C894    1.411   1_554 S
C253   C920    1.416   .     S
C254   C919    1.416   1_554 S
Cu255  N267    2.022   .     S
Cu255  O272    1.959   .     S
Cu255  O269    1.954   .     S
Cu255  O276    1.937   .     S
Cu255  O273    1.947   .     S
Cu255  Cu404   2.690   1_455 S
Cu256  N268    2.022   .     S
Cu256  O270    1.954   .     S
Cu256  O271    1.959   .     S
Cu256  O274    1.947   .     S
Cu256  O275    1.937   .     S
Cu256  Cu329   2.690   .     S
H259   C320    1.083   .     S
H260   C393    1.083   1_455 S
O271   C297    1.293   .     S
O272   C372    1.294   1_455 S
O273   C387    1.298   1_455 S
O274   C314    1.298   .     S
C277   H278    1.082   .     S
C277   O279    1.221   .     D
C280   O282    1.221   .     D
C280   H281    1.080   .     S
C283   O285    1.221   .     D
C283   H284    1.083   .     S
C286   O288    1.219   .     D
C286   H287    1.086   .     S
C289   H290    1.084   .     S
C289   O291    1.221   .     D
C292   H293    1.083   .     S
C292   O294    1.221   .     D
C297   C308    1.445   .     S
C297   O343    1.292   .     A
C298   C307    1.445   .     S
C298   O344    1.292   .     A
C298   O420    1.294   .     S
C299   C357    1.496   .     S
C299   C301    1.413   .     A
C299   C328    1.430   .     A
C300   C302    1.416   .     A
C300   C360    1.495   .     S
C300   C327    1.432   .     A
C301   C351    1.490   .     S
C301   C991    1.413   1_554 S
C302   C354    1.486   .     S
C302   C992    1.411   .     S
C303   C363    1.488   .     S
C303   C382    1.410   .     S
C304   C366    1.488   .     S
C304   C528    1.392   .     S
C305   C307    1.399   .     A
C305   H337    1.085   .     S
C305   C525    1.393   .     S
C306   H338    1.085   .     S
C306   C308    1.399   .     A
C307   C378    1.410   .     S
C309   N342    1.380   .     A
C309   Cl369   1.756   .     S
C309   C311    1.416   .     A
C310   Cl370   1.755   .     S
C310   C312    1.416   .     A
C310   N341    1.380   .     A
C311   N341    1.360   .     A
C311   H339    1.082   .     S
C312   H340    1.082   .     S
C312   N342    1.360   .     A
C313   O349    1.298   .     A
C313   C315    1.464   .     S
C313   O421    1.298   .     S
C314   C316    1.463   .     S
C314   O350    1.298   .     A
C315   C319    1.396   .     A
C315   C321    1.392   .     A
C316   C320    1.396   .     A
C316   C322    1.392   .     A
C317   C325    1.415   .     A
C317   H335    1.079   .     S
C317   C319    1.394   .     A
C318   H336    1.081   .     S
C318   C320    1.392   .     A
C318   C326    1.415   .     A
C319   H408    1.083   .     S
C321   C323    1.404   .     A
C321   H332    1.080   .     S
C322   C324    1.403   .     A
C322   H331    1.080   .     S
C323   C325    1.420   .     A
C323   C327    1.423   .     A
C324   C328    1.421   .     A
C324   C326    1.418   .     A
C325   C967    1.413   .     S
C326   C968    1.411   1_554 S
C327   C994    1.416   .     S
C328   C993    1.416   1_554 S
Cu329  N341    2.022   .     S
Cu329  O346    1.959   .     S
Cu329  O343    1.954   .     S
Cu329  O350    1.937   .     S
Cu329  O347    1.947   .     S
Cu330  N342    2.022   .     S
Cu330  O344    1.954   .     S
Cu330  O345    1.959   .     S
Cu330  O348    1.947   .     S
Cu330  O349    1.937   .     S
Cu330  Cu403   2.690   .     S
H333   C394    1.083   .     S
O345   C371    1.293   .     S
O348   C388    1.298   .     S
C351   H352    1.082   .     S
C351   O353    1.221   .     D
C354   O356    1.221   .     D
C354   H355    1.080   .     S
C357   O359    1.221   .     D
C357   H358    1.083   .     S
C360   O362    1.219   .     D
C360   H361    1.086   .     S
C363   H364    1.084   .     S
C363   O365    1.221   .     D
C366   H367    1.083   .     S
C366   O368    1.221   .     D
C371   C382    1.445   .     S
C371   O417    1.292   .     A
C372   C381    1.445   .     S
C372   O418    1.292   .     A
C372   O272    1.294   1_655 S
C373   C431    1.496   .     S
C373   C375    1.413   .     A
C373   C402    1.430   .     A
C374   C376    1.416   .     A
C374   C434    1.495   .     S
C374   C401    1.432   .     A
C375   C425    1.490   .     S
C375   C1065   1.413   1_554 S
C376   C428    1.486   .     S
C376   C1066   1.411   .     S
C377   C437    1.488   .     S
C377   C234    1.410   1_655 S
C378   C440    1.488   .     S
C378   C602    1.392   .     S
C379   C381    1.399   .     A
C379   H411    1.085   .     S
C379   C599    1.393   .     S
C380   H412    1.085   .     S
C380   C382    1.399   .     A
C381   C230    1.410   1_655 S
C383   N416    1.380   .     A
C383   Cl443   1.756   .     S
C383   C385    1.416   .     A
C384   Cl444   1.755   .     S
C384   C386    1.416   .     A
C384   N415    1.380   .     A
C385   N415    1.360   .     A
C385   H413    1.082   .     S
C386   H414    1.082   .     S
C386   N416    1.360   .     A
C387   O423    1.298   .     A
C387   C389    1.464   .     S
C387   O273    1.298   1_655 S
C388   C390    1.463   .     S
C388   O424    1.298   .     A
C389   C393    1.396   .     A
C389   C395    1.392   .     A
C390   C394    1.396   .     A
C390   C396    1.392   .     A
C391   C399    1.415   .     A
C391   H409    1.079   .     S
C391   C393    1.394   .     A
C392   H410    1.081   .     S
C392   C394    1.392   .     A
C392   C400    1.415   .     A
C393   H260    1.083   1_655 S
C395   C397    1.404   .     A
C395   H406    1.080   .     S
C396   C398    1.403   .     A
C396   H405    1.080   .     S
C397   C399    1.420   .     A
C397   C401    1.423   .     A
C398   C402    1.421   .     A
C398   C400    1.418   .     A
C399   C1041   1.413   .     S
C400   C1042   1.411   1_554 S
C401   C1068   1.416   .     S
C402   C1067   1.416   1_554 S
Cu403  N415    2.022   .     S
Cu403  O420    1.959   .     S
Cu403  O417    1.954   .     S
Cu403  O424    1.937   .     S
Cu403  O421    1.947   .     S
Cu404  N416    2.022   .     S
Cu404  O418    1.954   .     S
Cu404  O419    1.959   .     S
Cu404  O422    1.947   .     S
Cu404  O423    1.937   .     S
Cu404  Cu255   2.690   1_655 S
H407   C246    1.083   1_655 S
O419   C223    1.293   1_655 S
O422   C240    1.298   1_655 S
C425   H426    1.082   .     S
C425   O427    1.221   .     D
C428   O430    1.221   .     D
C428   H429    1.080   .     S
C431   O433    1.221   .     D
C431   H432    1.083   .     S
C434   O436    1.219   .     D
C434   H435    1.086   .     S
C437   H438    1.084   .     S
C437   O439    1.221   .     D
C440   H441    1.083   .     S
C440   O442    1.221   .     D
C445   C456    1.445   .     S
C445   O491    1.292   .     A
C445   O641    1.293   1_455 S
C446   C455    1.445   .     S
C446   O492    1.292   .     A
C446   O568    1.294   .     S
C447   C505    1.496   .     S
C447   C449    1.413   .     A
C447   C476    1.430   .     A
C448   C450    1.416   .     A
C448   C508    1.495   .     S
C448   C475    1.432   .     A
C449   C499    1.490   .     S
C449   C1139   1.413   1_554 S
C450   C502    1.486   .     S
C450   C1140   1.411   .     S
C451   C511    1.488   .     S
C451   C530    1.410   .     S
C452   C514    1.488   .     S
C452   C10     1.392   1_565 S
C452   C603    1.410   1_455 S
C453   C455    1.399   .     A
C453   H485    1.085   .     S
C453   C7      1.393   1_565 S
C454   H486    1.085   .     S
C454   C456    1.399   .     A
C455   C526    1.410   .     S
C456   C599    1.410   1_455 S
C457   N490    1.380   .     A
C457   Cl517   1.756   .     S
C457   C459    1.416   .     A
C458   Cl518   1.755   .     S
C458   C460    1.416   .     A
C458   N489    1.380   .     A
C459   N489    1.360   .     A
C459   H487    1.082   .     S
C460   H488    1.082   .     S
C460   N490    1.360   .     A
C461   O497    1.298   .     A
C461   C463    1.464   .     S
C461   O569    1.298   .     S
C462   C464    1.463   .     S
C462   O498    1.298   .     A
C462   O644    1.298   1_455 S
C463   C467    1.396   .     A
C463   C469    1.392   .     A
C464   C468    1.396   .     A
C464   C470    1.392   .     A
C465   C473    1.415   .     A
C465   H483    1.079   .     S
C465   C467    1.394   .     A
C466   H484    1.081   .     S
C466   C468    1.392   .     A
C466   C474    1.415   .     A
C467   H556    1.083   .     S
C468   H629    1.083   1_455 S
C469   C471    1.404   .     A
C469   H480    1.080   .     S
C470   C472    1.403   .     A
C470   H479    1.080   .     S
C471   C473    1.420   .     A
C471   C475    1.423   .     A
C472   C476    1.421   .     A
C472   C474    1.418   .     A
C473   C1115   1.413   .     S
C474   C1116   1.411   1_554 S
C475   C1142   1.416   .     S
C476   C1141   1.416   1_554 S
Cu477  N489    2.022   .     S
Cu477  O494    1.959   .     S
Cu477  O491    1.954   .     S
Cu477  O498    1.937   .     S
Cu477  O495    1.947   .     S
Cu477  Cu626   2.690   1_455 S
Cu478  N490    2.022   .     S
Cu478  O492    1.954   .     S
Cu478  O493    1.959   .     S
Cu478  O496    1.947   .     S
Cu478  O497    1.937   .     S
Cu478  Cu551   2.690   .     S
H481   C542    1.083   .     S
H482   C615    1.083   1_455 S
O493   C519    1.293   .     S
O494   C594    1.294   1_455 S
O495   C609    1.298   1_455 S
O496   C536    1.298   .     S
C499   H500    1.082   .     S
C499   O501    1.221   .     D
C502   O504    1.221   .     D
C502   H503    1.080   .     S
C505   O507    1.221   .     D
C505   H506    1.083   .     S
C508   O510    1.219   .     D
C508   H509    1.086   .     S
C511   H512    1.084   .     S
C511   O513    1.221   .     D
C514   H515    1.083   .     S
C514   O516    1.221   .     D
C519   C530    1.445   .     S
C519   O565    1.292   .     A
C520   C529    1.445   .     S
C520   O566    1.292   .     A
C520   O642    1.294   .     S
C521   C579    1.496   .     S
C521   C523    1.413   .     A
C521   C550    1.430   .     A
C522   C524    1.416   .     A
C522   C582    1.495   .     S
C522   C549    1.432   .     A
C523   C573    1.490   .     S
C523   C1213   1.413   1_554 S
C524   C576    1.486   .     S
C524   C1214   1.411   .     S
C525   C585    1.488   .     S
C525   C604    1.410   .     S
C526   C588    1.488   .     S
C526   C84     1.392   1_565 S
C527   C529    1.399   .     A
C527   H559    1.085   .     S
C527   C81     1.393   1_565 S
C528   H560    1.085   .     S
C528   C530    1.399   .     A
C529   C600    1.410   .     S
C531   N564    1.380   .     A
C531   Cl591   1.756   .     S
C531   C533    1.416   .     A
C532   Cl592   1.755   .     S
C532   C534    1.416   .     A
C532   N563    1.380   .     A
C533   N563    1.360   .     A
C533   H561    1.082   .     S
C534   H562    1.082   .     S
C534   N564    1.360   .     A
C535   O571    1.298   .     A
C535   C537    1.464   .     S
C535   O643    1.298   .     S
C536   C538    1.463   .     S
C536   O572    1.298   .     A
C537   C541    1.396   .     A
C537   C543    1.392   .     A
C538   C542    1.396   .     A
C538   C544    1.392   .     A
C539   C547    1.415   .     A
C539   H557    1.079   .     S
C539   C541    1.394   .     A
C540   H558    1.081   .     S
C540   C542    1.392   .     A
C540   C548    1.415   .     A
C541   H630    1.083   .     S
C543   C545    1.404   .     A
C543   H554    1.080   .     S
C544   C546    1.403   .     A
C544   H553    1.080   .     S
C545   C547    1.420   .     A
C545   C549    1.423   .     A
C546   C550    1.421   .     A
C546   C548    1.418   .     A
C547   C1189   1.413   .     S
C548   C1190   1.411   1_554 S
C549   C1216   1.416   .     S
C550   C1215   1.416   1_554 S
Cu551  N563    2.022   .     S
Cu551  O568    1.959   .     S
Cu551  O565    1.954   .     S
Cu551  O572    1.937   .     S
Cu551  O569    1.947   .     S
Cu552  N564    2.022   .     S
Cu552  O566    1.954   .     S
Cu552  O567    1.959   .     S
Cu552  O570    1.947   .     S
Cu552  O571    1.937   .     S
Cu552  Cu625   2.690   .     S
H555   C616    1.083   .     S
O567   C593    1.293   .     S
O570   C610    1.298   .     S
C573   H574    1.082   .     S
C573   O575    1.221   .     D
C576   O578    1.221   .     D
C576   H577    1.080   .     S
C579   O581    1.221   .     D
C579   H580    1.083   .     S
C582   O584    1.219   .     D
C582   H583    1.086   .     S
C585   H586    1.084   .     S
C585   O587    1.221   .     D
C588   H589    1.083   .     S
C588   O590    1.221   .     D
C593   C604    1.445   .     S
C593   O639    1.292   .     A
C594   C603    1.445   .     S
C594   O640    1.292   .     A
C594   O494    1.294   1_655 S
C595   C653    1.496   .     S
C595   C597    1.413   .     A
C595   C624    1.430   .     A
C596   C598    1.416   .     A
C596   C656    1.495   .     S
C596   C623    1.432   .     A
C597   C647    1.490   .     S
C597   C1287   1.413   1_554 S
C598   C650    1.486   .     S
C598   C1288   1.411   .     S
C599   C659    1.488   .     S
C599   C456    1.410   1_655 S
C600   C662    1.488   .     S
C600   C158    1.392   1_565 S
C601   C603    1.399   .     A
C601   H633    1.085   .     S
C601   C155    1.393   1_565 S
C602   H634    1.085   .     S
C602   C604    1.399   .     A
C603   C452    1.410   1_655 S
C605   N638    1.380   .     A
C605   Cl665   1.756   .     S
C605   C607    1.416   .     A
C606   Cl666   1.755   .     S
C606   C608    1.416   .     A
C606   N637    1.380   .     A
C607   N637    1.360   .     A
C607   H635    1.082   .     S
C608   H636    1.082   .     S
C608   N638    1.360   .     A
C609   O645    1.298   .     A
C609   C611    1.464   .     S
C609   O495    1.298   1_655 S
C610   C612    1.463   .     S
C610   O646    1.298   .     A
C611   C615    1.396   .     A
C611   C617    1.392   .     A
C612   C616    1.396   .     A
C612   C618    1.392   .     A
C613   C621    1.415   .     A
C613   H631    1.079   .     S
C613   C615    1.394   .     A
C614   H632    1.081   .     S
C614   C616    1.392   .     A
C614   C622    1.415   .     A
C615   H482    1.083   1_655 S
C617   C619    1.404   .     A
C617   H628    1.080   .     S
C618   C620    1.403   .     A
C618   H627    1.080   .     S
C619   C621    1.420   .     A
C619   C623    1.423   .     A
C620   C624    1.421   .     A
C620   C622    1.418   .     A
C621   C1263   1.413   .     S
C622   C1264   1.411   1_554 S
C623   C1290   1.416   .     S
C624   C1289   1.416   1_554 S
Cu625  N637    2.022   .     S
Cu625  O642    1.959   .     S
Cu625  O639    1.954   .     S
Cu625  O646    1.937   .     S
Cu625  O643    1.947   .     S
Cu626  N638    2.022   .     S
Cu626  O640    1.954   .     S
Cu626  O641    1.959   .     S
Cu626  O644    1.947   .     S
Cu626  O645    1.937   .     S
Cu626  Cu477   2.690   1_655 S
H629   C468    1.083   1_655 S
O641   C445    1.293   1_655 S
O644   C462    1.298   1_655 S
C647   H648    1.082   .     S
C647   O649    1.221   .     D
C650   O652    1.221   .     D
C650   H651    1.080   .     S
C653   O655    1.221   .     D
C653   H654    1.083   .     S
C656   O658    1.219   .     D
C656   H657    1.086   .     S
C659   H660    1.084   .     S
C659   O661    1.221   .     D
C662   H663    1.083   .     S
C662   O664    1.221   .     D
C667   C678    1.445   .     S
C667   O713    1.292   .     A
C667   O863    1.293   1_455 S
C668   C677    1.445   .     S
C668   O714    1.292   .     A
C668   O790    1.294   .     S
C669   C727    1.496   .     S
C669   C671    1.413   .     A
C669   C698    1.430   .     A
C670   C672    1.416   .     A
C670   C730    1.495   .     S
C670   C697    1.432   .     A
C671   C721    1.490   .     S
C672   C724    1.486   .     S
C672   C30     1.411   1_556 S
C673   C733    1.488   .     S
C673   C1119   1.393   1_545 S
C673   C752    1.410   .     S
C674   C736    1.488   .     S
C674   C898    1.392   .     S
C674   C825    1.410   1_455 S
C675   C677    1.399   .     A
C675   H707    1.085   .     S
C675   C895    1.393   .     S
C676   H708    1.085   .     S
C676   C678    1.399   .     A
C676   C1118   1.392   1_545 S
C677   C748    1.410   .     S
C678   C821    1.410   1_455 S
C679   N712    1.380   .     A
C679   Cl739   1.756   .     S
C679   C681    1.416   .     A
C680   Cl740   1.755   .     S
C680   C682    1.416   .     A
C680   N711    1.380   .     A
C681   N711    1.360   .     A
C681   H709    1.082   .     S
C682   H710    1.082   .     S
C682   N712    1.360   .     A
C683   O719    1.298   .     A
C683   C685    1.464   .     S
C683   O791    1.298   .     S
C684   C686    1.463   .     S
C684   O720    1.298   .     A
C684   O866    1.298   1_455 S
C685   C689    1.396   .     A
C685   C691    1.392   .     A
C686   C690    1.396   .     A
C686   C692    1.392   .     A
C687   C695    1.415   .     A
C687   H705    1.079   .     S
C687   C689    1.394   .     A
C688   H706    1.081   .     S
C688   C690    1.392   .     A
C688   C696    1.415   .     A
C689   H778    1.083   .     S
C690   H851    1.083   1_455 S
C691   C693    1.404   .     A
C691   H702    1.080   .     S
C692   C694    1.403   .     A
C692   H701    1.080   .     S
C693   C695    1.420   .     A
C693   C697    1.423   .     A
C694   C698    1.421   .     A
C694   C696    1.418   .     A
C695   C5      1.413   1_556 S
C697   C32     1.416   1_556 S
Cu699  N711    2.022   .     S
Cu699  O716    1.959   .     S
Cu699  O713    1.954   .     S
Cu699  O720    1.937   .     S
Cu699  O717    1.947   .     S
Cu699  Cu848   2.690   1_455 S
Cu700  N712    2.022   .     S
Cu700  O714    1.954   .     S
Cu700  O715    1.959   .     S
Cu700  O718    1.947   .     S
Cu700  O719    1.937   .     S
Cu700  Cu773   2.690   .     S
H703   C764    1.083   .     S
H704   C837    1.083   1_455 S
O715   C741    1.293   .     S
O716   C816    1.294   1_455 S
O717   C831    1.298   1_455 S
O718   C758    1.298   .     S
C721   H722    1.082   .     S
C721   O723    1.221   .     D
C724   O726    1.221   .     D
C724   H725    1.080   .     S
C727   O729    1.221   .     D
C727   H728    1.083   .     S
C730   O732    1.219   .     D
C730   H731    1.086   .     S
C733   H734    1.084   .     S
C733   O735    1.221   .     D
C736   H737    1.083   .     S
C736   O738    1.221   .     D
C741   C752    1.445   .     S
C741   O787    1.292   .     A
C742   C751    1.445   .     S
C742   O788    1.292   .     A
C742   O864    1.294   .     S
C743   C801    1.496   .     S
C743   C745    1.413   .     A
C743   C772    1.430   .     A
C744   C746    1.416   .     A
C744   C804    1.495   .     S
C744   C771    1.432   .     A
C745   C795    1.490   .     S
C746   C798    1.486   .     S
C746   C104    1.411   1_556 S
C747   C807    1.488   .     S
C747   C1193   1.393   1_545 S
C747   C826    1.410   .     S
C748   C810    1.488   .     S
C748   C972    1.392   .     S
C749   C751    1.399   .     A
C749   H781    1.085   .     S
C749   C969    1.393   .     S
C750   H782    1.085   .     S
C750   C752    1.399   .     A
C750   C1192   1.392   1_545 S
C751   C822    1.410   .     S
C753   N786    1.380   .     A
C753   Cl813   1.756   .     S
C753   C755    1.416   .     A
C754   Cl814   1.755   .     S
C754   C756    1.416   .     A
C754   N785    1.380   .     A
C755   N785    1.360   .     A
C755   H783    1.082   .     S
C756   H784    1.082   .     S
C756   N786    1.360   .     A
C757   O793    1.298   .     A
C757   C759    1.464   .     S
C757   O865    1.298   .     S
C758   C760    1.463   .     S
C758   O794    1.298   .     A
C759   C763    1.396   .     A
C759   C765    1.392   .     A
C760   C764    1.396   .     A
C760   C766    1.392   .     A
C761   C769    1.415   .     A
C761   H779    1.079   .     S
C761   C763    1.394   .     A
C762   H780    1.081   .     S
C762   C764    1.392   .     A
C762   C770    1.415   .     A
C763   H852    1.083   .     S
C765   C767    1.404   .     A
C765   H776    1.080   .     S
C766   C768    1.403   .     A
C766   H775    1.080   .     S
C767   C769    1.420   .     A
C767   C771    1.423   .     A
C768   C772    1.421   .     A
C768   C770    1.418   .     A
C769   C79     1.413   1_556 S
C771   C106    1.416   1_556 S
Cu773  N785    2.022   .     S
Cu773  O790    1.959   .     S
Cu773  O787    1.954   .     S
Cu773  O794    1.937   .     S
Cu773  O791    1.947   .     S
Cu774  N786    2.022   .     S
Cu774  O788    1.954   .     S
Cu774  O789    1.959   .     S
Cu774  O792    1.947   .     S
Cu774  O793    1.937   .     S
Cu774  Cu847   2.690   .     S
H777   C838    1.083   .     S
O789   C815    1.293   .     S
O792   C832    1.298   .     S
C795   H796    1.082   .     S
C795   O797    1.221   .     D
C798   O800    1.221   .     D
C798   H799    1.080   .     S
C801   O803    1.221   .     D
C801   H802    1.083   .     S
C804   O806    1.219   .     D
C804   H805    1.086   .     S
C807   H808    1.084   .     S
C807   O809    1.221   .     D
C810   H811    1.083   .     S
C810   O812    1.221   .     D
C815   C826    1.445   .     S
C815   O861    1.292   .     A
C816   C825    1.445   .     S
C816   O862    1.292   .     A
C816   O716    1.294   1_655 S
C817   C875    1.496   .     S
C817   C819    1.413   .     A
C817   C846    1.430   .     A
C818   C820    1.416   .     A
C818   C878    1.495   .     S
C818   C845    1.432   .     A
C819   C869    1.490   .     S
C820   C872    1.486   .     S
C820   C178    1.411   1_556 S
C821   C881    1.488   .     S
C821   C1267   1.393   1_545 S
C821   C678    1.410   1_655 S
C822   C884    1.488   .     S
C822   C1046   1.392   .     S
C823   C825    1.399   .     A
C823   H855    1.085   .     S
C823   C1043   1.393   .     S
C824   H856    1.085   .     S
C824   C826    1.399   .     A
C824   C1266   1.392   1_545 S
C825   C674    1.410   1_655 S
C827   N860    1.380   .     A
C827   Cl887   1.756   .     S
C827   C829    1.416   .     A
C828   Cl888   1.755   .     S
C828   C830    1.416   .     A
C828   N859    1.380   .     A
C829   N859    1.360   .     A
C829   H857    1.082   .     S
C830   H858    1.082   .     S
C830   N860    1.360   .     A
C831   O867    1.298   .     A
C831   C833    1.464   .     S
C831   O717    1.298   1_655 S
C832   C834    1.463   .     S
C832   O868    1.298   .     A
C833   C837    1.396   .     A
C833   C839    1.392   .     A
C834   C838    1.396   .     A
C834   C840    1.392   .     A
C835   C843    1.415   .     A
C835   H853    1.079   .     S
C835   C837    1.394   .     A
C836   H854    1.081   .     S
C836   C838    1.392   .     A
C836   C844    1.415   .     A
C837   H704    1.083   1_655 S
C839   C841    1.404   .     A
C839   H850    1.080   .     S
C840   C842    1.403   .     A
C840   H849    1.080   .     S
C841   C843    1.420   .     A
C841   C845    1.423   .     A
C842   C846    1.421   .     A
C842   C844    1.418   .     A
C843   C153    1.413   1_556 S
C845   C180    1.416   1_556 S
Cu847  N859    2.022   .     S
Cu847  O864    1.959   .     S
Cu847  O861    1.954   .     S
Cu847  O868    1.937   .     S
Cu847  O865    1.947   .     S
Cu848  N860    2.022   .     S
Cu848  O862    1.954   .     S
Cu848  O863    1.959   .     S
Cu848  O866    1.947   .     S
Cu848  O867    1.937   .     S
Cu848  Cu699   2.690   1_655 S
H851   C690    1.083   1_655 S
O863   C667    1.293   1_655 S
O866   C684    1.298   1_655 S
C869   H870    1.082   .     S
C869   O871    1.221   .     D
C872   O874    1.221   .     D
C872   H873    1.080   .     S
C875   O877    1.221   .     D
C875   H876    1.083   .     S
C878   O880    1.219   .     D
C878   H879    1.086   .     S
C881   H882    1.084   .     S
C881   O883    1.221   .     D
C884   H885    1.083   .     S
C884   O886    1.221   .     D
C889   C900    1.445   .     S
C889   O935    1.292   .     A
C889   O1085   1.293   1_455 S
C890   C899    1.445   .     S
C890   O936    1.292   .     A
C890   O1012   1.294   .     S
C891   C949    1.496   .     S
C891   C893    1.413   .     A
C891   C920    1.430   .     A
C892   C894    1.416   .     A
C892   C952    1.495   .     S
C892   C919    1.432   .     A
C893   C943    1.490   .     S
C894   C946    1.486   .     S
C894   C252    1.411   1_556 S
C895   C955    1.488   .     S
C895   C974    1.410   .     S
C896   C958    1.488   .     S
C896   C1120   1.392   .     S
C896   C1047   1.410   1_455 S
C897   C899    1.399   .     A
C897   H929    1.085   .     S
C897   C1117   1.393   .     S
C898   H930    1.085   .     S
C898   C900    1.399   .     A
C899   C970    1.410   .     S
C900   C1043   1.410   1_455 S
C901   N934    1.380   .     A
C901   Cl961   1.756   .     S
C901   C903    1.416   .     A
C902   Cl962   1.755   .     S
C902   C904    1.416   .     A
C902   N933    1.380   .     A
C903   N933    1.360   .     A
C903   H931    1.082   .     S
C904   H932    1.082   .     S
C904   N934    1.360   .     A
C905   O941    1.298   .     A
C905   C907    1.464   .     S
C905   O1013   1.298   .     S
C906   C908    1.463   .     S
C906   O942    1.298   .     A
C906   O1088   1.298   1_455 S
C907   C911    1.396   .     A
C907   C913    1.392   .     A
C908   C912    1.396   .     A
C908   C914    1.392   .     A
C909   C917    1.415   .     A
C909   H927    1.079   .     S
C909   C911    1.394   .     A
C910   H928    1.081   .     S
C910   C912    1.392   .     A
C910   C918    1.415   .     A
C911   H1000   1.083   .     S
C912   H1073   1.083   1_455 S
C913   C915    1.404   .     A
C913   H924    1.080   .     S
C914   C916    1.403   .     A
C914   H923    1.080   .     S
C915   C917    1.420   .     A
C915   C919    1.423   .     A
C916   C920    1.421   .     A
C916   C918    1.418   .     A
C917   C227    1.413   1_556 S
C919   C254    1.416   1_556 S
Cu921  N933    2.022   .     S
Cu921  O938    1.959   .     S
Cu921  O935    1.954   .     S
Cu921  O942    1.937   .     S
Cu921  O939    1.947   .     S
Cu921  Cu1070  2.690   1_455 S
Cu922  N934    2.022   .     S
Cu922  O936    1.954   .     S
Cu922  O937    1.959   .     S
Cu922  O940    1.947   .     S
Cu922  O941    1.937   .     S
Cu922  Cu995   2.690   .     S
H925   C986    1.083   .     S
H926   C1059   1.083   1_455 S
O937   C963    1.293   .     S
O938   C1038   1.294   1_455 S
O939   C1053   1.298   1_455 S
O940   C980    1.298   .     S
C943   H944    1.082   .     S
C943   O945    1.221   .     D
C946   O948    1.221   .     D
C946   H947    1.080   .     S
C949   O951    1.221   .     D
C949   H950    1.083   .     S
C952   O954    1.219   .     D
C952   H953    1.086   .     S
C955   H956    1.084   .     S
C955   O957    1.221   .     D
C958   H959    1.083   .     S
C958   O960    1.221   .     D
C963   C974    1.445   .     S
C963   O1009   1.292   .     A
C964   C973    1.445   .     S
C964   O1010   1.292   .     A
C964   O1086   1.294   .     S
C965   C1023   1.496   .     S
C965   C967    1.413   .     A
C965   C994    1.430   .     A
C966   C968    1.416   .     A
C966   C1026   1.495   .     S
C966   C993    1.432   .     A
C967   C1017   1.490   .     S
C968   C1020   1.486   .     S
C968   C326    1.411   1_556 S
C969   C1029   1.488   .     S
C969   C1048   1.410   .     S
C970   C1032   1.488   .     S
C970   C1194   1.392   .     S
C971   C973    1.399   .     A
C971   H1003   1.085   .     S
C971   C1191   1.393   .     S
C972   H1004   1.085   .     S
C972   C974    1.399   .     A
C973   C1044   1.410   .     S
C975   N1008   1.380   .     A
C975   Cl1035  1.756   .     S
C975   C977    1.416   .     A
C976   Cl1036  1.755   .     S
C976   C978    1.416   .     A
C976   N1007   1.380   .     A
C977   N1007   1.360   .     A
C977   H1005   1.082   .     S
C978   H1006   1.082   .     S
C978   N1008   1.360   .     A
C979   O1015   1.298   .     A
C979   C981    1.464   .     S
C979   O1087   1.298   .     S
C980   C982    1.463   .     S
C980   O1016   1.298   .     A
C981   C985    1.396   .     A
C981   C987    1.392   .     A
C982   C986    1.396   .     A
C982   C988    1.392   .     A
C983   C991    1.415   .     A
C983   H1001   1.079   .     S
C983   C985    1.394   .     A
C984   H1002   1.081   .     S
C984   C986    1.392   .     A
C984   C992    1.415   .     A
C985   H1074   1.083   .     S
C987   C989    1.404   .     A
C987   H998    1.080   .     S
C988   C990    1.403   .     A
C988   H997    1.080   .     S
C989   C991    1.420   .     A
C989   C993    1.423   .     A
C990   C994    1.421   .     A
C990   C992    1.418   .     A
C991   C301    1.413   1_556 S
C993   C328    1.416   1_556 S
Cu995  N1007   2.022   .     S
Cu995  O1012   1.959   .     S
Cu995  O1009   1.954   .     S
Cu995  O1016   1.937   .     S
Cu995  O1013   1.947   .     S
Cu996  N1008   2.022   .     S
Cu996  O1010   1.954   .     S
Cu996  O1011   1.959   .     S
Cu996  O1014   1.947   .     S
Cu996  O1015   1.937   .     S
Cu996  Cu1069  2.690   .     S
H999   C1060   1.083   .     S
O1011  C1037   1.293   .     S
O1014  C1054   1.298   .     S
C1017  H1018   1.082   .     S
C1017  O1019   1.221   .     D
C1020  O1022   1.221   .     D
C1020  H1021   1.080   .     S
C1023  O1025   1.221   .     D
C1023  H1024   1.083   .     S
C1026  O1028   1.219   .     D
C1026  H1027   1.086   .     S
C1029  H1030   1.084   .     S
C1029  O1031   1.221   .     D
C1032  H1033   1.083   .     S
C1032  O1034   1.221   .     D
C1037  C1048   1.445   .     S
C1037  O1083   1.292   .     A
C1038  C1047   1.445   .     S
C1038  O1084   1.292   .     A
C1038  O938    1.294   1_655 S
C1039  C1097   1.496   .     S
C1039  C1041   1.413   .     A
C1039  C1068   1.430   .     A
C1040  C1042   1.416   .     A
C1040  C1100   1.495   .     S
C1040  C1067   1.432   .     A
C1041  C1091   1.490   .     S
C1042  C1094   1.486   .     S
C1042  C400    1.411   1_556 S
C1043  C1103   1.488   .     S
C1043  C900    1.410   1_655 S
C1044  C1106   1.488   .     S
C1044  C1268   1.392   .     S
C1045  C1047   1.399   .     A
C1045  H1077   1.085   .     S
C1045  C1265   1.393   .     S
C1046  H1078   1.085   .     S
C1046  C1048   1.399   .     A
C1047  C896    1.410   1_655 S
C1049  N1082   1.380   .     A
C1049  Cl1109  1.756   .     S
C1049  C1051   1.416   .     A
C1050  Cl1110  1.755   .     S
C1050  C1052   1.416   .     A
C1050  N1081   1.380   .     A
C1051  N1081   1.360   .     A
C1051  H1079   1.082   .     S
C1052  H1080   1.082   .     S
C1052  N1082   1.360   .     A
C1053  O1089   1.298   .     A
C1053  C1055   1.464   .     S
C1053  O939    1.298   1_655 S
C1054  C1056   1.463   .     S
C1054  O1090   1.298   .     A
C1055  C1059   1.396   .     A
C1055  C1061   1.392   .     A
C1056  C1060   1.396   .     A
C1056  C1062   1.392   .     A
C1057  C1065   1.415   .     A
C1057  H1075   1.079   .     S
C1057  C1059   1.394   .     A
C1058  H1076   1.081   .     S
C1058  C1060   1.392   .     A
C1058  C1066   1.415   .     A
C1059  H926    1.083   1_655 S
C1061  C1063   1.404   .     A
C1061  H1072   1.080   .     S
C1062  C1064   1.403   .     A
C1062  H1071   1.080   .     S
C1063  C1065   1.420   .     A
C1063  C1067   1.423   .     A
C1064  C1068   1.421   .     A
C1064  C1066   1.418   .     A
C1065  C375    1.413   1_556 S
C1067  C402    1.416   1_556 S
Cu1069 N1081   2.022   .     S
Cu1069 O1086   1.959   .     S
Cu1069 O1083   1.954   .     S
Cu1069 O1090   1.937   .     S
Cu1069 O1087   1.947   .     S
Cu1070 N1082   2.022   .     S
Cu1070 O1084   1.954   .     S
Cu1070 O1085   1.959   .     S
Cu1070 O1088   1.947   .     S
Cu1070 O1089   1.937   .     S
Cu1070 Cu921   2.690   1_655 S
H1073  C912    1.083   1_655 S
O1085  C889    1.293   1_655 S
O1088  C906    1.298   1_655 S
C1091  H1092   1.082   .     S
C1091  O1093   1.221   .     D
C1094  O1096   1.221   .     D
C1094  H1095   1.080   .     S
C1097  O1099   1.221   .     D
C1097  H1098   1.083   .     S
C1100  O1102   1.219   .     D
C1100  H1101   1.086   .     S
C1103  H1104   1.084   .     S
C1103  O1105   1.221   .     D
C1106  H1107   1.083   .     S
C1106  O1108   1.221   .     D
C1111  C1122   1.445   .     S
C1111  O1157   1.292   .     A
C1111  O1307   1.293   1_455 S
C1112  C1121   1.445   .     S
C1112  O1158   1.292   .     A
C1112  O1234   1.294   .     S
C1113  C1171   1.496   .     S
C1113  C1115   1.413   .     A
C1113  C1142   1.430   .     A
C1114  C1116   1.416   .     A
C1114  C1174   1.495   .     S
C1114  C1141   1.432   .     A
C1115  C1165   1.490   .     S
C1116  C1168   1.486   .     S
C1116  C474    1.411   1_556 S
C1117  C1177   1.488   .     S
C1117  C1196   1.410   .     S
C1118  C1180   1.488   .     S
C1118  C676    1.392   1_565 S
C1118  C1269   1.410   1_455 S
C1119  C1121   1.399   .     A
C1119  H1151   1.085   .     S
C1119  C673    1.393   1_565 S
C1120  H1152   1.085   .     S
C1120  C1122   1.399   .     A
C1121  C1192   1.410   .     S
C1122  C1265   1.410   1_455 S
C1123  N1156   1.380   .     A
C1123  Cl1183  1.756   .     S
C1123  C1125   1.416   .     A
C1124  Cl1184  1.755   .     S
C1124  C1126   1.416   .     A
C1124  N1155   1.380   .     A
C1125  N1155   1.360   .     A
C1125  H1153   1.082   .     S
C1126  H1154   1.082   .     S
C1126  N1156   1.360   .     A
C1127  O1163   1.298   .     A
C1127  C1129   1.464   .     S
C1127  O1235   1.298   .     S
C1128  C1130   1.463   .     S
C1128  O1164   1.298   .     A
C1128  O1310   1.298   1_455 S
C1129  C1133   1.396   .     A
C1129  C1135   1.392   .     A
C1130  C1134   1.396   .     A
C1130  C1136   1.392   .     A
C1131  C1139   1.415   .     A
C1131  H1149   1.079   .     S
C1131  C1133   1.394   .     A
C1132  H1150   1.081   .     S
C1132  C1134   1.392   .     A
C1132  C1140   1.415   .     A
C1133  H1222   1.083   .     S
C1134  H1295   1.083   1_455 S
C1135  C1137   1.404   .     A
C1135  H1146   1.080   .     S
C1136  C1138   1.403   .     A
C1136  H1145   1.080   .     S
C1137  C1139   1.420   .     A
C1137  C1141   1.423   .     A
C1138  C1142   1.421   .     A
C1138  C1140   1.418   .     A
C1139  C449    1.413   1_556 S
C1141  C476    1.416   1_556 S
Cu1143 N1155   2.022   .     S
Cu1143 O1160   1.959   .     S
Cu1143 O1157   1.954   .     S
Cu1143 O1164   1.937   .     S
Cu1143 O1161   1.947   .     S
Cu1143 Cu1292  2.690   1_455 S
Cu1144 N1156   2.022   .     S
Cu1144 O1158   1.954   .     S
Cu1144 O1159   1.959   .     S
Cu1144 O1162   1.947   .     S
Cu1144 O1163   1.937   .     S
Cu1144 Cu1217  2.690   .     S
H1147  C1208   1.083   .     S
H1148  C1281   1.083   1_455 S
O1159  C1185   1.293   .     S
O1160  C1260   1.294   1_455 S
O1161  C1275   1.298   1_455 S
O1162  C1202   1.298   .     S
C1165  H1166   1.082   .     S
C1165  O1167   1.221   .     D
C1168  O1170   1.221   .     D
C1168  H1169   1.080   .     S
C1171  O1173   1.221   .     D
C1171  H1172   1.083   .     S
C1174  O1176   1.219   .     D
C1174  H1175   1.086   .     S
C1177  H1178   1.084   .     S
C1177  O1179   1.221   .     D
C1180  H1181   1.083   .     S
C1180  O1182   1.221   .     D
C1185  C1196   1.445   .     S
C1185  O1231   1.292   .     A
C1186  C1195   1.445   .     S
C1186  O1232   1.292   .     A
C1186  O1308   1.294   .     S
C1187  C1245   1.496   .     S
C1187  C1189   1.413   .     A
C1187  C1216   1.430   .     A
C1188  C1190   1.416   .     A
C1188  C1248   1.495   .     S
C1188  C1215   1.432   .     A
C1189  C1239   1.490   .     S
C1190  C1242   1.486   .     S
C1190  C548    1.411   1_556 S
C1191  C1251   1.488   .     S
C1191  C1270   1.410   .     S
C1192  C1254   1.488   .     S
C1192  C750    1.392   1_565 S
C1193  C1195   1.399   .     A
C1193  H1225   1.085   .     S
C1193  C747    1.393   1_565 S
C1194  H1226   1.085   .     S
C1194  C1196   1.399   .     A
C1195  C1266   1.410   .     S
C1197  N1230   1.380   .     A
C1197  Cl1257  1.756   .     S
C1197  C1199   1.416   .     A
C1198  Cl1258  1.755   .     S
C1198  C1200   1.416   .     A
C1198  N1229   1.380   .     A
C1199  N1229   1.360   .     A
C1199  H1227   1.082   .     S
C1200  H1228   1.082   .     S
C1200  N1230   1.360   .     A
C1201  O1237   1.298   .     A
C1201  C1203   1.464   .     S
C1201  O1309   1.298   .     S
C1202  C1204   1.463   .     S
C1202  O1238   1.298   .     A
C1203  C1207   1.396   .     A
C1203  C1209   1.392   .     A
C1204  C1208   1.396   .     A
C1204  C1210   1.392   .     A
C1205  C1213   1.415   .     A
C1205  H1223   1.079   .     S
C1205  C1207   1.394   .     A
C1206  H1224   1.081   .     S
C1206  C1208   1.392   .     A
C1206  C1214   1.415   .     A
C1207  H1296   1.083   .     S
C1209  C1211   1.404   .     A
C1209  H1220   1.080   .     S
C1210  C1212   1.403   .     A
C1210  H1219   1.080   .     S
C1211  C1213   1.420   .     A
C1211  C1215   1.423   .     A
C1212  C1216   1.421   .     A
C1212  C1214   1.418   .     A
C1213  C523    1.413   1_556 S
C1215  C550    1.416   1_556 S
Cu1217 N1229   2.022   .     S
Cu1217 O1234   1.959   .     S
Cu1217 O1231   1.954   .     S
Cu1217 O1238   1.937   .     S
Cu1217 O1235   1.947   .     S
Cu1218 N1230   2.022   .     S
Cu1218 O1232   1.954   .     S
Cu1218 O1233   1.959   .     S
Cu1218 O1236   1.947   .     S
Cu1218 O1237   1.937   .     S
Cu1218 Cu1291  2.690   .     S
H1221  C1282   1.083   .     S
O1233  C1259   1.293   .     S
O1236  C1276   1.298   .     S
C1239  H1240   1.082   .     S
C1239  O1241   1.221   .     D
C1242  O1244   1.221   .     D
C1242  H1243   1.080   .     S
C1245  O1247   1.221   .     D
C1245  H1246   1.083   .     S
C1248  O1250   1.219   .     D
C1248  H1249   1.086   .     S
C1251  H1252   1.084   .     S
C1251  O1253   1.221   .     D
C1254  H1255   1.083   .     S
C1254  O1256   1.221   .     D
C1259  C1270   1.445   .     S
C1259  O1305   1.292   .     A
C1260  C1269   1.445   .     S
C1260  O1306   1.292   .     A
C1260  O1160   1.294   1_655 S
C1261  C1319   1.496   .     S
C1261  C1263   1.413   .     A
C1261  C1290   1.430   .     A
C1262  C1264   1.416   .     A
C1262  C1322   1.495   .     S
C1262  C1289   1.432   .     A
C1263  C1313   1.490   .     S
C1264  C1316   1.486   .     S
C1264  C622    1.411   1_556 S
C1265  C1325   1.488   .     S
C1265  C1122   1.410   1_655 S
C1266  C1328   1.488   .     S
C1266  C824    1.392   1_565 S
C1267  C1269   1.399   .     A
C1267  H1299   1.085   .     S
C1267  C821    1.393   1_565 S
C1268  H1300   1.085   .     S
C1268  C1270   1.399   .     A
C1269  C1118   1.410   1_655 S
C1271  N1304   1.380   .     A
C1271  Cl1331  1.756   .     S
C1271  C1273   1.416   .     A
C1272  Cl1332  1.755   .     S
C1272  C1274   1.416   .     A
C1272  N1303   1.380   .     A
C1273  N1303   1.360   .     A
C1273  H1301   1.082   .     S
C1274  H1302   1.082   .     S
C1274  N1304   1.360   .     A
C1275  O1311   1.298   .     A
C1275  C1277   1.464   .     S
C1275  O1161   1.298   1_655 S
C1276  C1278   1.463   .     S
C1276  O1312   1.298   .     A
C1277  C1281   1.396   .     A
C1277  C1283   1.392   .     A
C1278  C1282   1.396   .     A
C1278  C1284   1.392   .     A
C1279  C1287   1.415   .     A
C1279  H1297   1.079   .     S
C1279  C1281   1.394   .     A
C1280  H1298   1.081   .     S
C1280  C1282   1.392   .     A
C1280  C1288   1.415   .     A
C1281  H1148   1.083   1_655 S
C1283  C1285   1.404   .     A
C1283  H1294   1.080   .     S
C1284  C1286   1.403   .     A
C1284  H1293   1.080   .     S
C1285  C1287   1.420   .     A
C1285  C1289   1.423   .     A
C1286  C1290   1.421   .     A
C1286  C1288   1.418   .     A
C1287  C597    1.413   1_556 S
C1289  C624    1.416   1_556 S
Cu1291 N1303   2.022   .     S
Cu1291 O1308   1.959   .     S
Cu1291 O1305   1.954   .     S
Cu1291 O1312   1.937   .     S
Cu1291 O1309   1.947   .     S
Cu1292 N1304   2.022   .     S
Cu1292 O1306   1.954   .     S
Cu1292 O1307   1.959   .     S
Cu1292 O1310   1.947   .     S
Cu1292 O1311   1.937   .     S
Cu1292 Cu1143  2.690   1_655 S
H1295  C1134   1.083   1_655 S
O1307  C1111   1.293   1_655 S
O1310  C1128   1.298   1_655 S
C1313  H1314   1.082   .     S
C1313  O1315   1.221   .     D
C1316  O1318   1.221   .     D
C1316  H1317   1.080   .     S
C1319  O1321   1.221   .     D
C1319  H1320   1.083   .     S
C1322  O1324   1.219   .     D
C1322  H1323   1.086   .     S
C1325  H1326   1.084   .     S
C1325  O1327   1.221   .     D
C1328  H1329   1.083   .     S
C1328  O1330   1.221   .     D
