data_str_m1_o10_o18_pcu_sym.11
_audit_creation_date              2020-01-03
_audit_creation_method            'Materials Studio'
_symmetry_space_group_name_H-M    'P1'
_symmetry_Int_Tables_number       1
_symmetry_cell_setting            triclinic
loop_
_symmetry_equiv_pos_as_xyz
  x,y,z
_cell_length_a                    32.5571
_cell_length_b                    32.5244
_cell_length_c                    35.7941
_cell_angle_alpha                 98.0402
_cell_angle_beta                  72.9705
_cell_angle_gamma                 98.5414
loop_
_atom_site_label
_atom_site_type_symbol
_atom_site_fract_x
_atom_site_fract_y
_atom_site_fract_z
_atom_site_U_iso_or_equiv
_atom_site_adp_type
_atom_site_occupancy
C1     C     0.05251   0.15998   0.25872   0.00000  Uiso   1.00
C2     C     0.21211   0.14414   0.45816   0.00000  Uiso   1.00
C3     C     0.23425   0.12460   0.47725   0.00000  Uiso   1.00
C4     C     0.28107   0.17358   0.24119   0.00000  Uiso   1.00
C5     C     0.22284   0.12799   0.01892   0.00000  Uiso   1.00
C6     C     0.18945   0.15349   0.04040   0.00000  Uiso   1.00
C7     C     0.24339   0.10760   0.04041   0.00000  Uiso   1.00
C8     C     0.23126   0.11312   0.08134   0.00000  Uiso   1.00
C9     C     0.17693   0.15603   0.08176   0.00000  Uiso   1.00
C10    C     0.32707   0.17618   0.23753   0.00000  Uiso   1.00
C11    C     0.00711   0.15769   0.26221   0.00000  Uiso   1.00
C12    C     0.11090   0.22756   0.41995   0.00000  Uiso   1.00
C13    C     0.18090   0.32217   0.23804   0.00000  Uiso   1.00
C14    C     0.15165   0.01210   0.26214   0.00000  Uiso   1.00
C15    C     0.15598   0.05613   0.25888   0.00000  Uiso   1.00
C16    C     0.17687   0.27768   0.24134   0.00000  Uiso   1.00
C17    C     0.18829   0.14534   0.14412   0.00000  Uiso   1.00
C18    C     0.14552   0.18777   0.35613   0.00000  Uiso   1.00
C19    C     0.13796   0.19755   0.39885   0.00000  Uiso   1.00
C20    C     0.19821   0.13698   0.10170   0.00000  Uiso   1.00
C21    C     0.10481   0.23680   0.46026   0.00000  Uiso   1.00
C22    C     0.27710   0.08081   0.02264   0.00000  Uiso   1.00
C23    C     0.15901   0.17705   0.41845   0.00000  Uiso   1.00
C24    C     0.26878   0.10188   0.45192   0.00000  Uiso   1.00
C25    C     0.15525   0.18724   0.45877   0.00000  Uiso   1.00
C26    C     0.12660   0.21672   0.47987   0.00000  Uiso   1.00
C27    C     0.17855   0.16841   0.47871   0.00000  Uiso   1.00
C28    C     0.16914   0.17554   0.02020   0.00000  Uiso   1.00
C29    C     0.14059   0.20552   0.04008   0.00000  Uiso   1.00
C30    C     0.12018   0.22587   0.02021   0.00000  Uiso   1.00
F31    F     0.07776   0.26554   0.48005   0.00000  Uiso   1.00
H32    H     0.09892   0.24876   0.03679   0.00000  Uiso   1.00
H33    H     0.13436   0.21538   0.07101   0.00000  Uiso   1.00
H34    H     0.22344   0.14131   0.42652   0.00000  Uiso   1.00
H35    H     0.01683   0.19316   0.21467   0.00000  Uiso   1.00
H36    H     0.31799   0.14078   0.28542   0.00000  Uiso   1.00
H37    H     0.20792   0.00277   0.21585   0.00000  Uiso   1.00
H38    H     0.12430   0.33226   0.28445   0.00000  Uiso   1.00
H39    H     0.15054   0.17262   0.09973   0.00000  Uiso   1.00
H40    H     0.24764   0.09868   0.09764   0.00000  Uiso   1.00
H41    H     0.09423   0.24373   0.40533   0.00000  Uiso   1.00
H42    H     0.17737   0.15242   0.40165   0.00000  Uiso   1.00
N43    N     0.30410   0.05924   0.00891   0.00000  Uiso   1.00
N44    N     0.29631   0.08390   0.43121   0.00000  Uiso   1.00
O45    O     0.16667   0.16667   0.25000   0.00000  Uiso   1.00
O46    O     0.15693   0.12393   0.16625   0.00000  Uiso   1.00
O47    O     0.12687   0.20646   0.33749   0.00000  Uiso   1.00
O48    O     0.21088   0.17493   0.15877   0.00000  Uiso   1.00
O49    O     0.17198   0.16135   0.33749   0.00000  Uiso   1.00
O50    O     0.17849   0.08101   0.27820   0.00000  Uiso   1.00
O51    O     0.14581   0.26136   0.26767   0.00000  Uiso   1.00
O52    O     0.07452   0.13251   0.23607   0.00000  Uiso   1.00
O53    O     0.26785   0.19179   0.21805   0.00000  Uiso   1.00
O54    O     0.06990   0.18960   0.27820   0.00000  Uiso   1.00
O55    O     0.25440   0.15277   0.26767   0.00000  Uiso   1.00
O56    O     0.13800   0.06903   0.23607   0.00000  Uiso   1.00
O57    O     0.20437   0.25527   0.21805   0.00000  Uiso   1.00
Zn58   Zn    0.19244   0.14090   0.28277   0.00000  Uiso   1.00
Zn59   Zn    0.13459   0.12378   0.22257   0.00000  Uiso   1.00
Zn60   Zn    0.21166   0.19664   0.21188   0.00000  Uiso   1.00
Zn61   Zn    0.12798   0.20535   0.28277   0.00000  Uiso   1.00
C62    C     0.38585   0.15998   0.25872   0.00000  Uiso   1.00
C63    C     0.54545   0.14414   0.45816   0.00000  Uiso   1.00
C64    C     0.56759   0.12460   0.47725   0.00000  Uiso   1.00
C65    C     0.61440   0.17358   0.24119   0.00000  Uiso   1.00
C66    C     0.55617   0.12799   0.01892   0.00000  Uiso   1.00
C67    C     0.52279   0.15349   0.04040   0.00000  Uiso   1.00
C68    C     0.57672   0.10760   0.04041   0.00000  Uiso   1.00
C69    C     0.56459   0.11312   0.08134   0.00000  Uiso   1.00
C70    C     0.51026   0.15603   0.08176   0.00000  Uiso   1.00
C71    C     0.66041   0.17618   0.23753   0.00000  Uiso   1.00
C72    C     0.34044   0.15769   0.26221   0.00000  Uiso   1.00
C73    C     0.44423   0.22756   0.41995   0.00000  Uiso   1.00
C74    C     0.51423   0.32217   0.23804   0.00000  Uiso   1.00
C75    C     0.48499   0.01210   0.26214   0.00000  Uiso   1.00
C76    C     0.48931   0.05613   0.25888   0.00000  Uiso   1.00
C77    C     0.51021   0.27768   0.24134   0.00000  Uiso   1.00
C78    C     0.52162   0.14534   0.14412   0.00000  Uiso   1.00
C79    C     0.47885   0.18777   0.35613   0.00000  Uiso   1.00
C80    C     0.47129   0.19755   0.39885   0.00000  Uiso   1.00
C81    C     0.53155   0.13698   0.10170   0.00000  Uiso   1.00
C82    C     0.43815   0.23680   0.46026   0.00000  Uiso   1.00
C83    C     0.61043   0.08081   0.02264   0.00000  Uiso   1.00
C84    C     0.49234   0.17705   0.41845   0.00000  Uiso   1.00
C85    C     0.60211   0.10188   0.45192   0.00000  Uiso   1.00
C86    C     0.48858   0.18724   0.45877   0.00000  Uiso   1.00
C87    C     0.45994   0.21672   0.47987   0.00000  Uiso   1.00
C88    C     0.51188   0.16841   0.47871   0.00000  Uiso   1.00
C89    C     0.50248   0.17554   0.02020   0.00000  Uiso   1.00
C90    C     0.47392   0.20552   0.04008   0.00000  Uiso   1.00
C91    C     0.45351   0.22587   0.02021   0.00000  Uiso   1.00
F92    F     0.41109   0.26554   0.48005   0.00000  Uiso   1.00
H93    H     0.43225   0.24876   0.03679   0.00000  Uiso   1.00
H94    H     0.46770   0.21538   0.07101   0.00000  Uiso   1.00
H95    H     0.55678   0.14131   0.42652   0.00000  Uiso   1.00
H96    H     0.35017   0.19316   0.21467   0.00000  Uiso   1.00
H97    H     0.65133   0.14078   0.28542   0.00000  Uiso   1.00
H98    H     0.54125   0.00277   0.21585   0.00000  Uiso   1.00
H99    H     0.45763   0.33226   0.28445   0.00000  Uiso   1.00
H100   H     0.48387   0.17262   0.09973   0.00000  Uiso   1.00
H101   H     0.58097   0.09868   0.09764   0.00000  Uiso   1.00
H102   H     0.42757   0.24373   0.40533   0.00000  Uiso   1.00
H103   H     0.51070   0.15242   0.40165   0.00000  Uiso   1.00
N104   N     0.63744   0.05924   0.00891   0.00000  Uiso   1.00
N105   N     0.62964   0.08390   0.43121   0.00000  Uiso   1.00
O106   O     0.50000   0.16667   0.25000   0.00000  Uiso   1.00
O107   O     0.49027   0.12393   0.16625   0.00000  Uiso   1.00
O108   O     0.46020   0.20646   0.33749   0.00000  Uiso   1.00
O109   O     0.54421   0.17493   0.15877   0.00000  Uiso   1.00
O110   O     0.50532   0.16135   0.33749   0.00000  Uiso   1.00
O111   O     0.51182   0.08101   0.27820   0.00000  Uiso   1.00
O112   O     0.47914   0.26136   0.26767   0.00000  Uiso   1.00
O113   O     0.40785   0.13251   0.23607   0.00000  Uiso   1.00
O114   O     0.60119   0.19179   0.21805   0.00000  Uiso   1.00
O115   O     0.40323   0.18960   0.27820   0.00000  Uiso   1.00
O116   O     0.58773   0.15277   0.26767   0.00000  Uiso   1.00
O117   O     0.47133   0.06903   0.23607   0.00000  Uiso   1.00
O118   O     0.53771   0.25527   0.21805   0.00000  Uiso   1.00
Zn119  Zn    0.52577   0.14090   0.28277   0.00000  Uiso   1.00
Zn120  Zn    0.46792   0.12378   0.22257   0.00000  Uiso   1.00
Zn121  Zn    0.54500   0.19664   0.21188   0.00000  Uiso   1.00
Zn122  Zn    0.46131   0.20535   0.28277   0.00000  Uiso   1.00
C123   C     0.71918   0.15998   0.25872   0.00000  Uiso   1.00
C124   C     0.87878   0.14414   0.45816   0.00000  Uiso   1.00
C125   C     0.90092   0.12460   0.47725   0.00000  Uiso   1.00
C126   C     0.94773   0.17358   0.24119   0.00000  Uiso   1.00
C127   C     0.88951   0.12799   0.01892   0.00000  Uiso   1.00
C128   C     0.85612   0.15349   0.04040   0.00000  Uiso   1.00
C129   C     0.91005   0.10760   0.04041   0.00000  Uiso   1.00
C130   C     0.89792   0.11312   0.08134   0.00000  Uiso   1.00
C131   C     0.84360   0.15603   0.08176   0.00000  Uiso   1.00
C132   C     0.99374   0.17618   0.23753   0.00000  Uiso   1.00
C133   C     0.67378   0.15769   0.26221   0.00000  Uiso   1.00
C134   C     0.77756   0.22756   0.41995   0.00000  Uiso   1.00
C135   C     0.84757   0.32217   0.23804   0.00000  Uiso   1.00
C136   C     0.81832   0.01210   0.26214   0.00000  Uiso   1.00
C137   C     0.82265   0.05613   0.25888   0.00000  Uiso   1.00
C138   C     0.84354   0.27768   0.24134   0.00000  Uiso   1.00
C139   C     0.85495   0.14534   0.14412   0.00000  Uiso   1.00
C140   C     0.81218   0.18777   0.35613   0.00000  Uiso   1.00
C141   C     0.80463   0.19755   0.39885   0.00000  Uiso   1.00
C142   C     0.86488   0.13698   0.10170   0.00000  Uiso   1.00
C143   C     0.77148   0.23680   0.46026   0.00000  Uiso   1.00
C144   C     0.94376   0.08081   0.02264   0.00000  Uiso   1.00
C145   C     0.82567   0.17705   0.41845   0.00000  Uiso   1.00
C146   C     0.93545   0.10188   0.45192   0.00000  Uiso   1.00
C147   C     0.82191   0.18724   0.45877   0.00000  Uiso   1.00
C148   C     0.79327   0.21672   0.47987   0.00000  Uiso   1.00
C149   C     0.84521   0.16841   0.47871   0.00000  Uiso   1.00
C150   C     0.83581   0.17554   0.02020   0.00000  Uiso   1.00
C151   C     0.80725   0.20552   0.04008   0.00000  Uiso   1.00
C152   C     0.78685   0.22587   0.02021   0.00000  Uiso   1.00
F153   F     0.74443   0.26554   0.48005   0.00000  Uiso   1.00
H154   H     0.76558   0.24876   0.03679   0.00000  Uiso   1.00
H155   H     0.80103   0.21538   0.07101   0.00000  Uiso   1.00
H156   H     0.89011   0.14131   0.42652   0.00000  Uiso   1.00
H157   H     0.68350   0.19316   0.21467   0.00000  Uiso   1.00
H158   H     0.98466   0.14078   0.28542   0.00000  Uiso   1.00
H159   H     0.87458   0.00277   0.21585   0.00000  Uiso   1.00
H160   H     0.79096   0.33226   0.28445   0.00000  Uiso   1.00
H161   H     0.81721   0.17262   0.09973   0.00000  Uiso   1.00
H162   H     0.91430   0.09868   0.09764   0.00000  Uiso   1.00
H163   H     0.76090   0.24373   0.40533   0.00000  Uiso   1.00
H164   H     0.84403   0.15242   0.40165   0.00000  Uiso   1.00
N165   N     0.97077   0.05924   0.00891   0.00000  Uiso   1.00
N166   N     0.96297   0.08390   0.43121   0.00000  Uiso   1.00
O167   O     0.83333   0.16667   0.25000   0.00000  Uiso   1.00
O168   O     0.82360   0.12393   0.16625   0.00000  Uiso   1.00
O169   O     0.79354   0.20646   0.33749   0.00000  Uiso   1.00
O170   O     0.87755   0.17493   0.15877   0.00000  Uiso   1.00
O171   O     0.83865   0.16135   0.33749   0.00000  Uiso   1.00
O172   O     0.84515   0.08101   0.27820   0.00000  Uiso   1.00
O173   O     0.81247   0.26136   0.26767   0.00000  Uiso   1.00
O174   O     0.74119   0.13251   0.23607   0.00000  Uiso   1.00
O175   O     0.93452   0.19179   0.21805   0.00000  Uiso   1.00
O176   O     0.73656   0.18960   0.27820   0.00000  Uiso   1.00
O177   O     0.92106   0.15277   0.26767   0.00000  Uiso   1.00
O178   O     0.80467   0.06903   0.23607   0.00000  Uiso   1.00
O179   O     0.87104   0.25527   0.21805   0.00000  Uiso   1.00
Zn180  Zn    0.85910   0.14090   0.28277   0.00000  Uiso   1.00
Zn181  Zn    0.80125   0.12378   0.22257   0.00000  Uiso   1.00
Zn182  Zn    0.87833   0.19664   0.21188   0.00000  Uiso   1.00
Zn183  Zn    0.79465   0.20535   0.28277   0.00000  Uiso   1.00
C184   C     0.05251   0.49332   0.25872   0.00000  Uiso   1.00
C185   C     0.21211   0.47747   0.45816   0.00000  Uiso   1.00
C186   C     0.23425   0.45794   0.47725   0.00000  Uiso   1.00
C187   C     0.28107   0.50691   0.24119   0.00000  Uiso   1.00
C188   C     0.22284   0.46132   0.01892   0.00000  Uiso   1.00
C189   C     0.18945   0.48682   0.04040   0.00000  Uiso   1.00
C190   C     0.24339   0.44094   0.04041   0.00000  Uiso   1.00
C191   C     0.23126   0.44646   0.08134   0.00000  Uiso   1.00
C192   C     0.17693   0.48936   0.08176   0.00000  Uiso   1.00
C193   C     0.32707   0.50951   0.23753   0.00000  Uiso   1.00
C194   C     0.00711   0.49103   0.26221   0.00000  Uiso   1.00
C195   C     0.11090   0.56089   0.41995   0.00000  Uiso   1.00
C196   C     0.18090   0.65550   0.23804   0.00000  Uiso   1.00
C197   C     0.15165   0.34543   0.26214   0.00000  Uiso   1.00
C198   C     0.15598   0.38947   0.25888   0.00000  Uiso   1.00
C199   C     0.17687   0.61101   0.24134   0.00000  Uiso   1.00
C200   C     0.18829   0.47868   0.14412   0.00000  Uiso   1.00
C201   C     0.14552   0.52110   0.35613   0.00000  Uiso   1.00
C202   C     0.13796   0.53088   0.39885   0.00000  Uiso   1.00
C203   C     0.19821   0.47032   0.10170   0.00000  Uiso   1.00
C204   C     0.10481   0.57013   0.46026   0.00000  Uiso   1.00
C205   C     0.27710   0.41414   0.02264   0.00000  Uiso   1.00
C206   C     0.15901   0.51038   0.41845   0.00000  Uiso   1.00
C207   C     0.26878   0.43522   0.45192   0.00000  Uiso   1.00
C208   C     0.15525   0.52058   0.45877   0.00000  Uiso   1.00
C209   C     0.12660   0.55006   0.47987   0.00000  Uiso   1.00
C210   C     0.17855   0.50175   0.47871   0.00000  Uiso   1.00
C211   C     0.16914   0.50887   0.02020   0.00000  Uiso   1.00
C212   C     0.14059   0.53885   0.04008   0.00000  Uiso   1.00
C213   C     0.12018   0.55921   0.02021   0.00000  Uiso   1.00
F214   F     0.07776   0.59887   0.48005   0.00000  Uiso   1.00
H215   H     0.09892   0.58209   0.03679   0.00000  Uiso   1.00
H216   H     0.13436   0.54872   0.07101   0.00000  Uiso   1.00
H217   H     0.22344   0.47465   0.42652   0.00000  Uiso   1.00
H218   H     0.01683   0.52649   0.21467   0.00000  Uiso   1.00
H219   H     0.31799   0.47411   0.28542   0.00000  Uiso   1.00
H220   H     0.20792   0.33611   0.21585   0.00000  Uiso   1.00
H221   H     0.12430   0.66560   0.28445   0.00000  Uiso   1.00
H222   H     0.15054   0.50596   0.09973   0.00000  Uiso   1.00
H223   H     0.24764   0.43201   0.09764   0.00000  Uiso   1.00
H224   H     0.09423   0.57707   0.40533   0.00000  Uiso   1.00
H225   H     0.17737   0.48575   0.40165   0.00000  Uiso   1.00
N226   N     0.30410   0.39257   0.00891   0.00000  Uiso   1.00
N227   N     0.29631   0.41723   0.43121   0.00000  Uiso   1.00
O228   O     0.16667   0.50000   0.25000   0.00000  Uiso   1.00
O229   O     0.15693   0.45726   0.16625   0.00000  Uiso   1.00
O230   O     0.12687   0.53979   0.33749   0.00000  Uiso   1.00
O231   O     0.21088   0.50826   0.15877   0.00000  Uiso   1.00
O232   O     0.17198   0.49468   0.33749   0.00000  Uiso   1.00
O233   O     0.17849   0.41434   0.27820   0.00000  Uiso   1.00
O234   O     0.14581   0.59469   0.26767   0.00000  Uiso   1.00
O235   O     0.07452   0.46584   0.23607   0.00000  Uiso   1.00
O236   O     0.26785   0.52512   0.21805   0.00000  Uiso   1.00
O237   O     0.06990   0.52293   0.27820   0.00000  Uiso   1.00
O238   O     0.25440   0.48610   0.26767   0.00000  Uiso   1.00
O239   O     0.13800   0.40236   0.23607   0.00000  Uiso   1.00
O240   O     0.20437   0.58860   0.21805   0.00000  Uiso   1.00
Zn241  Zn    0.19244   0.47423   0.28277   0.00000  Uiso   1.00
Zn242  Zn    0.13459   0.45711   0.22257   0.00000  Uiso   1.00
Zn243  Zn    0.21166   0.52997   0.21188   0.00000  Uiso   1.00
Zn244  Zn    0.12798   0.53868   0.28277   0.00000  Uiso   1.00
C245   C     0.38585   0.49332   0.25872   0.00000  Uiso   1.00
C246   C     0.54545   0.47747   0.45816   0.00000  Uiso   1.00
C247   C     0.56759   0.45794   0.47725   0.00000  Uiso   1.00
C248   C     0.61440   0.50691   0.24119   0.00000  Uiso   1.00
C249   C     0.55617   0.46132   0.01892   0.00000  Uiso   1.00
C250   C     0.52279   0.48682   0.04040   0.00000  Uiso   1.00
C251   C     0.57672   0.44094   0.04041   0.00000  Uiso   1.00
C252   C     0.56459   0.44646   0.08134   0.00000  Uiso   1.00
C253   C     0.51026   0.48936   0.08176   0.00000  Uiso   1.00
C254   C     0.66041   0.50951   0.23753   0.00000  Uiso   1.00
C255   C     0.34044   0.49103   0.26221   0.00000  Uiso   1.00
C256   C     0.44423   0.56089   0.41995   0.00000  Uiso   1.00
C257   C     0.51423   0.65550   0.23804   0.00000  Uiso   1.00
C258   C     0.48499   0.34543   0.26214   0.00000  Uiso   1.00
C259   C     0.48931   0.38947   0.25888   0.00000  Uiso   1.00
C260   C     0.51021   0.61101   0.24134   0.00000  Uiso   1.00
C261   C     0.52162   0.47868   0.14412   0.00000  Uiso   1.00
C262   C     0.47885   0.52110   0.35613   0.00000  Uiso   1.00
C263   C     0.47129   0.53088   0.39885   0.00000  Uiso   1.00
C264   C     0.53155   0.47032   0.10170   0.00000  Uiso   1.00
C265   C     0.43815   0.57013   0.46026   0.00000  Uiso   1.00
C266   C     0.61043   0.41414   0.02264   0.00000  Uiso   1.00
C267   C     0.49234   0.51038   0.41845   0.00000  Uiso   1.00
C268   C     0.60211   0.43522   0.45192   0.00000  Uiso   1.00
C269   C     0.48858   0.52058   0.45877   0.00000  Uiso   1.00
C270   C     0.45994   0.55006   0.47987   0.00000  Uiso   1.00
C271   C     0.51188   0.50175   0.47871   0.00000  Uiso   1.00
C272   C     0.50248   0.50887   0.02020   0.00000  Uiso   1.00
C273   C     0.47392   0.53885   0.04008   0.00000  Uiso   1.00
C274   C     0.45351   0.55921   0.02021   0.00000  Uiso   1.00
F275   F     0.41109   0.59887   0.48005   0.00000  Uiso   1.00
H276   H     0.43225   0.58209   0.03679   0.00000  Uiso   1.00
H277   H     0.46770   0.54872   0.07101   0.00000  Uiso   1.00
H278   H     0.55678   0.47465   0.42652   0.00000  Uiso   1.00
H279   H     0.35017   0.52649   0.21467   0.00000  Uiso   1.00
H280   H     0.65133   0.47411   0.28542   0.00000  Uiso   1.00
H281   H     0.54125   0.33611   0.21585   0.00000  Uiso   1.00
H282   H     0.45763   0.66560   0.28445   0.00000  Uiso   1.00
H283   H     0.48387   0.50596   0.09973   0.00000  Uiso   1.00
H284   H     0.58097   0.43201   0.09764   0.00000  Uiso   1.00
H285   H     0.42757   0.57707   0.40533   0.00000  Uiso   1.00
H286   H     0.51070   0.48575   0.40165   0.00000  Uiso   1.00
N287   N     0.63744   0.39257   0.00891   0.00000  Uiso   1.00
N288   N     0.62964   0.41723   0.43121   0.00000  Uiso   1.00
O289   O     0.50000   0.50000   0.25000   0.00000  Uiso   1.00
O290   O     0.49027   0.45726   0.16625   0.00000  Uiso   1.00
O291   O     0.46020   0.53979   0.33749   0.00000  Uiso   1.00
O292   O     0.54421   0.50826   0.15877   0.00000  Uiso   1.00
O293   O     0.50532   0.49468   0.33749   0.00000  Uiso   1.00
O294   O     0.51182   0.41434   0.27820   0.00000  Uiso   1.00
O295   O     0.47914   0.59469   0.26767   0.00000  Uiso   1.00
O296   O     0.40785   0.46584   0.23607   0.00000  Uiso   1.00
O297   O     0.60119   0.52512   0.21805   0.00000  Uiso   1.00
O298   O     0.40323   0.52293   0.27820   0.00000  Uiso   1.00
O299   O     0.58773   0.48610   0.26767   0.00000  Uiso   1.00
O300   O     0.47133   0.40236   0.23607   0.00000  Uiso   1.00
O301   O     0.53771   0.58860   0.21805   0.00000  Uiso   1.00
Zn302  Zn    0.52577   0.47423   0.28277   0.00000  Uiso   1.00
Zn303  Zn    0.46792   0.45711   0.22257   0.00000  Uiso   1.00
Zn304  Zn    0.54500   0.52997   0.21188   0.00000  Uiso   1.00
Zn305  Zn    0.46131   0.53868   0.28277   0.00000  Uiso   1.00
C306   C     0.71918   0.49332   0.25872   0.00000  Uiso   1.00
C307   C     0.87878   0.47747   0.45816   0.00000  Uiso   1.00
C308   C     0.90092   0.45794   0.47725   0.00000  Uiso   1.00
C309   C     0.94773   0.50691   0.24119   0.00000  Uiso   1.00
C310   C     0.88951   0.46132   0.01892   0.00000  Uiso   1.00
C311   C     0.85612   0.48682   0.04040   0.00000  Uiso   1.00
C312   C     0.91005   0.44094   0.04041   0.00000  Uiso   1.00
C313   C     0.89792   0.44646   0.08134   0.00000  Uiso   1.00
C314   C     0.84360   0.48936   0.08176   0.00000  Uiso   1.00
C315   C     0.99374   0.50951   0.23753   0.00000  Uiso   1.00
C316   C     0.67378   0.49103   0.26221   0.00000  Uiso   1.00
C317   C     0.77756   0.56089   0.41995   0.00000  Uiso   1.00
C318   C     0.84757   0.65550   0.23804   0.00000  Uiso   1.00
C319   C     0.81832   0.34543   0.26214   0.00000  Uiso   1.00
C320   C     0.82265   0.38947   0.25888   0.00000  Uiso   1.00
C321   C     0.84354   0.61101   0.24134   0.00000  Uiso   1.00
C322   C     0.85495   0.47868   0.14412   0.00000  Uiso   1.00
C323   C     0.81218   0.52110   0.35613   0.00000  Uiso   1.00
C324   C     0.80463   0.53088   0.39885   0.00000  Uiso   1.00
C325   C     0.86488   0.47032   0.10170   0.00000  Uiso   1.00
C326   C     0.77148   0.57013   0.46026   0.00000  Uiso   1.00
C327   C     0.94376   0.41414   0.02264   0.00000  Uiso   1.00
C328   C     0.82567   0.51038   0.41845   0.00000  Uiso   1.00
C329   C     0.93545   0.43522   0.45192   0.00000  Uiso   1.00
C330   C     0.82191   0.52058   0.45877   0.00000  Uiso   1.00
C331   C     0.79327   0.55006   0.47987   0.00000  Uiso   1.00
C332   C     0.84521   0.50175   0.47871   0.00000  Uiso   1.00
C333   C     0.83581   0.50887   0.02020   0.00000  Uiso   1.00
C334   C     0.80725   0.53885   0.04008   0.00000  Uiso   1.00
C335   C     0.78685   0.55921   0.02021   0.00000  Uiso   1.00
F336   F     0.74443   0.59887   0.48005   0.00000  Uiso   1.00
H337   H     0.76558   0.58209   0.03679   0.00000  Uiso   1.00
H338   H     0.80103   0.54872   0.07101   0.00000  Uiso   1.00
H339   H     0.89011   0.47465   0.42652   0.00000  Uiso   1.00
H340   H     0.68350   0.52649   0.21467   0.00000  Uiso   1.00
H341   H     0.98466   0.47411   0.28542   0.00000  Uiso   1.00
H342   H     0.87458   0.33611   0.21585   0.00000  Uiso   1.00
H343   H     0.79096   0.66560   0.28445   0.00000  Uiso   1.00
H344   H     0.81721   0.50596   0.09973   0.00000  Uiso   1.00
H345   H     0.91430   0.43201   0.09764   0.00000  Uiso   1.00
H346   H     0.76090   0.57707   0.40533   0.00000  Uiso   1.00
H347   H     0.84403   0.48575   0.40165   0.00000  Uiso   1.00
N348   N     0.97077   0.39257   0.00891   0.00000  Uiso   1.00
N349   N     0.96297   0.41723   0.43121   0.00000  Uiso   1.00
O350   O     0.83333   0.50000   0.25000   0.00000  Uiso   1.00
O351   O     0.82360   0.45726   0.16625   0.00000  Uiso   1.00
O352   O     0.79354   0.53979   0.33749   0.00000  Uiso   1.00
O353   O     0.87755   0.50826   0.15877   0.00000  Uiso   1.00
O354   O     0.83865   0.49468   0.33749   0.00000  Uiso   1.00
O355   O     0.84515   0.41434   0.27820   0.00000  Uiso   1.00
O356   O     0.81247   0.59469   0.26767   0.00000  Uiso   1.00
O357   O     0.74119   0.46584   0.23607   0.00000  Uiso   1.00
O358   O     0.93452   0.52512   0.21805   0.00000  Uiso   1.00
O359   O     0.73656   0.52293   0.27820   0.00000  Uiso   1.00
O360   O     0.92106   0.48610   0.26767   0.00000  Uiso   1.00
O361   O     0.80467   0.40236   0.23607   0.00000  Uiso   1.00
O362   O     0.87104   0.58860   0.21805   0.00000  Uiso   1.00
Zn363  Zn    0.85910   0.47423   0.28277   0.00000  Uiso   1.00
Zn364  Zn    0.80125   0.45711   0.22257   0.00000  Uiso   1.00
Zn365  Zn    0.87833   0.52997   0.21188   0.00000  Uiso   1.00
Zn366  Zn    0.79465   0.53868   0.28277   0.00000  Uiso   1.00
C367   C     0.05251   0.82665   0.25872   0.00000  Uiso   1.00
C368   C     0.21211   0.81081   0.45816   0.00000  Uiso   1.00
C369   C     0.23425   0.79127   0.47725   0.00000  Uiso   1.00
C370   C     0.28107   0.84024   0.24119   0.00000  Uiso   1.00
C371   C     0.22284   0.79466   0.01892   0.00000  Uiso   1.00
C372   C     0.18945   0.82015   0.04040   0.00000  Uiso   1.00
C373   C     0.24339   0.77427   0.04041   0.00000  Uiso   1.00
C374   C     0.23126   0.77979   0.08134   0.00000  Uiso   1.00
C375   C     0.17693   0.82269   0.08176   0.00000  Uiso   1.00
C376   C     0.32707   0.84285   0.23753   0.00000  Uiso   1.00
C377   C     0.00711   0.82436   0.26221   0.00000  Uiso   1.00
C378   C     0.11090   0.89423   0.41995   0.00000  Uiso   1.00
C379   C     0.18090   0.98883   0.23804   0.00000  Uiso   1.00
C380   C     0.15165   0.67877   0.26214   0.00000  Uiso   1.00
C381   C     0.15598   0.72280   0.25888   0.00000  Uiso   1.00
C382   C     0.17687   0.94434   0.24134   0.00000  Uiso   1.00
C383   C     0.18829   0.81201   0.14412   0.00000  Uiso   1.00
C384   C     0.14552   0.85444   0.35613   0.00000  Uiso   1.00
C385   C     0.13796   0.86422   0.39885   0.00000  Uiso   1.00
C386   C     0.19821   0.80365   0.10170   0.00000  Uiso   1.00
C387   C     0.10481   0.90346   0.46026   0.00000  Uiso   1.00
C388   C     0.27710   0.74747   0.02264   0.00000  Uiso   1.00
C389   C     0.15901   0.84372   0.41845   0.00000  Uiso   1.00
C390   C     0.26878   0.76855   0.45192   0.00000  Uiso   1.00
C391   C     0.15525   0.85391   0.45877   0.00000  Uiso   1.00
C392   C     0.12660   0.88339   0.47987   0.00000  Uiso   1.00
C393   C     0.17855   0.83508   0.47871   0.00000  Uiso   1.00
C394   C     0.16914   0.84220   0.02020   0.00000  Uiso   1.00
C395   C     0.14059   0.87219   0.04008   0.00000  Uiso   1.00
C396   C     0.12018   0.89254   0.02021   0.00000  Uiso   1.00
F397   F     0.07776   0.93221   0.48005   0.00000  Uiso   1.00
H398   H     0.09892   0.91543   0.03679   0.00000  Uiso   1.00
H399   H     0.13436   0.88205   0.07101   0.00000  Uiso   1.00
H400   H     0.22344   0.80798   0.42652   0.00000  Uiso   1.00
H401   H     0.01683   0.85983   0.21467   0.00000  Uiso   1.00
H402   H     0.31799   0.80745   0.28542   0.00000  Uiso   1.00
H403   H     0.20792   0.66944   0.21585   0.00000  Uiso   1.00
H404   H     0.12430   0.99893   0.28445   0.00000  Uiso   1.00
H405   H     0.15054   0.83929   0.09973   0.00000  Uiso   1.00
H406   H     0.24764   0.76535   0.09764   0.00000  Uiso   1.00
H407   H     0.09423   0.91040   0.40533   0.00000  Uiso   1.00
H408   H     0.17737   0.81908   0.40165   0.00000  Uiso   1.00
N409   N     0.30410   0.72591   0.00891   0.00000  Uiso   1.00
N410   N     0.29631   0.75056   0.43121   0.00000  Uiso   1.00
O411   O     0.16667   0.83333   0.25000   0.00000  Uiso   1.00
O412   O     0.15693   0.79060   0.16625   0.00000  Uiso   1.00
O413   O     0.12687   0.87313   0.33749   0.00000  Uiso   1.00
O414   O     0.21088   0.84159   0.15877   0.00000  Uiso   1.00
O415   O     0.17198   0.82802   0.33749   0.00000  Uiso   1.00
O416   O     0.17849   0.74768   0.27820   0.00000  Uiso   1.00
O417   O     0.14581   0.92803   0.26767   0.00000  Uiso   1.00
O418   O     0.07452   0.79917   0.23607   0.00000  Uiso   1.00
O419   O     0.26785   0.85845   0.21805   0.00000  Uiso   1.00
O420   O     0.06990   0.85627   0.27820   0.00000  Uiso   1.00
O421   O     0.25440   0.81944   0.26767   0.00000  Uiso   1.00
O422   O     0.13800   0.73570   0.23607   0.00000  Uiso   1.00
O423   O     0.20437   0.92193   0.21805   0.00000  Uiso   1.00
Zn424  Zn    0.19244   0.80756   0.28277   0.00000  Uiso   1.00
Zn425  Zn    0.13459   0.79044   0.22257   0.00000  Uiso   1.00
Zn426  Zn    0.21166   0.86331   0.21188   0.00000  Uiso   1.00
Zn427  Zn    0.12798   0.87202   0.28277   0.00000  Uiso   1.00
C428   C     0.38585   0.82665   0.25872   0.00000  Uiso   1.00
C429   C     0.54545   0.81081   0.45816   0.00000  Uiso   1.00
C430   C     0.56759   0.79127   0.47725   0.00000  Uiso   1.00
C431   C     0.61440   0.84024   0.24119   0.00000  Uiso   1.00
C432   C     0.55617   0.79466   0.01892   0.00000  Uiso   1.00
C433   C     0.52279   0.82015   0.04040   0.00000  Uiso   1.00
C434   C     0.57672   0.77427   0.04041   0.00000  Uiso   1.00
C435   C     0.56459   0.77979   0.08134   0.00000  Uiso   1.00
C436   C     0.51026   0.82269   0.08176   0.00000  Uiso   1.00
C437   C     0.66041   0.84285   0.23753   0.00000  Uiso   1.00
C438   C     0.34044   0.82436   0.26221   0.00000  Uiso   1.00
C439   C     0.44423   0.89423   0.41995   0.00000  Uiso   1.00
C440   C     0.51423   0.98883   0.23804   0.00000  Uiso   1.00
C441   C     0.48499   0.67877   0.26214   0.00000  Uiso   1.00
C442   C     0.48931   0.72280   0.25888   0.00000  Uiso   1.00
C443   C     0.51021   0.94434   0.24134   0.00000  Uiso   1.00
C444   C     0.52162   0.81201   0.14412   0.00000  Uiso   1.00
C445   C     0.47885   0.85444   0.35613   0.00000  Uiso   1.00
C446   C     0.47129   0.86422   0.39885   0.00000  Uiso   1.00
C447   C     0.53155   0.80365   0.10170   0.00000  Uiso   1.00
C448   C     0.43815   0.90346   0.46026   0.00000  Uiso   1.00
C449   C     0.61043   0.74747   0.02264   0.00000  Uiso   1.00
C450   C     0.49234   0.84372   0.41845   0.00000  Uiso   1.00
C451   C     0.60211   0.76855   0.45192   0.00000  Uiso   1.00
C452   C     0.48858   0.85391   0.45877   0.00000  Uiso   1.00
C453   C     0.45994   0.88339   0.47987   0.00000  Uiso   1.00
C454   C     0.51188   0.83508   0.47871   0.00000  Uiso   1.00
C455   C     0.50248   0.84220   0.02020   0.00000  Uiso   1.00
C456   C     0.47392   0.87219   0.04008   0.00000  Uiso   1.00
C457   C     0.45351   0.89254   0.02021   0.00000  Uiso   1.00
F458   F     0.41109   0.93221   0.48005   0.00000  Uiso   1.00
H459   H     0.43225   0.91543   0.03679   0.00000  Uiso   1.00
H460   H     0.46770   0.88205   0.07101   0.00000  Uiso   1.00
H461   H     0.55678   0.80798   0.42652   0.00000  Uiso   1.00
H462   H     0.35017   0.85983   0.21467   0.00000  Uiso   1.00
H463   H     0.65133   0.80745   0.28542   0.00000  Uiso   1.00
H464   H     0.54125   0.66944   0.21585   0.00000  Uiso   1.00
H465   H     0.45763   0.99893   0.28445   0.00000  Uiso   1.00
H466   H     0.48387   0.83929   0.09973   0.00000  Uiso   1.00
H467   H     0.58097   0.76535   0.09764   0.00000  Uiso   1.00
H468   H     0.42757   0.91040   0.40533   0.00000  Uiso   1.00
H469   H     0.51070   0.81908   0.40165   0.00000  Uiso   1.00
N470   N     0.63744   0.72591   0.00891   0.00000  Uiso   1.00
N471   N     0.62964   0.75056   0.43121   0.00000  Uiso   1.00
O472   O     0.50000   0.83333   0.25000   0.00000  Uiso   1.00
O473   O     0.49027   0.79060   0.16625   0.00000  Uiso   1.00
O474   O     0.46020   0.87313   0.33749   0.00000  Uiso   1.00
O475   O     0.54421   0.84159   0.15877   0.00000  Uiso   1.00
O476   O     0.50532   0.82802   0.33749   0.00000  Uiso   1.00
O477   O     0.51182   0.74768   0.27820   0.00000  Uiso   1.00
O478   O     0.47914   0.92803   0.26767   0.00000  Uiso   1.00
O479   O     0.40785   0.79917   0.23607   0.00000  Uiso   1.00
O480   O     0.60119   0.85845   0.21805   0.00000  Uiso   1.00
O481   O     0.40323   0.85627   0.27820   0.00000  Uiso   1.00
O482   O     0.58773   0.81944   0.26767   0.00000  Uiso   1.00
O483   O     0.47133   0.73570   0.23607   0.00000  Uiso   1.00
O484   O     0.53771   0.92193   0.21805   0.00000  Uiso   1.00
Zn485  Zn    0.52577   0.80756   0.28277   0.00000  Uiso   1.00
Zn486  Zn    0.46792   0.79044   0.22257   0.00000  Uiso   1.00
Zn487  Zn    0.54500   0.86331   0.21188   0.00000  Uiso   1.00
Zn488  Zn    0.46131   0.87202   0.28277   0.00000  Uiso   1.00
C489   C     0.71918   0.82665   0.25872   0.00000  Uiso   1.00
C490   C     0.87878   0.81081   0.45816   0.00000  Uiso   1.00
C491   C     0.90092   0.79127   0.47725   0.00000  Uiso   1.00
C492   C     0.94773   0.84024   0.24119   0.00000  Uiso   1.00
C493   C     0.88951   0.79466   0.01892   0.00000  Uiso   1.00
C494   C     0.85612   0.82015   0.04040   0.00000  Uiso   1.00
C495   C     0.91005   0.77427   0.04041   0.00000  Uiso   1.00
C496   C     0.89792   0.77979   0.08134   0.00000  Uiso   1.00
C497   C     0.84360   0.82269   0.08176   0.00000  Uiso   1.00
C498   C     0.99374   0.84285   0.23753   0.00000  Uiso   1.00
C499   C     0.67378   0.82436   0.26221   0.00000  Uiso   1.00
C500   C     0.77756   0.89423   0.41995   0.00000  Uiso   1.00
C501   C     0.84757   0.98883   0.23804   0.00000  Uiso   1.00
C502   C     0.81832   0.67877   0.26214   0.00000  Uiso   1.00
C503   C     0.82265   0.72280   0.25888   0.00000  Uiso   1.00
C504   C     0.84354   0.94434   0.24134   0.00000  Uiso   1.00
C505   C     0.85495   0.81201   0.14412   0.00000  Uiso   1.00
C506   C     0.81218   0.85444   0.35613   0.00000  Uiso   1.00
C507   C     0.80463   0.86422   0.39885   0.00000  Uiso   1.00
C508   C     0.86488   0.80365   0.10170   0.00000  Uiso   1.00
C509   C     0.77148   0.90346   0.46026   0.00000  Uiso   1.00
C510   C     0.94376   0.74747   0.02264   0.00000  Uiso   1.00
C511   C     0.82567   0.84372   0.41845   0.00000  Uiso   1.00
C512   C     0.93545   0.76855   0.45192   0.00000  Uiso   1.00
C513   C     0.82191   0.85391   0.45877   0.00000  Uiso   1.00
C514   C     0.79327   0.88339   0.47987   0.00000  Uiso   1.00
C515   C     0.84521   0.83508   0.47871   0.00000  Uiso   1.00
C516   C     0.83581   0.84220   0.02020   0.00000  Uiso   1.00
C517   C     0.80725   0.87219   0.04008   0.00000  Uiso   1.00
C518   C     0.78685   0.89254   0.02021   0.00000  Uiso   1.00
F519   F     0.74443   0.93221   0.48005   0.00000  Uiso   1.00
H520   H     0.76558   0.91543   0.03679   0.00000  Uiso   1.00
H521   H     0.80103   0.88205   0.07101   0.00000  Uiso   1.00
H522   H     0.89011   0.80798   0.42652   0.00000  Uiso   1.00
H523   H     0.68350   0.85983   0.21467   0.00000  Uiso   1.00
H524   H     0.98466   0.80745   0.28542   0.00000  Uiso   1.00
H525   H     0.87458   0.66944   0.21585   0.00000  Uiso   1.00
H526   H     0.79096   0.99893   0.28445   0.00000  Uiso   1.00
H527   H     0.81721   0.83929   0.09973   0.00000  Uiso   1.00
H528   H     0.91430   0.76535   0.09764   0.00000  Uiso   1.00
H529   H     0.76090   0.91040   0.40533   0.00000  Uiso   1.00
H530   H     0.84403   0.81908   0.40165   0.00000  Uiso   1.00
N531   N     0.97077   0.72591   0.00891   0.00000  Uiso   1.00
N532   N     0.96297   0.75056   0.43121   0.00000  Uiso   1.00
O533   O     0.83333   0.83333   0.25000   0.00000  Uiso   1.00
O534   O     0.82360   0.79060   0.16625   0.00000  Uiso   1.00
O535   O     0.79354   0.87313   0.33749   0.00000  Uiso   1.00
O536   O     0.87755   0.84159   0.15877   0.00000  Uiso   1.00
O537   O     0.83865   0.82802   0.33749   0.00000  Uiso   1.00
O538   O     0.84515   0.74768   0.27820   0.00000  Uiso   1.00
O539   O     0.81247   0.92803   0.26767   0.00000  Uiso   1.00
O540   O     0.74119   0.79917   0.23607   0.00000  Uiso   1.00
O541   O     0.93452   0.85845   0.21805   0.00000  Uiso   1.00
O542   O     0.73656   0.85627   0.27820   0.00000  Uiso   1.00
O543   O     0.92106   0.81944   0.26767   0.00000  Uiso   1.00
O544   O     0.80467   0.73570   0.23607   0.00000  Uiso   1.00
O545   O     0.87104   0.92193   0.21805   0.00000  Uiso   1.00
Zn546  Zn    0.85910   0.80756   0.28277   0.00000  Uiso   1.00
Zn547  Zn    0.80125   0.79044   0.22257   0.00000  Uiso   1.00
Zn548  Zn    0.87833   0.86331   0.21188   0.00000  Uiso   1.00
Zn549  Zn    0.79465   0.87202   0.28277   0.00000  Uiso   1.00
C550   C     0.05251   0.15998   0.75872   0.00000  Uiso   1.00
C551   C     0.21211   0.14414   0.95816   0.00000  Uiso   1.00
C552   C     0.23425   0.12460   0.97725   0.00000  Uiso   1.00
C553   C     0.28107   0.17358   0.74119   0.00000  Uiso   1.00
C554   C     0.22284   0.12799   0.51892   0.00000  Uiso   1.00
C555   C     0.18945   0.15349   0.54040   0.00000  Uiso   1.00
C556   C     0.24339   0.10760   0.54041   0.00000  Uiso   1.00
C557   C     0.23126   0.11312   0.58134   0.00000  Uiso   1.00
C558   C     0.17693   0.15603   0.58176   0.00000  Uiso   1.00
C559   C     0.32707   0.17618   0.73753   0.00000  Uiso   1.00
C560   C     0.00711   0.15769   0.76221   0.00000  Uiso   1.00
C561   C     0.11090   0.22756   0.91995   0.00000  Uiso   1.00
C562   C     0.18090   0.32217   0.73804   0.00000  Uiso   1.00
C563   C     0.15165   0.01210   0.76214   0.00000  Uiso   1.00
C564   C     0.15598   0.05613   0.75888   0.00000  Uiso   1.00
C565   C     0.17687   0.27768   0.74134   0.00000  Uiso   1.00
C566   C     0.18829   0.14534   0.64412   0.00000  Uiso   1.00
C567   C     0.14552   0.18777   0.85613   0.00000  Uiso   1.00
C568   C     0.13796   0.19755   0.89885   0.00000  Uiso   1.00
C569   C     0.19821   0.13698   0.60170   0.00000  Uiso   1.00
C570   C     0.10481   0.23680   0.96026   0.00000  Uiso   1.00
C571   C     0.27710   0.08081   0.52264   0.00000  Uiso   1.00
C572   C     0.15901   0.17705   0.91845   0.00000  Uiso   1.00
C573   C     0.26878   0.10188   0.95192   0.00000  Uiso   1.00
C574   C     0.15525   0.18724   0.95877   0.00000  Uiso   1.00
C575   C     0.12660   0.21672   0.97987   0.00000  Uiso   1.00
C576   C     0.17855   0.16841   0.97871   0.00000  Uiso   1.00
C577   C     0.16914   0.17554   0.52020   0.00000  Uiso   1.00
C578   C     0.14059   0.20552   0.54008   0.00000  Uiso   1.00
C579   C     0.12018   0.22587   0.52021   0.00000  Uiso   1.00
F580   F     0.07776   0.26554   0.98005   0.00000  Uiso   1.00
H581   H     0.09892   0.24876   0.53679   0.00000  Uiso   1.00
H582   H     0.13436   0.21538   0.57101   0.00000  Uiso   1.00
H583   H     0.22344   0.14131   0.92652   0.00000  Uiso   1.00
H584   H     0.01683   0.19316   0.71467   0.00000  Uiso   1.00
H585   H     0.31799   0.14078   0.78542   0.00000  Uiso   1.00
H586   H     0.20792   0.00277   0.71585   0.00000  Uiso   1.00
H587   H     0.12430   0.33226   0.78445   0.00000  Uiso   1.00
H588   H     0.15054   0.17262   0.59973   0.00000  Uiso   1.00
H589   H     0.24764   0.09868   0.59764   0.00000  Uiso   1.00
H590   H     0.09423   0.24373   0.90533   0.00000  Uiso   1.00
H591   H     0.17737   0.15242   0.90165   0.00000  Uiso   1.00
N592   N     0.30410   0.05924   0.50891   0.00000  Uiso   1.00
N593   N     0.29631   0.08390   0.93121   0.00000  Uiso   1.00
O594   O     0.16667   0.16667   0.75000   0.00000  Uiso   1.00
O595   O     0.15693   0.12393   0.66625   0.00000  Uiso   1.00
O596   O     0.12687   0.20646   0.83749   0.00000  Uiso   1.00
O597   O     0.21088   0.17493   0.65877   0.00000  Uiso   1.00
O598   O     0.17198   0.16135   0.83749   0.00000  Uiso   1.00
O599   O     0.17849   0.08101   0.77820   0.00000  Uiso   1.00
O600   O     0.14581   0.26136   0.76767   0.00000  Uiso   1.00
O601   O     0.07452   0.13251   0.73607   0.00000  Uiso   1.00
O602   O     0.26785   0.19179   0.71805   0.00000  Uiso   1.00
O603   O     0.06990   0.18960   0.77820   0.00000  Uiso   1.00
O604   O     0.25440   0.15277   0.76767   0.00000  Uiso   1.00
O605   O     0.13800   0.06903   0.73607   0.00000  Uiso   1.00
O606   O     0.20437   0.25527   0.71805   0.00000  Uiso   1.00
Zn607  Zn    0.19244   0.14090   0.78277   0.00000  Uiso   1.00
Zn608  Zn    0.13459   0.12378   0.72257   0.00000  Uiso   1.00
Zn609  Zn    0.21166   0.19664   0.71188   0.00000  Uiso   1.00
Zn610  Zn    0.12798   0.20535   0.78277   0.00000  Uiso   1.00
C611   C     0.38585   0.15998   0.75872   0.00000  Uiso   1.00
C612   C     0.54545   0.14414   0.95816   0.00000  Uiso   1.00
C613   C     0.56759   0.12460   0.97725   0.00000  Uiso   1.00
C614   C     0.61440   0.17358   0.74119   0.00000  Uiso   1.00
C615   C     0.55617   0.12799   0.51892   0.00000  Uiso   1.00
C616   C     0.52279   0.15349   0.54040   0.00000  Uiso   1.00
C617   C     0.57672   0.10760   0.54041   0.00000  Uiso   1.00
C618   C     0.56459   0.11312   0.58134   0.00000  Uiso   1.00
C619   C     0.51026   0.15603   0.58176   0.00000  Uiso   1.00
C620   C     0.66041   0.17618   0.73753   0.00000  Uiso   1.00
C621   C     0.34044   0.15769   0.76221   0.00000  Uiso   1.00
C622   C     0.44423   0.22756   0.91995   0.00000  Uiso   1.00
C623   C     0.51423   0.32217   0.73804   0.00000  Uiso   1.00
C624   C     0.48499   0.01210   0.76214   0.00000  Uiso   1.00
C625   C     0.48931   0.05613   0.75888   0.00000  Uiso   1.00
C626   C     0.51021   0.27768   0.74134   0.00000  Uiso   1.00
C627   C     0.52162   0.14534   0.64412   0.00000  Uiso   1.00
C628   C     0.47885   0.18777   0.85613   0.00000  Uiso   1.00
C629   C     0.47129   0.19755   0.89885   0.00000  Uiso   1.00
C630   C     0.53155   0.13698   0.60170   0.00000  Uiso   1.00
C631   C     0.43815   0.23680   0.96026   0.00000  Uiso   1.00
C632   C     0.61043   0.08081   0.52264   0.00000  Uiso   1.00
C633   C     0.49234   0.17705   0.91845   0.00000  Uiso   1.00
C634   C     0.60211   0.10188   0.95192   0.00000  Uiso   1.00
C635   C     0.48858   0.18724   0.95877   0.00000  Uiso   1.00
C636   C     0.45994   0.21672   0.97987   0.00000  Uiso   1.00
C637   C     0.51188   0.16841   0.97871   0.00000  Uiso   1.00
C638   C     0.50248   0.17554   0.52020   0.00000  Uiso   1.00
C639   C     0.47392   0.20552   0.54008   0.00000  Uiso   1.00
C640   C     0.45351   0.22587   0.52021   0.00000  Uiso   1.00
F641   F     0.41109   0.26554   0.98005   0.00000  Uiso   1.00
H642   H     0.43225   0.24876   0.53679   0.00000  Uiso   1.00
H643   H     0.46770   0.21538   0.57101   0.00000  Uiso   1.00
H644   H     0.55678   0.14131   0.92652   0.00000  Uiso   1.00
H645   H     0.35017   0.19316   0.71467   0.00000  Uiso   1.00
H646   H     0.65133   0.14078   0.78542   0.00000  Uiso   1.00
H647   H     0.54125   0.00277   0.71585   0.00000  Uiso   1.00
H648   H     0.45763   0.33226   0.78445   0.00000  Uiso   1.00
H649   H     0.48387   0.17262   0.59973   0.00000  Uiso   1.00
H650   H     0.58097   0.09868   0.59764   0.00000  Uiso   1.00
H651   H     0.42757   0.24373   0.90533   0.00000  Uiso   1.00
H652   H     0.51070   0.15242   0.90165   0.00000  Uiso   1.00
N653   N     0.63744   0.05924   0.50891   0.00000  Uiso   1.00
N654   N     0.62964   0.08390   0.93121   0.00000  Uiso   1.00
O655   O     0.50000   0.16667   0.75000   0.00000  Uiso   1.00
O656   O     0.49027   0.12393   0.66625   0.00000  Uiso   1.00
O657   O     0.46020   0.20646   0.83749   0.00000  Uiso   1.00
O658   O     0.54421   0.17493   0.65877   0.00000  Uiso   1.00
O659   O     0.50532   0.16135   0.83749   0.00000  Uiso   1.00
O660   O     0.51182   0.08101   0.77820   0.00000  Uiso   1.00
O661   O     0.47914   0.26136   0.76767   0.00000  Uiso   1.00
O662   O     0.40785   0.13251   0.73607   0.00000  Uiso   1.00
O663   O     0.60119   0.19179   0.71805   0.00000  Uiso   1.00
O664   O     0.40323   0.18960   0.77820   0.00000  Uiso   1.00
O665   O     0.58773   0.15277   0.76767   0.00000  Uiso   1.00
O666   O     0.47133   0.06903   0.73607   0.00000  Uiso   1.00
O667   O     0.53771   0.25527   0.71805   0.00000  Uiso   1.00
Zn668  Zn    0.52577   0.14090   0.78277   0.00000  Uiso   1.00
Zn669  Zn    0.46792   0.12378   0.72257   0.00000  Uiso   1.00
Zn670  Zn    0.54500   0.19664   0.71188   0.00000  Uiso   1.00
Zn671  Zn    0.46131   0.20535   0.78277   0.00000  Uiso   1.00
C672   C     0.71918   0.15998   0.75872   0.00000  Uiso   1.00
C673   C     0.87878   0.14414   0.95816   0.00000  Uiso   1.00
C674   C     0.90092   0.12460   0.97725   0.00000  Uiso   1.00
C675   C     0.94773   0.17358   0.74119   0.00000  Uiso   1.00
C676   C     0.88951   0.12799   0.51892   0.00000  Uiso   1.00
C677   C     0.85612   0.15349   0.54040   0.00000  Uiso   1.00
C678   C     0.91005   0.10760   0.54041   0.00000  Uiso   1.00
C679   C     0.89792   0.11312   0.58134   0.00000  Uiso   1.00
C680   C     0.84360   0.15603   0.58176   0.00000  Uiso   1.00
C681   C     0.99374   0.17618   0.73753   0.00000  Uiso   1.00
C682   C     0.67378   0.15769   0.76221   0.00000  Uiso   1.00
C683   C     0.77756   0.22756   0.91995   0.00000  Uiso   1.00
C684   C     0.84757   0.32217   0.73804   0.00000  Uiso   1.00
C685   C     0.81832   0.01210   0.76214   0.00000  Uiso   1.00
C686   C     0.82265   0.05613   0.75888   0.00000  Uiso   1.00
C687   C     0.84354   0.27768   0.74134   0.00000  Uiso   1.00
C688   C     0.85495   0.14534   0.64412   0.00000  Uiso   1.00
C689   C     0.81218   0.18777   0.85613   0.00000  Uiso   1.00
C690   C     0.80463   0.19755   0.89885   0.00000  Uiso   1.00
C691   C     0.86488   0.13698   0.60170   0.00000  Uiso   1.00
C692   C     0.77148   0.23680   0.96026   0.00000  Uiso   1.00
C693   C     0.94376   0.08081   0.52264   0.00000  Uiso   1.00
C694   C     0.82567   0.17705   0.91845   0.00000  Uiso   1.00
C695   C     0.93545   0.10188   0.95192   0.00000  Uiso   1.00
C696   C     0.82191   0.18724   0.95877   0.00000  Uiso   1.00
C697   C     0.79327   0.21672   0.97987   0.00000  Uiso   1.00
C698   C     0.84521   0.16841   0.97871   0.00000  Uiso   1.00
C699   C     0.83581   0.17554   0.52020   0.00000  Uiso   1.00
C700   C     0.80725   0.20552   0.54008   0.00000  Uiso   1.00
C701   C     0.78685   0.22587   0.52021   0.00000  Uiso   1.00
F702   F     0.74443   0.26554   0.98005   0.00000  Uiso   1.00
H703   H     0.76558   0.24876   0.53679   0.00000  Uiso   1.00
H704   H     0.80103   0.21538   0.57101   0.00000  Uiso   1.00
H705   H     0.89011   0.14131   0.92652   0.00000  Uiso   1.00
H706   H     0.68350   0.19316   0.71467   0.00000  Uiso   1.00
H707   H     0.98466   0.14078   0.78542   0.00000  Uiso   1.00
H708   H     0.87458   0.00277   0.71585   0.00000  Uiso   1.00
H709   H     0.79096   0.33226   0.78445   0.00000  Uiso   1.00
H710   H     0.81721   0.17262   0.59973   0.00000  Uiso   1.00
H711   H     0.91430   0.09868   0.59764   0.00000  Uiso   1.00
H712   H     0.76090   0.24373   0.90533   0.00000  Uiso   1.00
H713   H     0.84403   0.15242   0.90165   0.00000  Uiso   1.00
N714   N     0.97077   0.05924   0.50891   0.00000  Uiso   1.00
N715   N     0.96297   0.08390   0.93121   0.00000  Uiso   1.00
O716   O     0.83333   0.16667   0.75000   0.00000  Uiso   1.00
O717   O     0.82360   0.12393   0.66625   0.00000  Uiso   1.00
O718   O     0.79354   0.20646   0.83749   0.00000  Uiso   1.00
O719   O     0.87755   0.17493   0.65877   0.00000  Uiso   1.00
O720   O     0.83865   0.16135   0.83749   0.00000  Uiso   1.00
O721   O     0.84515   0.08101   0.77820   0.00000  Uiso   1.00
O722   O     0.81247   0.26136   0.76767   0.00000  Uiso   1.00
O723   O     0.74119   0.13251   0.73607   0.00000  Uiso   1.00
O724   O     0.93452   0.19179   0.71805   0.00000  Uiso   1.00
O725   O     0.73656   0.18960   0.77820   0.00000  Uiso   1.00
O726   O     0.92106   0.15277   0.76767   0.00000  Uiso   1.00
O727   O     0.80467   0.06903   0.73607   0.00000  Uiso   1.00
O728   O     0.87104   0.25527   0.71805   0.00000  Uiso   1.00
Zn729  Zn    0.85910   0.14090   0.78277   0.00000  Uiso   1.00
Zn730  Zn    0.80125   0.12378   0.72257   0.00000  Uiso   1.00
Zn731  Zn    0.87833   0.19664   0.71188   0.00000  Uiso   1.00
Zn732  Zn    0.79465   0.20535   0.78277   0.00000  Uiso   1.00
C733   C     0.05251   0.49332   0.75872   0.00000  Uiso   1.00
C734   C     0.21211   0.47747   0.95816   0.00000  Uiso   1.00
C735   C     0.23425   0.45794   0.97725   0.00000  Uiso   1.00
C736   C     0.28107   0.50691   0.74119   0.00000  Uiso   1.00
C737   C     0.22284   0.46132   0.51892   0.00000  Uiso   1.00
C738   C     0.18945   0.48682   0.54040   0.00000  Uiso   1.00
C739   C     0.24339   0.44094   0.54041   0.00000  Uiso   1.00
C740   C     0.23126   0.44646   0.58134   0.00000  Uiso   1.00
C741   C     0.17693   0.48936   0.58176   0.00000  Uiso   1.00
C742   C     0.32707   0.50951   0.73753   0.00000  Uiso   1.00
C743   C     0.00711   0.49103   0.76221   0.00000  Uiso   1.00
C744   C     0.11090   0.56089   0.91995   0.00000  Uiso   1.00
C745   C     0.18090   0.65550   0.73804   0.00000  Uiso   1.00
C746   C     0.15165   0.34543   0.76214   0.00000  Uiso   1.00
C747   C     0.15598   0.38947   0.75888   0.00000  Uiso   1.00
C748   C     0.17687   0.61101   0.74134   0.00000  Uiso   1.00
C749   C     0.18829   0.47868   0.64412   0.00000  Uiso   1.00
C750   C     0.14552   0.52110   0.85613   0.00000  Uiso   1.00
C751   C     0.13796   0.53088   0.89885   0.00000  Uiso   1.00
C752   C     0.19821   0.47032   0.60170   0.00000  Uiso   1.00
C753   C     0.10481   0.57013   0.96026   0.00000  Uiso   1.00
C754   C     0.27710   0.41414   0.52264   0.00000  Uiso   1.00
C755   C     0.15901   0.51038   0.91845   0.00000  Uiso   1.00
C756   C     0.26878   0.43522   0.95192   0.00000  Uiso   1.00
C757   C     0.15525   0.52058   0.95877   0.00000  Uiso   1.00
C758   C     0.12660   0.55006   0.97987   0.00000  Uiso   1.00
C759   C     0.17855   0.50175   0.97871   0.00000  Uiso   1.00
C760   C     0.16914   0.50887   0.52020   0.00000  Uiso   1.00
C761   C     0.14059   0.53885   0.54008   0.00000  Uiso   1.00
C762   C     0.12018   0.55921   0.52021   0.00000  Uiso   1.00
F763   F     0.07776   0.59887   0.98005   0.00000  Uiso   1.00
H764   H     0.09892   0.58209   0.53679   0.00000  Uiso   1.00
H765   H     0.13436   0.54872   0.57101   0.00000  Uiso   1.00
H766   H     0.22344   0.47465   0.92652   0.00000  Uiso   1.00
H767   H     0.01683   0.52649   0.71467   0.00000  Uiso   1.00
H768   H     0.31799   0.47411   0.78542   0.00000  Uiso   1.00
H769   H     0.20792   0.33611   0.71585   0.00000  Uiso   1.00
H770   H     0.12430   0.66560   0.78445   0.00000  Uiso   1.00
H771   H     0.15054   0.50596   0.59973   0.00000  Uiso   1.00
H772   H     0.24764   0.43201   0.59764   0.00000  Uiso   1.00
H773   H     0.09423   0.57707   0.90533   0.00000  Uiso   1.00
H774   H     0.17737   0.48575   0.90165   0.00000  Uiso   1.00
N775   N     0.30410   0.39257   0.50891   0.00000  Uiso   1.00
N776   N     0.29631   0.41723   0.93121   0.00000  Uiso   1.00
O777   O     0.16667   0.50000   0.75000   0.00000  Uiso   1.00
O778   O     0.15693   0.45726   0.66625   0.00000  Uiso   1.00
O779   O     0.12687   0.53979   0.83749   0.00000  Uiso   1.00
O780   O     0.21088   0.50826   0.65877   0.00000  Uiso   1.00
O781   O     0.17198   0.49468   0.83749   0.00000  Uiso   1.00
O782   O     0.17849   0.41434   0.77820   0.00000  Uiso   1.00
O783   O     0.14581   0.59469   0.76767   0.00000  Uiso   1.00
O784   O     0.07452   0.46584   0.73607   0.00000  Uiso   1.00
O785   O     0.26785   0.52512   0.71805   0.00000  Uiso   1.00
O786   O     0.06990   0.52293   0.77820   0.00000  Uiso   1.00
O787   O     0.25440   0.48610   0.76767   0.00000  Uiso   1.00
O788   O     0.13800   0.40236   0.73607   0.00000  Uiso   1.00
O789   O     0.20437   0.58860   0.71805   0.00000  Uiso   1.00
Zn790  Zn    0.19244   0.47423   0.78277   0.00000  Uiso   1.00
Zn791  Zn    0.13459   0.45711   0.72257   0.00000  Uiso   1.00
Zn792  Zn    0.21166   0.52997   0.71188   0.00000  Uiso   1.00
Zn793  Zn    0.12798   0.53868   0.78277   0.00000  Uiso   1.00
C794   C     0.38585   0.49332   0.75872   0.00000  Uiso   1.00
C795   C     0.54545   0.47747   0.95816   0.00000  Uiso   1.00
C796   C     0.56759   0.45794   0.97725   0.00000  Uiso   1.00
C797   C     0.61440   0.50691   0.74119   0.00000  Uiso   1.00
C798   C     0.55617   0.46132   0.51892   0.00000  Uiso   1.00
C799   C     0.52279   0.48682   0.54040   0.00000  Uiso   1.00
C800   C     0.57672   0.44094   0.54041   0.00000  Uiso   1.00
C801   C     0.56459   0.44646   0.58134   0.00000  Uiso   1.00
C802   C     0.51026   0.48936   0.58176   0.00000  Uiso   1.00
C803   C     0.66041   0.50951   0.73753   0.00000  Uiso   1.00
C804   C     0.34044   0.49103   0.76221   0.00000  Uiso   1.00
C805   C     0.44423   0.56089   0.91995   0.00000  Uiso   1.00
C806   C     0.51423   0.65550   0.73804   0.00000  Uiso   1.00
C807   C     0.48499   0.34543   0.76214   0.00000  Uiso   1.00
C808   C     0.48931   0.38947   0.75888   0.00000  Uiso   1.00
C809   C     0.51021   0.61101   0.74134   0.00000  Uiso   1.00
C810   C     0.52162   0.47868   0.64412   0.00000  Uiso   1.00
C811   C     0.47885   0.52110   0.85613   0.00000  Uiso   1.00
C812   C     0.47129   0.53088   0.89885   0.00000  Uiso   1.00
C813   C     0.53155   0.47032   0.60170   0.00000  Uiso   1.00
C814   C     0.43815   0.57013   0.96026   0.00000  Uiso   1.00
C815   C     0.61043   0.41414   0.52264   0.00000  Uiso   1.00
C816   C     0.49234   0.51038   0.91845   0.00000  Uiso   1.00
C817   C     0.60211   0.43522   0.95192   0.00000  Uiso   1.00
C818   C     0.48858   0.52058   0.95877   0.00000  Uiso   1.00
C819   C     0.45994   0.55006   0.97987   0.00000  Uiso   1.00
C820   C     0.51188   0.50175   0.97871   0.00000  Uiso   1.00
C821   C     0.50248   0.50887   0.52020   0.00000  Uiso   1.00
C822   C     0.47392   0.53885   0.54008   0.00000  Uiso   1.00
C823   C     0.45351   0.55921   0.52021   0.00000  Uiso   1.00
F824   F     0.41109   0.59887   0.98005   0.00000  Uiso   1.00
H825   H     0.43225   0.58209   0.53679   0.00000  Uiso   1.00
H826   H     0.46770   0.54872   0.57101   0.00000  Uiso   1.00
H827   H     0.55678   0.47465   0.92652   0.00000  Uiso   1.00
H828   H     0.35017   0.52649   0.71467   0.00000  Uiso   1.00
H829   H     0.65133   0.47411   0.78542   0.00000  Uiso   1.00
H830   H     0.54125   0.33611   0.71585   0.00000  Uiso   1.00
H831   H     0.45763   0.66560   0.78445   0.00000  Uiso   1.00
H832   H     0.48387   0.50596   0.59973   0.00000  Uiso   1.00
H833   H     0.58097   0.43201   0.59764   0.00000  Uiso   1.00
H834   H     0.42757   0.57707   0.90533   0.00000  Uiso   1.00
H835   H     0.51070   0.48575   0.90165   0.00000  Uiso   1.00
N836   N     0.63744   0.39257   0.50891   0.00000  Uiso   1.00
N837   N     0.62964   0.41723   0.93121   0.00000  Uiso   1.00
O838   O     0.50000   0.50000   0.75000   0.00000  Uiso   1.00
O839   O     0.49027   0.45726   0.66625   0.00000  Uiso   1.00
O840   O     0.46020   0.53979   0.83749   0.00000  Uiso   1.00
O841   O     0.54421   0.50826   0.65877   0.00000  Uiso   1.00
O842   O     0.50532   0.49468   0.83749   0.00000  Uiso   1.00
O843   O     0.51182   0.41434   0.77820   0.00000  Uiso   1.00
O844   O     0.47914   0.59469   0.76767   0.00000  Uiso   1.00
O845   O     0.40785   0.46584   0.73607   0.00000  Uiso   1.00
O846   O     0.60119   0.52512   0.71805   0.00000  Uiso   1.00
O847   O     0.40323   0.52293   0.77820   0.00000  Uiso   1.00
O848   O     0.58773   0.48610   0.76767   0.00000  Uiso   1.00
O849   O     0.47133   0.40236   0.73607   0.00000  Uiso   1.00
O850   O     0.53771   0.58860   0.71805   0.00000  Uiso   1.00
Zn851  Zn    0.52577   0.47423   0.78277   0.00000  Uiso   1.00
Zn852  Zn    0.46792   0.45711   0.72257   0.00000  Uiso   1.00
Zn853  Zn    0.54500   0.52997   0.71188   0.00000  Uiso   1.00
Zn854  Zn    0.46131   0.53868   0.78277   0.00000  Uiso   1.00
C855   C     0.71918   0.49332   0.75872   0.00000  Uiso   1.00
C856   C     0.87878   0.47747   0.95816   0.00000  Uiso   1.00
C857   C     0.90092   0.45794   0.97725   0.00000  Uiso   1.00
C858   C     0.94773   0.50691   0.74119   0.00000  Uiso   1.00
C859   C     0.88951   0.46132   0.51892   0.00000  Uiso   1.00
C860   C     0.85612   0.48682   0.54040   0.00000  Uiso   1.00
C861   C     0.91005   0.44094   0.54041   0.00000  Uiso   1.00
C862   C     0.89792   0.44646   0.58134   0.00000  Uiso   1.00
C863   C     0.84360   0.48936   0.58176   0.00000  Uiso   1.00
C864   C     0.99374   0.50951   0.73753   0.00000  Uiso   1.00
C865   C     0.67378   0.49103   0.76221   0.00000  Uiso   1.00
C866   C     0.77756   0.56089   0.91995   0.00000  Uiso   1.00
C867   C     0.84757   0.65550   0.73804   0.00000  Uiso   1.00
C868   C     0.81832   0.34543   0.76214   0.00000  Uiso   1.00
C869   C     0.82265   0.38947   0.75888   0.00000  Uiso   1.00
C870   C     0.84354   0.61101   0.74134   0.00000  Uiso   1.00
C871   C     0.85495   0.47868   0.64412   0.00000  Uiso   1.00
C872   C     0.81218   0.52110   0.85613   0.00000  Uiso   1.00
C873   C     0.80463   0.53088   0.89885   0.00000  Uiso   1.00
C874   C     0.86488   0.47032   0.60170   0.00000  Uiso   1.00
C875   C     0.77148   0.57013   0.96026   0.00000  Uiso   1.00
C876   C     0.94376   0.41414   0.52264   0.00000  Uiso   1.00
C877   C     0.82567   0.51038   0.91845   0.00000  Uiso   1.00
C878   C     0.93545   0.43522   0.95192   0.00000  Uiso   1.00
C879   C     0.82191   0.52058   0.95877   0.00000  Uiso   1.00
C880   C     0.79327   0.55006   0.97987   0.00000  Uiso   1.00
C881   C     0.84521   0.50175   0.97871   0.00000  Uiso   1.00
C882   C     0.83581   0.50887   0.52020   0.00000  Uiso   1.00
C883   C     0.80725   0.53885   0.54008   0.00000  Uiso   1.00
C884   C     0.78685   0.55921   0.52021   0.00000  Uiso   1.00
F885   F     0.74443   0.59887   0.98005   0.00000  Uiso   1.00
H886   H     0.76558   0.58209   0.53679   0.00000  Uiso   1.00
H887   H     0.80103   0.54872   0.57101   0.00000  Uiso   1.00
H888   H     0.89011   0.47465   0.92652   0.00000  Uiso   1.00
H889   H     0.68350   0.52649   0.71467   0.00000  Uiso   1.00
H890   H     0.98466   0.47411   0.78542   0.00000  Uiso   1.00
H891   H     0.87458   0.33611   0.71585   0.00000  Uiso   1.00
H892   H     0.79096   0.66560   0.78445   0.00000  Uiso   1.00
H893   H     0.81721   0.50596   0.59973   0.00000  Uiso   1.00
H894   H     0.91430   0.43201   0.59764   0.00000  Uiso   1.00
H895   H     0.76090   0.57707   0.90533   0.00000  Uiso   1.00
H896   H     0.84403   0.48575   0.90165   0.00000  Uiso   1.00
N897   N     0.97077   0.39257   0.50891   0.00000  Uiso   1.00
N898   N     0.96297   0.41723   0.93121   0.00000  Uiso   1.00
O899   O     0.83333   0.50000   0.75000   0.00000  Uiso   1.00
O900   O     0.82360   0.45726   0.66625   0.00000  Uiso   1.00
O901   O     0.79354   0.53979   0.83749   0.00000  Uiso   1.00
O902   O     0.87755   0.50826   0.65877   0.00000  Uiso   1.00
O903   O     0.83865   0.49468   0.83749   0.00000  Uiso   1.00
O904   O     0.84515   0.41434   0.77820   0.00000  Uiso   1.00
O905   O     0.81247   0.59469   0.76767   0.00000  Uiso   1.00
O906   O     0.74119   0.46584   0.73607   0.00000  Uiso   1.00
O907   O     0.93452   0.52512   0.71805   0.00000  Uiso   1.00
O908   O     0.73656   0.52293   0.77820   0.00000  Uiso   1.00
O909   O     0.92106   0.48610   0.76767   0.00000  Uiso   1.00
O910   O     0.80467   0.40236   0.73607   0.00000  Uiso   1.00
O911   O     0.87104   0.58860   0.71805   0.00000  Uiso   1.00
Zn912  Zn    0.85910   0.47423   0.78277   0.00000  Uiso   1.00
Zn913  Zn    0.80125   0.45711   0.72257   0.00000  Uiso   1.00
Zn914  Zn    0.87833   0.52997   0.71188   0.00000  Uiso   1.00
Zn915  Zn    0.79465   0.53868   0.78277   0.00000  Uiso   1.00
C916   C     0.05251   0.82665   0.75872   0.00000  Uiso   1.00
C917   C     0.21211   0.81081   0.95816   0.00000  Uiso   1.00
C918   C     0.23425   0.79127   0.97725   0.00000  Uiso   1.00
C919   C     0.28107   0.84024   0.74119   0.00000  Uiso   1.00
C920   C     0.22284   0.79466   0.51892   0.00000  Uiso   1.00
C921   C     0.18945   0.82015   0.54040   0.00000  Uiso   1.00
C922   C     0.24339   0.77427   0.54041   0.00000  Uiso   1.00
C923   C     0.23126   0.77979   0.58134   0.00000  Uiso   1.00
C924   C     0.17693   0.82269   0.58176   0.00000  Uiso   1.00
C925   C     0.32707   0.84285   0.73753   0.00000  Uiso   1.00
C926   C     0.00711   0.82436   0.76221   0.00000  Uiso   1.00
C927   C     0.11090   0.89423   0.91995   0.00000  Uiso   1.00
C928   C     0.18090   0.98883   0.73804   0.00000  Uiso   1.00
C929   C     0.15165   0.67877   0.76214   0.00000  Uiso   1.00
C930   C     0.15598   0.72280   0.75888   0.00000  Uiso   1.00
C931   C     0.17687   0.94434   0.74134   0.00000  Uiso   1.00
C932   C     0.18829   0.81201   0.64412   0.00000  Uiso   1.00
C933   C     0.14552   0.85444   0.85613   0.00000  Uiso   1.00
C934   C     0.13796   0.86422   0.89885   0.00000  Uiso   1.00
C935   C     0.19821   0.80365   0.60170   0.00000  Uiso   1.00
C936   C     0.10481   0.90346   0.96026   0.00000  Uiso   1.00
C937   C     0.27710   0.74747   0.52264   0.00000  Uiso   1.00
C938   C     0.15901   0.84372   0.91845   0.00000  Uiso   1.00
C939   C     0.26878   0.76855   0.95192   0.00000  Uiso   1.00
C940   C     0.15525   0.85391   0.95877   0.00000  Uiso   1.00
C941   C     0.12660   0.88339   0.97987   0.00000  Uiso   1.00
C942   C     0.17855   0.83508   0.97871   0.00000  Uiso   1.00
C943   C     0.16914   0.84220   0.52020   0.00000  Uiso   1.00
C944   C     0.14059   0.87219   0.54008   0.00000  Uiso   1.00
C945   C     0.12018   0.89254   0.52021   0.00000  Uiso   1.00
F946   F     0.07776   0.93221   0.98005   0.00000  Uiso   1.00
H947   H     0.09892   0.91543   0.53679   0.00000  Uiso   1.00
H948   H     0.13436   0.88205   0.57101   0.00000  Uiso   1.00
H949   H     0.22344   0.80798   0.92652   0.00000  Uiso   1.00
H950   H     0.01683   0.85983   0.71467   0.00000  Uiso   1.00
H951   H     0.31799   0.80745   0.78542   0.00000  Uiso   1.00
H952   H     0.20792   0.66944   0.71585   0.00000  Uiso   1.00
H953   H     0.12430   0.99893   0.78445   0.00000  Uiso   1.00
H954   H     0.15054   0.83929   0.59973   0.00000  Uiso   1.00
H955   H     0.24764   0.76535   0.59764   0.00000  Uiso   1.00
H956   H     0.09423   0.91040   0.90533   0.00000  Uiso   1.00
H957   H     0.17737   0.81908   0.90165   0.00000  Uiso   1.00
N958   N     0.30410   0.72591   0.50891   0.00000  Uiso   1.00
N959   N     0.29631   0.75056   0.93121   0.00000  Uiso   1.00
O960   O     0.16667   0.83333   0.75000   0.00000  Uiso   1.00
O961   O     0.15693   0.79060   0.66625   0.00000  Uiso   1.00
O962   O     0.12687   0.87313   0.83749   0.00000  Uiso   1.00
O963   O     0.21088   0.84159   0.65877   0.00000  Uiso   1.00
O964   O     0.17198   0.82802   0.83749   0.00000  Uiso   1.00
O965   O     0.17849   0.74768   0.77820   0.00000  Uiso   1.00
O966   O     0.14581   0.92803   0.76767   0.00000  Uiso   1.00
O967   O     0.07452   0.79917   0.73607   0.00000  Uiso   1.00
O968   O     0.26785   0.85845   0.71805   0.00000  Uiso   1.00
O969   O     0.06990   0.85627   0.77820   0.00000  Uiso   1.00
O970   O     0.25440   0.81944   0.76767   0.00000  Uiso   1.00
O971   O     0.13800   0.73570   0.73607   0.00000  Uiso   1.00
O972   O     0.20437   0.92193   0.71805   0.00000  Uiso   1.00
Zn973  Zn    0.19244   0.80756   0.78277   0.00000  Uiso   1.00
Zn974  Zn    0.13459   0.79044   0.72257   0.00000  Uiso   1.00
Zn975  Zn    0.21166   0.86331   0.71188   0.00000  Uiso   1.00
Zn976  Zn    0.12798   0.87202   0.78277   0.00000  Uiso   1.00
C977   C     0.38585   0.82665   0.75872   0.00000  Uiso   1.00
C978   C     0.54545   0.81081   0.95816   0.00000  Uiso   1.00
C979   C     0.56759   0.79127   0.97725   0.00000  Uiso   1.00
C980   C     0.61440   0.84024   0.74119   0.00000  Uiso   1.00
C981   C     0.55617   0.79466   0.51892   0.00000  Uiso   1.00
C982   C     0.52279   0.82015   0.54040   0.00000  Uiso   1.00
C983   C     0.57672   0.77427   0.54041   0.00000  Uiso   1.00
C984   C     0.56459   0.77979   0.58134   0.00000  Uiso   1.00
C985   C     0.51026   0.82269   0.58176   0.00000  Uiso   1.00
C986   C     0.66041   0.84285   0.73753   0.00000  Uiso   1.00
C987   C     0.34044   0.82436   0.76221   0.00000  Uiso   1.00
C988   C     0.44423   0.89423   0.91995   0.00000  Uiso   1.00
C989   C     0.51423   0.98883   0.73804   0.00000  Uiso   1.00
C990   C     0.48499   0.67877   0.76214   0.00000  Uiso   1.00
C991   C     0.48931   0.72280   0.75888   0.00000  Uiso   1.00
C992   C     0.51021   0.94434   0.74134   0.00000  Uiso   1.00
C993   C     0.52162   0.81201   0.64412   0.00000  Uiso   1.00
C994   C     0.47885   0.85444   0.85613   0.00000  Uiso   1.00
C995   C     0.47129   0.86422   0.89885   0.00000  Uiso   1.00
C996   C     0.53155   0.80365   0.60170   0.00000  Uiso   1.00
C997   C     0.43815   0.90346   0.96026   0.00000  Uiso   1.00
C998   C     0.61043   0.74747   0.52264   0.00000  Uiso   1.00
C999   C     0.49234   0.84372   0.91845   0.00000  Uiso   1.00
C1000  C     0.60211   0.76855   0.95192   0.00000  Uiso   1.00
C1001  C     0.48858   0.85391   0.95877   0.00000  Uiso   1.00
C1002  C     0.45994   0.88339   0.97987   0.00000  Uiso   1.00
C1003  C     0.51188   0.83508   0.97871   0.00000  Uiso   1.00
C1004  C     0.50248   0.84220   0.52020   0.00000  Uiso   1.00
C1005  C     0.47392   0.87219   0.54008   0.00000  Uiso   1.00
C1006  C     0.45351   0.89254   0.52021   0.00000  Uiso   1.00
F1007  F     0.41109   0.93221   0.98005   0.00000  Uiso   1.00
H1008  H     0.43225   0.91543   0.53679   0.00000  Uiso   1.00
H1009  H     0.46770   0.88205   0.57101   0.00000  Uiso   1.00
H1010  H     0.55678   0.80798   0.92652   0.00000  Uiso   1.00
H1011  H     0.35017   0.85983   0.71467   0.00000  Uiso   1.00
H1012  H     0.65133   0.80745   0.78542   0.00000  Uiso   1.00
H1013  H     0.54125   0.66944   0.71585   0.00000  Uiso   1.00
H1014  H     0.45763   0.99893   0.78445   0.00000  Uiso   1.00
H1015  H     0.48387   0.83929   0.59973   0.00000  Uiso   1.00
H1016  H     0.58097   0.76535   0.59764   0.00000  Uiso   1.00
H1017  H     0.42757   0.91040   0.90533   0.00000  Uiso   1.00
H1018  H     0.51070   0.81908   0.90165   0.00000  Uiso   1.00
N1019  N     0.63744   0.72591   0.50891   0.00000  Uiso   1.00
N1020  N     0.62964   0.75056   0.93121   0.00000  Uiso   1.00
O1021  O     0.50000   0.83333   0.75000   0.00000  Uiso   1.00
O1022  O     0.49027   0.79060   0.66625   0.00000  Uiso   1.00
O1023  O     0.46020   0.87313   0.83749   0.00000  Uiso   1.00
O1024  O     0.54421   0.84159   0.65877   0.00000  Uiso   1.00
O1025  O     0.50532   0.82802   0.83749   0.00000  Uiso   1.00
O1026  O     0.51182   0.74768   0.77820   0.00000  Uiso   1.00
O1027  O     0.47914   0.92803   0.76767   0.00000  Uiso   1.00
O1028  O     0.40785   0.79917   0.73607   0.00000  Uiso   1.00
O1029  O     0.60119   0.85845   0.71805   0.00000  Uiso   1.00
O1030  O     0.40323   0.85627   0.77820   0.00000  Uiso   1.00
O1031  O     0.58773   0.81944   0.76767   0.00000  Uiso   1.00
O1032  O     0.47133   0.73570   0.73607   0.00000  Uiso   1.00
O1033  O     0.53771   0.92193   0.71805   0.00000  Uiso   1.00
Zn1034 Zn    0.52577   0.80756   0.78277   0.00000  Uiso   1.00
Zn1035 Zn    0.46792   0.79044   0.72257   0.00000  Uiso   1.00
Zn1036 Zn    0.54500   0.86331   0.71188   0.00000  Uiso   1.00
Zn1037 Zn    0.46131   0.87202   0.78277   0.00000  Uiso   1.00
C1038  C     0.71918   0.82665   0.75872   0.00000  Uiso   1.00
C1039  C     0.87878   0.81081   0.95816   0.00000  Uiso   1.00
C1040  C     0.90092   0.79127   0.97725   0.00000  Uiso   1.00
C1041  C     0.94773   0.84024   0.74119   0.00000  Uiso   1.00
C1042  C     0.88951   0.79466   0.51892   0.00000  Uiso   1.00
C1043  C     0.85612   0.82015   0.54040   0.00000  Uiso   1.00
C1044  C     0.91005   0.77427   0.54041   0.00000  Uiso   1.00
C1045  C     0.89792   0.77979   0.58134   0.00000  Uiso   1.00
C1046  C     0.84360   0.82269   0.58176   0.00000  Uiso   1.00
C1047  C     0.99374   0.84285   0.73753   0.00000  Uiso   1.00
C1048  C     0.67378   0.82436   0.76221   0.00000  Uiso   1.00
C1049  C     0.77756   0.89423   0.91995   0.00000  Uiso   1.00
C1050  C     0.84757   0.98883   0.73804   0.00000  Uiso   1.00
C1051  C     0.81832   0.67877   0.76214   0.00000  Uiso   1.00
C1052  C     0.82265   0.72280   0.75888   0.00000  Uiso   1.00
C1053  C     0.84354   0.94434   0.74134   0.00000  Uiso   1.00
C1054  C     0.85495   0.81201   0.64412   0.00000  Uiso   1.00
C1055  C     0.81218   0.85444   0.85613   0.00000  Uiso   1.00
C1056  C     0.80463   0.86422   0.89885   0.00000  Uiso   1.00
C1057  C     0.86488   0.80365   0.60170   0.00000  Uiso   1.00
C1058  C     0.77148   0.90346   0.96026   0.00000  Uiso   1.00
C1059  C     0.94376   0.74747   0.52264   0.00000  Uiso   1.00
C1060  C     0.82567   0.84372   0.91845   0.00000  Uiso   1.00
C1061  C     0.93545   0.76855   0.95192   0.00000  Uiso   1.00
C1062  C     0.82191   0.85391   0.95877   0.00000  Uiso   1.00
C1063  C     0.79327   0.88339   0.97987   0.00000  Uiso   1.00
C1064  C     0.84521   0.83508   0.97871   0.00000  Uiso   1.00
C1065  C     0.83581   0.84220   0.52020   0.00000  Uiso   1.00
C1066  C     0.80725   0.87219   0.54008   0.00000  Uiso   1.00
C1067  C     0.78685   0.89254   0.52021   0.00000  Uiso   1.00
F1068  F     0.74443   0.93221   0.98005   0.00000  Uiso   1.00
H1069  H     0.76558   0.91543   0.53679   0.00000  Uiso   1.00
H1070  H     0.80103   0.88205   0.57101   0.00000  Uiso   1.00
H1071  H     0.89011   0.80798   0.92652   0.00000  Uiso   1.00
H1072  H     0.68350   0.85983   0.71467   0.00000  Uiso   1.00
H1073  H     0.98466   0.80745   0.78542   0.00000  Uiso   1.00
H1074  H     0.87458   0.66944   0.71585   0.00000  Uiso   1.00
H1075  H     0.79096   0.99893   0.78445   0.00000  Uiso   1.00
H1076  H     0.81721   0.83929   0.59973   0.00000  Uiso   1.00
H1077  H     0.91430   0.76535   0.59764   0.00000  Uiso   1.00
H1078  H     0.76090   0.91040   0.90533   0.00000  Uiso   1.00
H1079  H     0.84403   0.81908   0.90165   0.00000  Uiso   1.00
N1080  N     0.97077   0.72591   0.50891   0.00000  Uiso   1.00
N1081  N     0.96297   0.75056   0.93121   0.00000  Uiso   1.00
O1082  O     0.83333   0.83333   0.75000   0.00000  Uiso   1.00
O1083  O     0.82360   0.79060   0.66625   0.00000  Uiso   1.00
O1084  O     0.79354   0.87313   0.83749   0.00000  Uiso   1.00
O1085  O     0.87755   0.84159   0.65877   0.00000  Uiso   1.00
O1086  O     0.83865   0.82802   0.83749   0.00000  Uiso   1.00
O1087  O     0.84515   0.74768   0.77820   0.00000  Uiso   1.00
O1088  O     0.81247   0.92803   0.76767   0.00000  Uiso   1.00
O1089  O     0.74119   0.79917   0.73607   0.00000  Uiso   1.00
O1090  O     0.93452   0.85845   0.71805   0.00000  Uiso   1.00
O1091  O     0.73656   0.85627   0.77820   0.00000  Uiso   1.00
O1092  O     0.92106   0.81944   0.76767   0.00000  Uiso   1.00
O1093  O     0.80467   0.73570   0.73607   0.00000  Uiso   1.00
O1094  O     0.87104   0.92193   0.71805   0.00000  Uiso   1.00
Zn1095 Zn    0.85910   0.80756   0.78277   0.00000  Uiso   1.00
Zn1096 Zn    0.80125   0.79044   0.72257   0.00000  Uiso   1.00
Zn1097 Zn    0.87833   0.86331   0.71188   0.00000  Uiso   1.00
Zn1098 Zn    0.79465   0.87202   0.78277   0.00000  Uiso   1.00
loop_
_geom_bond_atom_site_label_1
_geom_bond_atom_site_label_2
_geom_bond_distance
_geom_bond_site_symmetry_2
_ccdc_geom_bond_type
C1     C11     1.438   .     S
C1     O54     1.271   .     A
C1     O52     1.271   .     A
C2     H34     1.079   .     S
C2     C3      1.391   .     A
C2     C27     1.408   .     A
C3     C24     1.447   .     S
C3     C554    1.420   .     S
C4     O55     1.278   .     A
C4     O53     1.282   .     A
C4     C10     1.456   .     S
C5     C6      1.435   .     A
C5     C7      1.433   .     A
C5     C552    1.420   1_554 S
C6     C9      1.410   .     A
C6     C28     1.428   .     A
C7     C22     1.445   .     S
C7     C8      1.394   .     A
C8     C20     1.386   .     A
C8     H40     1.086   .     S
C9     C20     1.383   .     A
C9     H39     1.077   .     S
C10    C72     1.335   .     S
C10    H96     1.088   .     S
C11    C132    1.335   1_455 S
C11    H158    1.086   1_455 S
C12    C19     1.400   .     A
C12    H41     1.083   .     S
C12    C21     1.393   .     A
C13    C16     1.452   .     S
C13    C197    1.332   .     S
C13    H220    1.088   .     S
C14    C15     1.436   .     S
C14    C379    1.332   1_545 S
C14    H404    1.086   1_545 S
C15    O56     1.278   .     A
C15    O50     1.278   .     A
C16    O51     1.271   .     A
C16    O57     1.271   .     A
C17    O48     1.271   .     A
C17    C20     1.451   .     S
C17    O46     1.274   .     A
C18    O47     1.282   .     A
C18    C19     1.472   .     S
C18    O49     1.284   .     A
C19    C23     1.398   .     A
C21    C26     1.407   .     A
C21    F31     1.358   .     S
C22    N43     1.158   .     T
C23    H42     1.076   .     S
C23    C25     1.408   .     A
C24    N44     1.158   .     T
C25    C27     1.427   .     A
C25    C26     1.418   .     A
C26    C579    1.392   .     S
C27    C577    1.418   .     S
C28    C29     1.418   .     A
C28    C576    1.418   1_554 S
C29    C30     1.387   .     A
C29    H33     1.076   .     S
C30    H32     1.084   .     S
C30    C575    1.392   1_554 S
H35    C132    1.088   1_455 S
H36    C72     1.086   .     S
H37    C379    1.088   1_545 S
H38    C197    1.086   .     S
O45    Zn60    1.933   .     S
O45    Zn61    1.933   .     S
O45    Zn58    1.960   .     S
O45    Zn59    1.946   .     S
O46    Zn59    1.933   .     S
O47    Zn61    1.944   .     S
O48    Zn60    1.939   .     S
O49    Zn58    1.930   .     S
O50    Zn58    1.928   .     S
O51    Zn61    1.930   .     S
O52    Zn59    1.927   .     S
O53    Zn60    1.937   .     S
O54    Zn61    1.933   .     S
O55    Zn58    1.923   .     S
O56    Zn59    1.936   .     S
O57    Zn60    1.931   .     S
C62    C72     1.438   .     S
C62    O115    1.271   .     A
C62    O113    1.271   .     A
C63    H95     1.079   .     S
C63    C64     1.391   .     A
C63    C88     1.408   .     A
C64    C85     1.447   .     S
C64    C615    1.420   .     S
C65    O116    1.278   .     A
C65    O114    1.282   .     A
C65    C71     1.456   .     S
C66    C67     1.435   .     A
C66    C68     1.433   .     A
C66    C613    1.420   1_554 S
C67    C70     1.410   .     A
C67    C89     1.428   .     A
C68    C83     1.445   .     S
C68    C69     1.394   .     A
C69    C81     1.386   .     A
C69    H101    1.086   .     S
C70    C81     1.383   .     A
C70    H100    1.077   .     S
C71    C133    1.335   .     S
C71    H157    1.088   .     S
C73    C80     1.400   .     A
C73    H102    1.083   .     S
C73    C82     1.393   .     A
C74    C77     1.452   .     S
C74    C258    1.332   .     S
C74    H281    1.088   .     S
C75    C76     1.436   .     S
C75    C440    1.332   1_545 S
C75    H465    1.086   1_545 S
C76    O117    1.278   .     A
C76    O111    1.278   .     A
C77    O112    1.271   .     A
C77    O118    1.271   .     A
C78    O109    1.271   .     A
C78    C81     1.451   .     S
C78    O107    1.274   .     A
C79    O108    1.282   .     A
C79    C80     1.472   .     S
C79    O110    1.284   .     A
C80    C84     1.398   .     A
C82    C87     1.407   .     A
C82    F92     1.358   .     S
C83    N104    1.158   .     T
C84    H103    1.076   .     S
C84    C86     1.408   .     A
C85    N105    1.158   .     T
C86    C88     1.427   .     A
C86    C87     1.418   .     A
C87    C640    1.392   .     S
C88    C638    1.418   .     S
C89    C90     1.418   .     A
C89    C637    1.418   1_554 S
C90    C91     1.387   .     A
C90    H94     1.076   .     S
C91    H93     1.084   .     S
C91    C636    1.392   1_554 S
H97    C133    1.086   .     S
H98    C440    1.088   1_545 S
H99    C258    1.086   .     S
O106   Zn121   1.933   .     S
O106   Zn122   1.933   .     S
O106   Zn119   1.960   .     S
O106   Zn120   1.946   .     S
O107   Zn120   1.933   .     S
O108   Zn122   1.944   .     S
O109   Zn121   1.939   .     S
O110   Zn119   1.930   .     S
O111   Zn119   1.928   .     S
O112   Zn122   1.930   .     S
O113   Zn120   1.927   .     S
O114   Zn121   1.937   .     S
O115   Zn122   1.933   .     S
O116   Zn119   1.923   .     S
O117   Zn120   1.936   .     S
O118   Zn121   1.931   .     S
C123   C133    1.438   .     S
C123   O176    1.271   .     A
C123   O174    1.271   .     A
C124   H156    1.079   .     S
C124   C125    1.391   .     A
C124   C149    1.408   .     A
C125   C146    1.447   .     S
C125   C676    1.420   .     S
C126   O177    1.278   .     A
C126   O175    1.282   .     A
C126   C132    1.456   .     S
C127   C128    1.435   .     A
C127   C129    1.433   .     A
C127   C674    1.420   1_554 S
C128   C131    1.410   .     A
C128   C150    1.428   .     A
C129   C144    1.445   .     S
C129   C130    1.394   .     A
C130   C142    1.386   .     A
C130   H162    1.086   .     S
C131   C142    1.383   .     A
C131   H161    1.077   .     S
C132   C11     1.335   1_655 S
C132   H35     1.088   1_655 S
C134   C141    1.400   .     A
C134   H163    1.083   .     S
C134   C143    1.393   .     A
C135   C138    1.452   .     S
C135   C319    1.332   .     S
C135   H342    1.088   .     S
C136   C137    1.436   .     S
C136   C501    1.332   1_545 S
C136   H526    1.086   1_545 S
C137   O178    1.278   .     A
C137   O172    1.278   .     A
C138   O173    1.271   .     A
C138   O179    1.271   .     A
C139   O170    1.271   .     A
C139   C142    1.451   .     S
C139   O168    1.274   .     A
C140   O169    1.282   .     A
C140   C141    1.472   .     S
C140   O171    1.284   .     A
C141   C145    1.398   .     A
C143   C148    1.407   .     A
C143   F153    1.358   .     S
C144   N165    1.158   .     T
C145   H164    1.076   .     S
C145   C147    1.408   .     A
C146   N166    1.158   .     T
C147   C149    1.427   .     A
C147   C148    1.418   .     A
C148   C701    1.392   .     S
C149   C699    1.418   .     S
C150   C151    1.418   .     A
C150   C698    1.418   1_554 S
C151   C152    1.387   .     A
C151   H155    1.076   .     S
C152   H154    1.084   .     S
C152   C697    1.392   1_554 S
H158   C11     1.086   1_655 S
H159   C501    1.088   1_545 S
H160   C319    1.086   .     S
O167   Zn182   1.933   .     S
O167   Zn183   1.933   .     S
O167   Zn180   1.960   .     S
O167   Zn181   1.946   .     S
O168   Zn181   1.933   .     S
O169   Zn183   1.944   .     S
O170   Zn182   1.939   .     S
O171   Zn180   1.930   .     S
O172   Zn180   1.928   .     S
O173   Zn183   1.930   .     S
O174   Zn181   1.927   .     S
O175   Zn182   1.937   .     S
O176   Zn183   1.933   .     S
O177   Zn180   1.923   .     S
O178   Zn181   1.936   .     S
O179   Zn182   1.931   .     S
C184   C194    1.438   .     S
C184   O237    1.271   .     A
C184   O235    1.271   .     A
C185   H217    1.079   .     S
C185   C186    1.391   .     A
C185   C210    1.408   .     A
C186   C207    1.447   .     S
C186   C737    1.420   .     S
C187   O238    1.278   .     A
C187   O236    1.282   .     A
C187   C193    1.456   .     S
C188   C189    1.435   .     A
C188   C190    1.433   .     A
C188   C735    1.420   1_554 S
C189   C192    1.410   .     A
C189   C211    1.428   .     A
C190   C205    1.445   .     S
C190   C191    1.394   .     A
C191   C203    1.386   .     A
C191   H223    1.086   .     S
C192   C203    1.383   .     A
C192   H222    1.077   .     S
C193   C255    1.335   .     S
C193   H279    1.088   .     S
C194   C315    1.335   1_455 S
C194   H341    1.086   1_455 S
C195   C202    1.400   .     A
C195   H224    1.083   .     S
C195   C204    1.393   .     A
C196   C199    1.452   .     S
C196   C380    1.332   .     S
C196   H403    1.088   .     S
C197   C198    1.436   .     S
C198   O239    1.278   .     A
C198   O233    1.278   .     A
C199   O234    1.271   .     A
C199   O240    1.271   .     A
C200   O231    1.271   .     A
C200   C203    1.451   .     S
C200   O229    1.274   .     A
C201   O230    1.282   .     A
C201   C202    1.472   .     S
C201   O232    1.284   .     A
C202   C206    1.398   .     A
C204   C209    1.407   .     A
C204   F214    1.358   .     S
C205   N226    1.158   .     T
C206   H225    1.076   .     S
C206   C208    1.408   .     A
C207   N227    1.158   .     T
C208   C210    1.427   .     A
C208   C209    1.418   .     A
C209   C762    1.392   .     S
C210   C760    1.418   .     S
C211   C212    1.418   .     A
C211   C759    1.418   1_554 S
C212   C213    1.387   .     A
C212   H216    1.076   .     S
C213   H215    1.084   .     S
C213   C758    1.392   1_554 S
H218   C315    1.088   1_455 S
H219   C255    1.086   .     S
H221   C380    1.086   .     S
O228   Zn243   1.933   .     S
O228   Zn244   1.933   .     S
O228   Zn241   1.960   .     S
O228   Zn242   1.946   .     S
O229   Zn242   1.933   .     S
O230   Zn244   1.944   .     S
O231   Zn243   1.939   .     S
O232   Zn241   1.930   .     S
O233   Zn241   1.928   .     S
O234   Zn244   1.930   .     S
O235   Zn242   1.927   .     S
O236   Zn243   1.937   .     S
O237   Zn244   1.933   .     S
O238   Zn241   1.923   .     S
O239   Zn242   1.936   .     S
O240   Zn243   1.931   .     S
C245   C255    1.438   .     S
C245   O298    1.271   .     A
C245   O296    1.271   .     A
C246   H278    1.079   .     S
C246   C247    1.391   .     A
C246   C271    1.408   .     A
C247   C268    1.447   .     S
C247   C798    1.420   .     S
C248   O299    1.278   .     A
C248   O297    1.282   .     A
C248   C254    1.456   .     S
C249   C250    1.435   .     A
C249   C251    1.433   .     A
C249   C796    1.420   1_554 S
C250   C253    1.410   .     A
C250   C272    1.428   .     A
C251   C266    1.445   .     S
C251   C252    1.394   .     A
C252   C264    1.386   .     A
C252   H284    1.086   .     S
C253   C264    1.383   .     A
C253   H283    1.077   .     S
C254   C316    1.335   .     S
C254   H340    1.088   .     S
C256   C263    1.400   .     A
C256   H285    1.083   .     S
C256   C265    1.393   .     A
C257   C260    1.452   .     S
C257   C441    1.332   .     S
C257   H464    1.088   .     S
C258   C259    1.436   .     S
C259   O300    1.278   .     A
C259   O294    1.278   .     A
C260   O295    1.271   .     A
C260   O301    1.271   .     A
C261   O292    1.271   .     A
C261   C264    1.451   .     S
C261   O290    1.274   .     A
C262   O291    1.282   .     A
C262   C263    1.472   .     S
C262   O293    1.284   .     A
C263   C267    1.398   .     A
C265   C270    1.407   .     A
C265   F275    1.358   .     S
C266   N287    1.158   .     T
C267   H286    1.076   .     S
C267   C269    1.408   .     A
C268   N288    1.158   .     T
C269   C271    1.427   .     A
C269   C270    1.418   .     A
C270   C823    1.392   .     S
C271   C821    1.418   .     S
C272   C273    1.418   .     A
C272   C820    1.418   1_554 S
C273   C274    1.387   .     A
C273   H277    1.076   .     S
C274   H276    1.084   .     S
C274   C819    1.392   1_554 S
H280   C316    1.086   .     S
H282   C441    1.086   .     S
O289   Zn304   1.933   .     S
O289   Zn305   1.933   .     S
O289   Zn302   1.960   .     S
O289   Zn303   1.946   .     S
O290   Zn303   1.933   .     S
O291   Zn305   1.944   .     S
O292   Zn304   1.939   .     S
O293   Zn302   1.930   .     S
O294   Zn302   1.928   .     S
O295   Zn305   1.930   .     S
O296   Zn303   1.927   .     S
O297   Zn304   1.937   .     S
O298   Zn305   1.933   .     S
O299   Zn302   1.923   .     S
O300   Zn303   1.936   .     S
O301   Zn304   1.931   .     S
C306   C316    1.438   .     S
C306   O359    1.271   .     A
C306   O357    1.271   .     A
C307   H339    1.079   .     S
C307   C308    1.391   .     A
C307   C332    1.408   .     A
C308   C329    1.447   .     S
C308   C859    1.420   .     S
C309   O360    1.278   .     A
C309   O358    1.282   .     A
C309   C315    1.456   .     S
C310   C311    1.435   .     A
C310   C312    1.433   .     A
C310   C857    1.420   1_554 S
C311   C314    1.410   .     A
C311   C333    1.428   .     A
C312   C327    1.445   .     S
C312   C313    1.394   .     A
C313   C325    1.386   .     A
C313   H345    1.086   .     S
C314   C325    1.383   .     A
C314   H344    1.077   .     S
C315   C194    1.335   1_655 S
C315   H218    1.088   1_655 S
C317   C324    1.400   .     A
C317   H346    1.083   .     S
C317   C326    1.393   .     A
C318   C321    1.452   .     S
C318   C502    1.332   .     S
C318   H525    1.088   .     S
C319   C320    1.436   .     S
C320   O361    1.278   .     A
C320   O355    1.278   .     A
C321   O356    1.271   .     A
C321   O362    1.271   .     A
C322   O353    1.271   .     A
C322   C325    1.451   .     S
C322   O351    1.274   .     A
C323   O352    1.282   .     A
C323   C324    1.472   .     S
C323   O354    1.284   .     A
C324   C328    1.398   .     A
C326   C331    1.407   .     A
C326   F336    1.358   .     S
C327   N348    1.158   .     T
C328   H347    1.076   .     S
C328   C330    1.408   .     A
C329   N349    1.158   .     T
C330   C332    1.427   .     A
C330   C331    1.418   .     A
C331   C884    1.392   .     S
C332   C882    1.418   .     S
C333   C334    1.418   .     A
C333   C881    1.418   1_554 S
C334   C335    1.387   .     A
C334   H338    1.076   .     S
C335   H337    1.084   .     S
C335   C880    1.392   1_554 S
H341   C194    1.086   1_655 S
H343   C502    1.086   .     S
O350   Zn365   1.933   .     S
O350   Zn366   1.933   .     S
O350   Zn363   1.960   .     S
O350   Zn364   1.946   .     S
O351   Zn364   1.933   .     S
O352   Zn366   1.944   .     S
O353   Zn365   1.939   .     S
O354   Zn363   1.930   .     S
O355   Zn363   1.928   .     S
O356   Zn366   1.930   .     S
O357   Zn364   1.927   .     S
O358   Zn365   1.937   .     S
O359   Zn366   1.933   .     S
O360   Zn363   1.923   .     S
O361   Zn364   1.936   .     S
O362   Zn365   1.931   .     S
C367   C377    1.438   .     S
C367   O420    1.271   .     A
C367   O418    1.271   .     A
C368   H400    1.079   .     S
C368   C369    1.391   .     A
C368   C393    1.408   .     A
C369   C390    1.447   .     S
C369   C920    1.420   .     S
C370   O421    1.278   .     A
C370   O419    1.282   .     A
C370   C376    1.456   .     S
C371   C372    1.435   .     A
C371   C373    1.433   .     A
C371   C918    1.420   1_554 S
C372   C375    1.410   .     A
C372   C394    1.428   .     A
C373   C388    1.445   .     S
C373   C374    1.394   .     A
C374   C386    1.386   .     A
C374   H406    1.086   .     S
C375   C386    1.383   .     A
C375   H405    1.077   .     S
C376   C438    1.335   .     S
C376   H462    1.088   .     S
C377   C498    1.335   1_455 S
C377   H524    1.086   1_455 S
C378   C385    1.400   .     A
C378   H407    1.083   .     S
C378   C387    1.393   .     A
C379   C382    1.452   .     S
C379   C14     1.332   1_565 S
C379   H37     1.088   1_565 S
C380   C381    1.436   .     S
C381   O422    1.278   .     A
C381   O416    1.278   .     A
C382   O417    1.271   .     A
C382   O423    1.271   .     A
C383   O414    1.271   .     A
C383   C386    1.451   .     S
C383   O412    1.274   .     A
C384   O413    1.282   .     A
C384   C385    1.472   .     S
C384   O415    1.284   .     A
C385   C389    1.398   .     A
C387   C392    1.407   .     A
C387   F397    1.358   .     S
C388   N409    1.158   .     T
C389   H408    1.076   .     S
C389   C391    1.408   .     A
C390   N410    1.158   .     T
C391   C393    1.427   .     A
C391   C392    1.418   .     A
C392   C945    1.392   .     S
C393   C943    1.418   .     S
C394   C395    1.418   .     A
C394   C942    1.418   1_554 S
C395   C396    1.387   .     A
C395   H399    1.076   .     S
C396   H398    1.084   .     S
C396   C941    1.392   1_554 S
H401   C498    1.088   1_455 S
H402   C438    1.086   .     S
H404   C14     1.086   1_565 S
O411   Zn426   1.933   .     S
O411   Zn427   1.933   .     S
O411   Zn424   1.960   .     S
O411   Zn425   1.946   .     S
O412   Zn425   1.933   .     S
O413   Zn427   1.944   .     S
O414   Zn426   1.939   .     S
O415   Zn424   1.930   .     S
O416   Zn424   1.928   .     S
O417   Zn427   1.930   .     S
O418   Zn425   1.927   .     S
O419   Zn426   1.937   .     S
O420   Zn427   1.933   .     S
O421   Zn424   1.923   .     S
O422   Zn425   1.936   .     S
O423   Zn426   1.931   .     S
C428   C438    1.438   .     S
C428   O481    1.271   .     A
C428   O479    1.271   .     A
C429   H461    1.079   .     S
C429   C430    1.391   .     A
C429   C454    1.408   .     A
C430   C451    1.447   .     S
C430   C981    1.420   .     S
C431   O482    1.278   .     A
C431   O480    1.282   .     A
C431   C437    1.456   .     S
C432   C433    1.435   .     A
C432   C434    1.433   .     A
C432   C979    1.420   1_554 S
C433   C436    1.410   .     A
C433   C455    1.428   .     A
C434   C449    1.445   .     S
C434   C435    1.394   .     A
C435   C447    1.386   .     A
C435   H467    1.086   .     S
C436   C447    1.383   .     A
C436   H466    1.077   .     S
C437   C499    1.335   .     S
C437   H523    1.088   .     S
C439   C446    1.400   .     A
C439   H468    1.083   .     S
C439   C448    1.393   .     A
C440   C443    1.452   .     S
C440   C75     1.332   1_565 S
C440   H98     1.088   1_565 S
C441   C442    1.436   .     S
C442   O483    1.278   .     A
C442   O477    1.278   .     A
C443   O478    1.271   .     A
C443   O484    1.271   .     A
C444   O475    1.271   .     A
C444   C447    1.451   .     S
C444   O473    1.274   .     A
C445   O474    1.282   .     A
C445   C446    1.472   .     S
C445   O476    1.284   .     A
C446   C450    1.398   .     A
C448   C453    1.407   .     A
C448   F458    1.358   .     S
C449   N470    1.158   .     T
C450   H469    1.076   .     S
C450   C452    1.408   .     A
C451   N471    1.158   .     T
C452   C454    1.427   .     A
C452   C453    1.418   .     A
C453   C1006   1.392   .     S
C454   C1004   1.418   .     S
C455   C456    1.418   .     A
C455   C1003   1.418   1_554 S
C456   C457    1.387   .     A
C456   H460    1.076   .     S
C457   H459    1.084   .     S
C457   C1002   1.392   1_554 S
H463   C499    1.086   .     S
H465   C75     1.086   1_565 S
O472   Zn487   1.933   .     S
O472   Zn488   1.933   .     S
O472   Zn485   1.960   .     S
O472   Zn486   1.946   .     S
O473   Zn486   1.933   .     S
O474   Zn488   1.944   .     S
O475   Zn487   1.939   .     S
O476   Zn485   1.930   .     S
O477   Zn485   1.928   .     S
O478   Zn488   1.930   .     S
O479   Zn486   1.927   .     S
O480   Zn487   1.937   .     S
O481   Zn488   1.933   .     S
O482   Zn485   1.923   .     S
O483   Zn486   1.936   .     S
O484   Zn487   1.931   .     S
C489   C499    1.438   .     S
C489   O542    1.271   .     A
C489   O540    1.271   .     A
C490   H522    1.079   .     S
C490   C491    1.391   .     A
C490   C515    1.408   .     A
C491   C512    1.447   .     S
C491   C1042   1.420   .     S
C492   O543    1.278   .     A
C492   O541    1.282   .     A
C492   C498    1.456   .     S
C493   C494    1.435   .     A
C493   C495    1.433   .     A
C493   C1040   1.420   1_554 S
C494   C497    1.410   .     A
C494   C516    1.428   .     A
C495   C510    1.445   .     S
C495   C496    1.394   .     A
C496   C508    1.386   .     A
C496   H528    1.086   .     S
C497   C508    1.383   .     A
C497   H527    1.077   .     S
C498   C377    1.335   1_655 S
C498   H401    1.088   1_655 S
C500   C507    1.400   .     A
C500   H529    1.083   .     S
C500   C509    1.393   .     A
C501   C504    1.452   .     S
C501   C136    1.332   1_565 S
C501   H159    1.088   1_565 S
C502   C503    1.436   .     S
C503   O544    1.278   .     A
C503   O538    1.278   .     A
C504   O539    1.271   .     A
C504   O545    1.271   .     A
C505   O536    1.271   .     A
C505   C508    1.451   .     S
C505   O534    1.274   .     A
C506   O535    1.282   .     A
C506   C507    1.472   .     S
C506   O537    1.284   .     A
C507   C511    1.398   .     A
C509   C514    1.407   .     A
C509   F519    1.358   .     S
C510   N531    1.158   .     T
C511   H530    1.076   .     S
C511   C513    1.408   .     A
C512   N532    1.158   .     T
C513   C515    1.427   .     A
C513   C514    1.418   .     A
C514   C1067   1.392   .     S
C515   C1065   1.418   .     S
C516   C517    1.418   .     A
C516   C1064   1.418   1_554 S
C517   C518    1.387   .     A
C517   H521    1.076   .     S
C518   H520    1.084   .     S
C518   C1063   1.392   1_554 S
H524   C377    1.086   1_655 S
H526   C136    1.086   1_565 S
O533   Zn548   1.933   .     S
O533   Zn549   1.933   .     S
O533   Zn546   1.960   .     S
O533   Zn547   1.946   .     S
O534   Zn547   1.933   .     S
O535   Zn549   1.944   .     S
O536   Zn548   1.939   .     S
O537   Zn546   1.930   .     S
O538   Zn546   1.928   .     S
O539   Zn549   1.930   .     S
O540   Zn547   1.927   .     S
O541   Zn548   1.937   .     S
O542   Zn549   1.933   .     S
O543   Zn546   1.923   .     S
O544   Zn547   1.936   .     S
O545   Zn548   1.931   .     S
C550   C560    1.438   .     S
C550   O603    1.271   .     A
C550   O601    1.271   .     A
C551   H583    1.079   .     S
C551   C552    1.391   .     A
C551   C576    1.408   .     A
C552   C573    1.447   .     S
C552   C5      1.420   1_556 S
C553   O604    1.278   .     A
C553   O602    1.282   .     A
C553   C559    1.456   .     S
C554   C555    1.435   .     A
C554   C556    1.433   .     A
C555   C558    1.410   .     A
C555   C577    1.428   .     A
C556   C571    1.445   .     S
C556   C557    1.394   .     A
C557   C569    1.386   .     A
C557   H589    1.086   .     S
C558   C569    1.383   .     A
C558   H588    1.077   .     S
C559   C621    1.335   .     S
C559   H645    1.088   .     S
C560   C681    1.335   1_455 S
C560   H707    1.086   1_455 S
C561   C568    1.400   .     A
C561   H590    1.083   .     S
C561   C570    1.393   .     A
C562   C565    1.452   .     S
C562   C746    1.332   .     S
C562   H769    1.088   .     S
C563   C564    1.436   .     S
C563   C928    1.332   1_545 S
C563   H953    1.086   1_545 S
C564   O605    1.278   .     A
C564   O599    1.278   .     A
C565   O600    1.271   .     A
C565   O606    1.271   .     A
C566   O597    1.271   .     A
C566   C569    1.451   .     S
C566   O595    1.274   .     A
C567   O596    1.282   .     A
C567   C568    1.472   .     S
C567   O598    1.284   .     A
C568   C572    1.398   .     A
C570   C575    1.407   .     A
C570   F580    1.358   .     S
C571   N592    1.158   .     T
C572   H591    1.076   .     S
C572   C574    1.408   .     A
C573   N593    1.158   .     T
C574   C576    1.427   .     A
C574   C575    1.418   .     A
C575   C30     1.392   1_556 S
C576   C28     1.418   1_556 S
C577   C578    1.418   .     A
C578   C579    1.387   .     A
C578   H582    1.076   .     S
C579   H581    1.084   .     S
H584   C681    1.088   1_455 S
H585   C621    1.086   .     S
H586   C928    1.088   1_545 S
H587   C746    1.086   .     S
O594   Zn609   1.933   .     S
O594   Zn610   1.933   .     S
O594   Zn607   1.960   .     S
O594   Zn608   1.946   .     S
O595   Zn608   1.933   .     S
O596   Zn610   1.944   .     S
O597   Zn609   1.939   .     S
O598   Zn607   1.930   .     S
O599   Zn607   1.928   .     S
O600   Zn610   1.930   .     S
O601   Zn608   1.927   .     S
O602   Zn609   1.937   .     S
O603   Zn610   1.933   .     S
O604   Zn607   1.923   .     S
O605   Zn608   1.936   .     S
O606   Zn609   1.931   .     S
C611   C621    1.438   .     S
C611   O664    1.271   .     A
C611   O662    1.271   .     A
C612   H644    1.079   .     S
C612   C613    1.391   .     A
C612   C637    1.408   .     A
C613   C634    1.447   .     S
C613   C66     1.420   1_556 S
C614   O665    1.278   .     A
C614   O663    1.282   .     A
C614   C620    1.456   .     S
C615   C616    1.435   .     A
C615   C617    1.433   .     A
C616   C619    1.410   .     A
C616   C638    1.428   .     A
C617   C632    1.445   .     S
C617   C618    1.394   .     A
C618   C630    1.386   .     A
C618   H650    1.086   .     S
C619   C630    1.383   .     A
C619   H649    1.077   .     S
C620   C682    1.335   .     S
C620   H706    1.088   .     S
C622   C629    1.400   .     A
C622   H651    1.083   .     S
C622   C631    1.393   .     A
C623   C626    1.452   .     S
C623   C807    1.332   .     S
C623   H830    1.088   .     S
C624   C625    1.436   .     S
C624   C989    1.332   1_545 S
C624   H1014   1.086   1_545 S
C625   O666    1.278   .     A
C625   O660    1.278   .     A
C626   O661    1.271   .     A
C626   O667    1.271   .     A
C627   O658    1.271   .     A
C627   C630    1.451   .     S
C627   O656    1.274   .     A
C628   O657    1.282   .     A
C628   C629    1.472   .     S
C628   O659    1.284   .     A
C629   C633    1.398   .     A
C631   C636    1.407   .     A
C631   F641    1.358   .     S
C632   N653    1.158   .     T
C633   H652    1.076   .     S
C633   C635    1.408   .     A
C634   N654    1.158   .     T
C635   C637    1.427   .     A
C635   C636    1.418   .     A
C636   C91     1.392   1_556 S
C637   C89     1.418   1_556 S
C638   C639    1.418   .     A
C639   C640    1.387   .     A
C639   H643    1.076   .     S
C640   H642    1.084   .     S
H646   C682    1.086   .     S
H647   C989    1.088   1_545 S
H648   C807    1.086   .     S
O655   Zn670   1.933   .     S
O655   Zn671   1.933   .     S
O655   Zn668   1.960   .     S
O655   Zn669   1.946   .     S
O656   Zn669   1.933   .     S
O657   Zn671   1.944   .     S
O658   Zn670   1.939   .     S
O659   Zn668   1.930   .     S
O660   Zn668   1.928   .     S
O661   Zn671   1.930   .     S
O662   Zn669   1.927   .     S
O663   Zn670   1.937   .     S
O664   Zn671   1.933   .     S
O665   Zn668   1.923   .     S
O666   Zn669   1.936   .     S
O667   Zn670   1.931   .     S
C672   C682    1.438   .     S
C672   O725    1.271   .     A
C672   O723    1.271   .     A
C673   H705    1.079   .     S
C673   C674    1.391   .     A
C673   C698    1.408   .     A
C674   C695    1.447   .     S
C674   C127    1.420   1_556 S
C675   O726    1.278   .     A
C675   O724    1.282   .     A
C675   C681    1.456   .     S
C676   C677    1.435   .     A
C676   C678    1.433   .     A
C677   C680    1.410   .     A
C677   C699    1.428   .     A
C678   C693    1.445   .     S
C678   C679    1.394   .     A
C679   C691    1.386   .     A
C679   H711    1.086   .     S
C680   C691    1.383   .     A
C680   H710    1.077   .     S
C681   C560    1.335   1_655 S
C681   H584    1.088   1_655 S
C683   C690    1.400   .     A
C683   H712    1.083   .     S
C683   C692    1.393   .     A
C684   C687    1.452   .     S
C684   C868    1.332   .     S
C684   H891    1.088   .     S
C685   C686    1.436   .     S
C685   C1050   1.332   1_545 S
C685   H1075   1.086   1_545 S
C686   O727    1.278   .     A
C686   O721    1.278   .     A
C687   O722    1.271   .     A
C687   O728    1.271   .     A
C688   O719    1.271   .     A
C688   C691    1.451   .     S
C688   O717    1.274   .     A
C689   O718    1.282   .     A
C689   C690    1.472   .     S
C689   O720    1.284   .     A
C690   C694    1.398   .     A
C692   C697    1.407   .     A
C692   F702    1.358   .     S
C693   N714    1.158   .     T
C694   H713    1.076   .     S
C694   C696    1.408   .     A
C695   N715    1.158   .     T
C696   C698    1.427   .     A
C696   C697    1.418   .     A
C697   C152    1.392   1_556 S
C698   C150    1.418   1_556 S
C699   C700    1.418   .     A
C700   C701    1.387   .     A
C700   H704    1.076   .     S
C701   H703    1.084   .     S
H707   C560    1.086   1_655 S
H708   C1050   1.088   1_545 S
H709   C868    1.086   .     S
O716   Zn731   1.933   .     S
O716   Zn732   1.933   .     S
O716   Zn729   1.960   .     S
O716   Zn730   1.946   .     S
O717   Zn730   1.933   .     S
O718   Zn732   1.944   .     S
O719   Zn731   1.939   .     S
O720   Zn729   1.930   .     S
O721   Zn729   1.928   .     S
O722   Zn732   1.930   .     S
O723   Zn730   1.927   .     S
O724   Zn731   1.937   .     S
O725   Zn732   1.933   .     S
O726   Zn729   1.923   .     S
O727   Zn730   1.936   .     S
O728   Zn731   1.931   .     S
C733   C743    1.438   .     S
C733   O786    1.271   .     A
C733   O784    1.271   .     A
C734   H766    1.079   .     S
C734   C735    1.391   .     A
C734   C759    1.408   .     A
C735   C756    1.447   .     S
C735   C188    1.420   1_556 S
C736   O787    1.278   .     A
C736   O785    1.282   .     A
C736   C742    1.456   .     S
C737   C738    1.435   .     A
C737   C739    1.433   .     A
C738   C741    1.410   .     A
C738   C760    1.428   .     A
C739   C754    1.445   .     S
C739   C740    1.394   .     A
C740   C752    1.386   .     A
C740   H772    1.086   .     S
C741   C752    1.383   .     A
C741   H771    1.077   .     S
C742   C804    1.335   .     S
C742   H828    1.088   .     S
C743   C864    1.335   1_455 S
C743   H890    1.086   1_455 S
C744   C751    1.400   .     A
C744   H773    1.083   .     S
C744   C753    1.393   .     A
C745   C748    1.452   .     S
C745   C929    1.332   .     S
C745   H952    1.088   .     S
C746   C747    1.436   .     S
C747   O788    1.278   .     A
C747   O782    1.278   .     A
C748   O783    1.271   .     A
C748   O789    1.271   .     A
C749   O780    1.271   .     A
C749   C752    1.451   .     S
C749   O778    1.274   .     A
C750   O779    1.282   .     A
C750   C751    1.472   .     S
C750   O781    1.284   .     A
C751   C755    1.398   .     A
C753   C758    1.407   .     A
C753   F763    1.358   .     S
C754   N775    1.158   .     T
C755   H774    1.076   .     S
C755   C757    1.408   .     A
C756   N776    1.158   .     T
C757   C759    1.427   .     A
C757   C758    1.418   .     A
C758   C213    1.392   1_556 S
C759   C211    1.418   1_556 S
C760   C761    1.418   .     A
C761   C762    1.387   .     A
C761   H765    1.076   .     S
C762   H764    1.084   .     S
H767   C864    1.088   1_455 S
H768   C804    1.086   .     S
H770   C929    1.086   .     S
O777   Zn792   1.933   .     S
O777   Zn793   1.933   .     S
O777   Zn790   1.960   .     S
O777   Zn791   1.946   .     S
O778   Zn791   1.933   .     S
O779   Zn793   1.944   .     S
O780   Zn792   1.939   .     S
O781   Zn790   1.930   .     S
O782   Zn790   1.928   .     S
O783   Zn793   1.930   .     S
O784   Zn791   1.927   .     S
O785   Zn792   1.937   .     S
O786   Zn793   1.933   .     S
O787   Zn790   1.923   .     S
O788   Zn791   1.936   .     S
O789   Zn792   1.931   .     S
C794   C804    1.438   .     S
C794   O847    1.271   .     A
C794   O845    1.271   .     A
C795   H827    1.079   .     S
C795   C796    1.391   .     A
C795   C820    1.408   .     A
C796   C817    1.447   .     S
C796   C249    1.420   1_556 S
C797   O848    1.278   .     A
C797   O846    1.282   .     A
C797   C803    1.456   .     S
C798   C799    1.435   .     A
C798   C800    1.433   .     A
C799   C802    1.410   .     A
C799   C821    1.428   .     A
C800   C815    1.445   .     S
C800   C801    1.394   .     A
C801   C813    1.386   .     A
C801   H833    1.086   .     S
C802   C813    1.383   .     A
C802   H832    1.077   .     S
C803   C865    1.335   .     S
C803   H889    1.088   .     S
C805   C812    1.400   .     A
C805   H834    1.083   .     S
C805   C814    1.393   .     A
C806   C809    1.452   .     S
C806   C990    1.332   .     S
C806   H1013   1.088   .     S
C807   C808    1.436   .     S
C808   O849    1.278   .     A
C808   O843    1.278   .     A
C809   O844    1.271   .     A
C809   O850    1.271   .     A
C810   O841    1.271   .     A
C810   C813    1.451   .     S
C810   O839    1.274   .     A
C811   O840    1.282   .     A
C811   C812    1.472   .     S
C811   O842    1.284   .     A
C812   C816    1.398   .     A
C814   C819    1.407   .     A
C814   F824    1.358   .     S
C815   N836    1.158   .     T
C816   H835    1.076   .     S
C816   C818    1.408   .     A
C817   N837    1.158   .     T
C818   C820    1.427   .     A
C818   C819    1.418   .     A
C819   C274    1.392   1_556 S
C820   C272    1.418   1_556 S
C821   C822    1.418   .     A
C822   C823    1.387   .     A
C822   H826    1.076   .     S
C823   H825    1.084   .     S
H829   C865    1.086   .     S
H831   C990    1.086   .     S
O838   Zn853   1.933   .     S
O838   Zn854   1.933   .     S
O838   Zn851   1.960   .     S
O838   Zn852   1.946   .     S
O839   Zn852   1.933   .     S
O840   Zn854   1.944   .     S
O841   Zn853   1.939   .     S
O842   Zn851   1.930   .     S
O843   Zn851   1.928   .     S
O844   Zn854   1.930   .     S
O845   Zn852   1.927   .     S
O846   Zn853   1.937   .     S
O847   Zn854   1.933   .     S
O848   Zn851   1.923   .     S
O849   Zn852   1.936   .     S
O850   Zn853   1.931   .     S
C855   C865    1.438   .     S
C855   O908    1.271   .     A
C855   O906    1.271   .     A
C856   H888    1.079   .     S
C856   C857    1.391   .     A
C856   C881    1.408   .     A
C857   C878    1.447   .     S
C857   C310    1.420   1_556 S
C858   O909    1.278   .     A
C858   O907    1.282   .     A
C858   C864    1.456   .     S
C859   C860    1.435   .     A
C859   C861    1.433   .     A
C860   C863    1.410   .     A
C860   C882    1.428   .     A
C861   C876    1.445   .     S
C861   C862    1.394   .     A
C862   C874    1.386   .     A
C862   H894    1.086   .     S
C863   C874    1.383   .     A
C863   H893    1.077   .     S
C864   C743    1.335   1_655 S
C864   H767    1.088   1_655 S
C866   C873    1.400   .     A
C866   H895    1.083   .     S
C866   C875    1.393   .     A
C867   C870    1.452   .     S
C867   C1051   1.332   .     S
C867   H1074   1.088   .     S
C868   C869    1.436   .     S
C869   O910    1.278   .     A
C869   O904    1.278   .     A
C870   O905    1.271   .     A
C870   O911    1.271   .     A
C871   O902    1.271   .     A
C871   C874    1.451   .     S
C871   O900    1.274   .     A
C872   O901    1.282   .     A
C872   C873    1.472   .     S
C872   O903    1.284   .     A
C873   C877    1.398   .     A
C875   C880    1.407   .     A
C875   F885    1.358   .     S
C876   N897    1.158   .     T
C877   H896    1.076   .     S
C877   C879    1.408   .     A
C878   N898    1.158   .     T
C879   C881    1.427   .     A
C879   C880    1.418   .     A
C880   C335    1.392   1_556 S
C881   C333    1.418   1_556 S
C882   C883    1.418   .     A
C883   C884    1.387   .     A
C883   H887    1.076   .     S
C884   H886    1.084   .     S
H890   C743    1.086   1_655 S
H892   C1051   1.086   .     S
O899   Zn914   1.933   .     S
O899   Zn915   1.933   .     S
O899   Zn912   1.960   .     S
O899   Zn913   1.946   .     S
O900   Zn913   1.933   .     S
O901   Zn915   1.944   .     S
O902   Zn914   1.939   .     S
O903   Zn912   1.930   .     S
O904   Zn912   1.928   .     S
O905   Zn915   1.930   .     S
O906   Zn913   1.927   .     S
O907   Zn914   1.937   .     S
O908   Zn915   1.933   .     S
O909   Zn912   1.923   .     S
O910   Zn913   1.936   .     S
O911   Zn914   1.931   .     S
C916   C926    1.438   .     S
C916   O969    1.271   .     A
C916   O967    1.271   .     A
C917   H949    1.079   .     S
C917   C918    1.391   .     A
C917   C942    1.408   .     A
C918   C939    1.447   .     S
C918   C371    1.420   1_556 S
C919   O970    1.278   .     A
C919   O968    1.282   .     A
C919   C925    1.456   .     S
C920   C921    1.435   .     A
C920   C922    1.433   .     A
C921   C924    1.410   .     A
C921   C943    1.428   .     A
C922   C937    1.445   .     S
C922   C923    1.394   .     A
C923   C935    1.386   .     A
C923   H955    1.086   .     S
C924   C935    1.383   .     A
C924   H954    1.077   .     S
C925   C987    1.335   .     S
C925   H1011   1.088   .     S
C926   C1047   1.335   1_455 S
C926   H1073   1.086   1_455 S
C927   C934    1.400   .     A
C927   H956    1.083   .     S
C927   C936    1.393   .     A
C928   C931    1.452   .     S
C928   C563    1.332   1_565 S
C928   H586    1.088   1_565 S
C929   C930    1.436   .     S
C930   O971    1.278   .     A
C930   O965    1.278   .     A
C931   O966    1.271   .     A
C931   O972    1.271   .     A
C932   O963    1.271   .     A
C932   C935    1.451   .     S
C932   O961    1.274   .     A
C933   O962    1.282   .     A
C933   C934    1.472   .     S
C933   O964    1.284   .     A
C934   C938    1.398   .     A
C936   C941    1.407   .     A
C936   F946    1.358   .     S
C937   N958    1.158   .     T
C938   H957    1.076   .     S
C938   C940    1.408   .     A
C939   N959    1.158   .     T
C940   C942    1.427   .     A
C940   C941    1.418   .     A
C941   C396    1.392   1_556 S
C942   C394    1.418   1_556 S
C943   C944    1.418   .     A
C944   C945    1.387   .     A
C944   H948    1.076   .     S
C945   H947    1.084   .     S
H950   C1047   1.088   1_455 S
H951   C987    1.086   .     S
H953   C563    1.086   1_565 S
O960   Zn975   1.933   .     S
O960   Zn976   1.933   .     S
O960   Zn973   1.960   .     S
O960   Zn974   1.946   .     S
O961   Zn974   1.933   .     S
O962   Zn976   1.944   .     S
O963   Zn975   1.939   .     S
O964   Zn973   1.930   .     S
O965   Zn973   1.928   .     S
O966   Zn976   1.930   .     S
O967   Zn974   1.927   .     S
O968   Zn975   1.937   .     S
O969   Zn976   1.933   .     S
O970   Zn973   1.923   .     S
O971   Zn974   1.936   .     S
O972   Zn975   1.931   .     S
C977   C987    1.438   .     S
C977   O1030   1.271   .     A
C977   O1028   1.271   .     A
C978   H1010   1.079   .     S
C978   C979    1.391   .     A
C978   C1003   1.408   .     A
C979   C1000   1.447   .     S
C979   C432    1.420   1_556 S
C980   O1031   1.278   .     A
C980   O1029   1.282   .     A
C980   C986    1.456   .     S
C981   C982    1.435   .     A
C981   C983    1.433   .     A
C982   C985    1.410   .     A
C982   C1004   1.428   .     A
C983   C998    1.445   .     S
C983   C984    1.394   .     A
C984   C996    1.386   .     A
C984   H1016   1.086   .     S
C985   C996    1.383   .     A
C985   H1015   1.077   .     S
C986   C1048   1.335   .     S
C986   H1072   1.088   .     S
C988   C995    1.400   .     A
C988   H1017   1.083   .     S
C988   C997    1.393   .     A
C989   C992    1.452   .     S
C989   C624    1.332   1_565 S
C989   H647    1.088   1_565 S
C990   C991    1.436   .     S
C991   O1032   1.278   .     A
C991   O1026   1.278   .     A
C992   O1027   1.271   .     A
C992   O1033   1.271   .     A
C993   O1024   1.271   .     A
C993   C996    1.451   .     S
C993   O1022   1.274   .     A
C994   O1023   1.282   .     A
C994   C995    1.472   .     S
C994   O1025   1.284   .     A
C995   C999    1.398   .     A
C997   C1002   1.407   .     A
C997   F1007   1.358   .     S
C998   N1019   1.158   .     T
C999   H1018   1.076   .     S
C999   C1001   1.408   .     A
C1000  N1020   1.158   .     T
C1001  C1003   1.427   .     A
C1001  C1002   1.418   .     A
C1002  C457    1.392   1_556 S
C1003  C455    1.418   1_556 S
C1004  C1005   1.418   .     A
C1005  C1006   1.387   .     A
C1005  H1009   1.076   .     S
C1006  H1008   1.084   .     S
H1012  C1048   1.086   .     S
H1014  C624    1.086   1_565 S
O1021  Zn1036  1.933   .     S
O1021  Zn1037  1.933   .     S
O1021  Zn1034  1.960   .     S
O1021  Zn1035  1.946   .     S
O1022  Zn1035  1.933   .     S
O1023  Zn1037  1.944   .     S
O1024  Zn1036  1.939   .     S
O1025  Zn1034  1.930   .     S
O1026  Zn1034  1.928   .     S
O1027  Zn1037  1.930   .     S
O1028  Zn1035  1.927   .     S
O1029  Zn1036  1.937   .     S
O1030  Zn1037  1.933   .     S
O1031  Zn1034  1.923   .     S
O1032  Zn1035  1.936   .     S
O1033  Zn1036  1.931   .     S
C1038  C1048   1.438   .     S
C1038  O1091   1.271   .     A
C1038  O1089   1.271   .     A
C1039  H1071   1.079   .     S
C1039  C1040   1.391   .     A
C1039  C1064   1.408   .     A
C1040  C1061   1.447   .     S
C1040  C493    1.420   1_556 S
C1041  O1092   1.278   .     A
C1041  O1090   1.282   .     A
C1041  C1047   1.456   .     S
C1042  C1043   1.435   .     A
C1042  C1044   1.433   .     A
C1043  C1046   1.410   .     A
C1043  C1065   1.428   .     A
C1044  C1059   1.445   .     S
C1044  C1045   1.394   .     A
C1045  C1057   1.386   .     A
C1045  H1077   1.086   .     S
C1046  C1057   1.383   .     A
C1046  H1076   1.077   .     S
C1047  C926    1.335   1_655 S
C1047  H950    1.088   1_655 S
C1049  C1056   1.400   .     A
C1049  H1078   1.083   .     S
C1049  C1058   1.393   .     A
C1050  C1053   1.452   .     S
C1050  C685    1.332   1_565 S
C1050  H708    1.088   1_565 S
C1051  C1052   1.436   .     S
C1052  O1093   1.278   .     A
C1052  O1087   1.278   .     A
C1053  O1088   1.271   .     A
C1053  O1094   1.271   .     A
C1054  O1085   1.271   .     A
C1054  C1057   1.451   .     S
C1054  O1083   1.274   .     A
C1055  O1084   1.282   .     A
C1055  C1056   1.472   .     S
C1055  O1086   1.284   .     A
C1056  C1060   1.398   .     A
C1058  C1063   1.407   .     A
C1058  F1068   1.358   .     S
C1059  N1080   1.158   .     T
C1060  H1079   1.076   .     S
C1060  C1062   1.408   .     A
C1061  N1081   1.158   .     T
C1062  C1064   1.427   .     A
C1062  C1063   1.418   .     A
C1063  C518    1.392   1_556 S
C1064  C516    1.418   1_556 S
C1065  C1066   1.418   .     A
C1066  C1067   1.387   .     A
C1066  H1070   1.076   .     S
C1067  H1069   1.084   .     S
H1073  C926    1.086   1_655 S
H1075  C685    1.086   1_565 S
O1082  Zn1097  1.933   .     S
O1082  Zn1098  1.933   .     S
O1082  Zn1095  1.960   .     S
O1082  Zn1096  1.946   .     S
O1083  Zn1096  1.933   .     S
O1084  Zn1098  1.944   .     S
O1085  Zn1097  1.939   .     S
O1086  Zn1095  1.930   .     S
O1087  Zn1095  1.928   .     S
O1088  Zn1098  1.930   .     S
O1089  Zn1096  1.927   .     S
O1090  Zn1097  1.937   .     S
O1091  Zn1098  1.933   .     S
O1092  Zn1095  1.923   .     S
O1093  Zn1096  1.936   .     S
O1094  Zn1097  1.931   .     S
