data_str_m2_o1_o10_pcu_sym.4
_audit_creation_date              2020-01-03
_audit_creation_method            'Materials Studio'
_symmetry_space_group_name_H-M    'P1'
_symmetry_Int_Tables_number       1
_symmetry_cell_setting            triclinic
loop_
_symmetry_equiv_pos_as_xyz
  x,y,z
_cell_length_a                    26.1541
_cell_length_b                    32.4625
_cell_length_c                    28.9395
_cell_angle_alpha                 89.5932
_cell_angle_beta                  97.6145
_cell_angle_gamma                 92.3920
loop_
_atom_site_label
_atom_site_type_symbol
_atom_site_fract_x
_atom_site_fract_y
_atom_site_fract_z
_atom_site_U_iso_or_equiv
_atom_site_adp_type
_atom_site_occupancy
C1     C     0.16720   0.08755   0.16690   0.00000  Uiso   1.00
C2     C     0.19118   0.02140   0.20620   0.00000  Uiso   1.00
C3     C     0.16581   0.29044   0.16605   0.00000  Uiso   1.00
C4     C     0.16753   0.04289   0.16728   0.00000  Uiso   1.00
C5     C     0.13442   0.14031   0.02125   0.00000  Uiso   1.00
C6     C     0.19891   0.19302   0.31208   0.00000  Uiso   1.00
C7     C     0.13502   0.13955   0.30567   0.00000  Uiso   1.00
C8     C     0.19831   0.19379   0.02767   0.00000  Uiso   1.00
C9     C     0.16613   0.24578   0.16643   0.00000  Uiso   1.00
C10    C     0.06809   0.16653   0.15472   0.00000  Uiso   1.00
C11    C     0.26524   0.16681   0.17861   0.00000  Uiso   1.00
C12    C     0.01277   0.16626   0.14820   0.00000  Uiso   1.00
C13    C     0.32057   0.16707   0.18513   0.00000  Uiso   1.00
C14    C     0.14347   0.02140   0.12803   0.00000  Uiso   1.00
C15    C     0.18987   0.31193   0.20530   0.00000  Uiso   1.00
C16    C     0.14215   0.31193   0.12713   0.00000  Uiso   1.00
Cl17   Cl    0.09014   0.10666   0.04499   0.00000  Uiso   1.00
Cl18   Cl    0.24319   0.22667   0.28835   0.00000  Uiso   1.00
Cu19   Cu    0.16667   0.16667   0.21355   0.00000  Uiso   1.00
Cu20   Cu    0.16667   0.16666   0.11978   0.00000  Uiso   1.00
H21    H     0.32631   0.16529   0.11272   0.00000  Uiso   1.00
H22    H     0.07745   0.12013   0.25394   0.00000  Uiso   1.00
H23    H     0.20755   0.24773   0.06436   0.00000  Uiso   1.00
H24    H     0.25586   0.21321   0.07940   0.00000  Uiso   1.00
H25    H     0.00702   0.16804   0.22061   0.00000  Uiso   1.00
H26    H     0.12474   0.03772   0.09820   0.00000  Uiso   1.00
H27    H     0.20859   0.29561   0.23513   0.00000  Uiso   1.00
H28    H     0.13200   0.30023   0.05797   0.00000  Uiso   1.00
H29    H     0.07703   0.29921   0.08285   0.00000  Uiso   1.00
H30    H     0.20133   0.03310   0.27537   0.00000  Uiso   1.00
H31    H     0.25631   0.03412   0.25049   0.00000  Uiso   1.00
H32    H     0.12576   0.08561   0.26896   0.00000  Uiso   1.00
N33    N     0.16668   0.16668   0.28403   0.00000  Uiso   1.00
N34    N     0.16665   0.16666   0.04931   0.00000  Uiso   1.00
N35    N     0.11542   0.29051   0.08735   0.00000  Uiso   1.00
N36    N     0.21792   0.04283   0.24598   0.00000  Uiso   1.00
N37    N     0.10316   0.10807   0.28046   0.00000  Uiso   1.00
N38    N     0.23016   0.22527   0.05287   0.00000  Uiso   1.00
O39    O     0.16666   0.10655   0.20625   0.00000  Uiso   1.00
O40    O     0.16667   0.22678   0.12709   0.00000  Uiso   1.00
O41    O     0.16666   0.10654   0.12706   0.00000  Uiso   1.00
O42    O     0.16667   0.22679   0.20628   0.00000  Uiso   1.00
O43    O     0.09161   0.16667   0.19712   0.00000  Uiso   1.00
O44    O     0.24172   0.16666   0.13621   0.00000  Uiso   1.00
O45    O     0.09161   0.16666   0.11793   0.00000  Uiso   1.00
O46    O     0.24172   0.16667   0.21540   0.00000  Uiso   1.00
C47    C     0.50054   0.08755   0.16690   0.00000  Uiso   1.00
C48    C     0.52452   0.02140   0.20620   0.00000  Uiso   1.00
C49    C     0.49914   0.29044   0.16605   0.00000  Uiso   1.00
C50    C     0.50086   0.04289   0.16728   0.00000  Uiso   1.00
C51    C     0.46776   0.14031   0.02125   0.00000  Uiso   1.00
C52    C     0.53224   0.19302   0.31208   0.00000  Uiso   1.00
C53    C     0.46835   0.13955   0.30567   0.00000  Uiso   1.00
C54    C     0.53165   0.19379   0.02767   0.00000  Uiso   1.00
C55    C     0.49947   0.24578   0.16643   0.00000  Uiso   1.00
C56    C     0.40143   0.16653   0.15472   0.00000  Uiso   1.00
C57    C     0.59857   0.16681   0.17861   0.00000  Uiso   1.00
C58    C     0.34610   0.16626   0.14820   0.00000  Uiso   1.00
C59    C     0.65390   0.16707   0.18513   0.00000  Uiso   1.00
C60    C     0.47680   0.02140   0.12803   0.00000  Uiso   1.00
C61    C     0.52320   0.31193   0.20530   0.00000  Uiso   1.00
C62    C     0.47548   0.31193   0.12713   0.00000  Uiso   1.00
Cl63   Cl    0.42348   0.10666   0.04499   0.00000  Uiso   1.00
Cl64   Cl    0.57652   0.22667   0.28835   0.00000  Uiso   1.00
Cu65   Cu    0.50000   0.16667   0.21355   0.00000  Uiso   1.00
Cu66   Cu    0.50000   0.16666   0.11978   0.00000  Uiso   1.00
H67    H     0.65965   0.16529   0.11272   0.00000  Uiso   1.00
H68    H     0.41079   0.12013   0.25394   0.00000  Uiso   1.00
H69    H     0.54089   0.24773   0.06436   0.00000  Uiso   1.00
H70    H     0.58919   0.21321   0.07940   0.00000  Uiso   1.00
H71    H     0.34036   0.16804   0.22061   0.00000  Uiso   1.00
H72    H     0.45808   0.03772   0.09820   0.00000  Uiso   1.00
H73    H     0.54192   0.29561   0.23513   0.00000  Uiso   1.00
H74    H     0.46534   0.30023   0.05797   0.00000  Uiso   1.00
H75    H     0.41036   0.29921   0.08285   0.00000  Uiso   1.00
H76    H     0.53466   0.03310   0.27537   0.00000  Uiso   1.00
H77    H     0.58964   0.03412   0.25049   0.00000  Uiso   1.00
H78    H     0.45909   0.08561   0.26896   0.00000  Uiso   1.00
N79    N     0.50001   0.16668   0.28403   0.00000  Uiso   1.00
N80    N     0.49999   0.16666   0.04931   0.00000  Uiso   1.00
N81    N     0.44875   0.29051   0.08735   0.00000  Uiso   1.00
N82    N     0.55125   0.04283   0.24598   0.00000  Uiso   1.00
N83    N     0.43649   0.10807   0.28046   0.00000  Uiso   1.00
N84    N     0.56350   0.22527   0.05287   0.00000  Uiso   1.00
O85    O     0.50000   0.10655   0.20625   0.00000  Uiso   1.00
O86    O     0.50000   0.22678   0.12709   0.00000  Uiso   1.00
O87    O     0.50000   0.10654   0.12706   0.00000  Uiso   1.00
O88    O     0.50000   0.22679   0.20628   0.00000  Uiso   1.00
O89    O     0.42495   0.16667   0.19712   0.00000  Uiso   1.00
O90    O     0.57505   0.16666   0.13621   0.00000  Uiso   1.00
O91    O     0.42494   0.16666   0.11793   0.00000  Uiso   1.00
O92    O     0.57506   0.16667   0.21540   0.00000  Uiso   1.00
C93    C     0.83387   0.08755   0.16690   0.00000  Uiso   1.00
C94    C     0.85785   0.02140   0.20620   0.00000  Uiso   1.00
C95    C     0.83247   0.29044   0.16605   0.00000  Uiso   1.00
C96    C     0.83419   0.04289   0.16728   0.00000  Uiso   1.00
C97    C     0.80109   0.14031   0.02125   0.00000  Uiso   1.00
C98    C     0.86558   0.19302   0.31208   0.00000  Uiso   1.00
C99    C     0.80169   0.13955   0.30567   0.00000  Uiso   1.00
C100   C     0.86498   0.19379   0.02767   0.00000  Uiso   1.00
C101   C     0.83280   0.24578   0.16643   0.00000  Uiso   1.00
C102   C     0.73476   0.16653   0.15472   0.00000  Uiso   1.00
C103   C     0.93191   0.16681   0.17861   0.00000  Uiso   1.00
C104   C     0.67943   0.16626   0.14820   0.00000  Uiso   1.00
C105   C     0.98723   0.16707   0.18513   0.00000  Uiso   1.00
C106   C     0.81013   0.02140   0.12803   0.00000  Uiso   1.00
C107   C     0.85653   0.31193   0.20530   0.00000  Uiso   1.00
C108   C     0.80882   0.31193   0.12713   0.00000  Uiso   1.00
Cl109  Cl    0.75681   0.10666   0.04499   0.00000  Uiso   1.00
Cl110  Cl    0.90986   0.22667   0.28835   0.00000  Uiso   1.00
Cu111  Cu    0.83333   0.16667   0.21355   0.00000  Uiso   1.00
Cu112  Cu    0.83333   0.16666   0.11978   0.00000  Uiso   1.00
H113   H     0.99298   0.16529   0.11272   0.00000  Uiso   1.00
H114   H     0.74412   0.12013   0.25394   0.00000  Uiso   1.00
H115   H     0.87422   0.24773   0.06436   0.00000  Uiso   1.00
H116   H     0.92253   0.21321   0.07940   0.00000  Uiso   1.00
H117   H     0.67369   0.16804   0.22061   0.00000  Uiso   1.00
H118   H     0.79141   0.03772   0.09820   0.00000  Uiso   1.00
H119   H     0.87526   0.29561   0.23513   0.00000  Uiso   1.00
H120   H     0.79867   0.30023   0.05797   0.00000  Uiso   1.00
H121   H     0.74369   0.29921   0.08285   0.00000  Uiso   1.00
H122   H     0.86799   0.03310   0.27537   0.00000  Uiso   1.00
H123   H     0.92297   0.03412   0.25049   0.00000  Uiso   1.00
H124   H     0.79243   0.08561   0.26896   0.00000  Uiso   1.00
N125   N     0.83335   0.16668   0.28403   0.00000  Uiso   1.00
N126   N     0.83332   0.16666   0.04931   0.00000  Uiso   1.00
N127   N     0.78209   0.29051   0.08735   0.00000  Uiso   1.00
N128   N     0.88458   0.04283   0.24598   0.00000  Uiso   1.00
N129   N     0.76983   0.10807   0.28046   0.00000  Uiso   1.00
N130   N     0.89683   0.22527   0.05287   0.00000  Uiso   1.00
O131   O     0.83333   0.10655   0.20625   0.00000  Uiso   1.00
O132   O     0.83334   0.22678   0.12709   0.00000  Uiso   1.00
O133   O     0.83333   0.10654   0.12706   0.00000  Uiso   1.00
O134   O     0.83334   0.22679   0.20628   0.00000  Uiso   1.00
O135   O     0.75828   0.16667   0.19712   0.00000  Uiso   1.00
O136   O     0.90839   0.16666   0.13621   0.00000  Uiso   1.00
O137   O     0.75828   0.16666   0.11793   0.00000  Uiso   1.00
O138   O     0.90839   0.16667   0.21540   0.00000  Uiso   1.00
C139   C     0.16720   0.42089   0.16690   0.00000  Uiso   1.00
C140   C     0.19118   0.35474   0.20620   0.00000  Uiso   1.00
C141   C     0.16581   0.62378   0.16605   0.00000  Uiso   1.00
C142   C     0.16753   0.37622   0.16728   0.00000  Uiso   1.00
C143   C     0.13442   0.47365   0.02125   0.00000  Uiso   1.00
C144   C     0.19891   0.52635   0.31208   0.00000  Uiso   1.00
C145   C     0.13502   0.47288   0.30567   0.00000  Uiso   1.00
C146   C     0.19831   0.52712   0.02767   0.00000  Uiso   1.00
C147   C     0.16613   0.57911   0.16643   0.00000  Uiso   1.00
C148   C     0.06809   0.49986   0.15472   0.00000  Uiso   1.00
C149   C     0.26524   0.50014   0.17861   0.00000  Uiso   1.00
C150   C     0.01277   0.49959   0.14820   0.00000  Uiso   1.00
C151   C     0.32057   0.50040   0.18513   0.00000  Uiso   1.00
C152   C     0.14347   0.35473   0.12803   0.00000  Uiso   1.00
C153   C     0.18987   0.64527   0.20530   0.00000  Uiso   1.00
C154   C     0.14215   0.64526   0.12713   0.00000  Uiso   1.00
Cl155  Cl    0.09014   0.44000   0.04499   0.00000  Uiso   1.00
Cl156  Cl    0.24319   0.56000   0.28835   0.00000  Uiso   1.00
Cu157  Cu    0.16667   0.50001   0.21355   0.00000  Uiso   1.00
Cu158  Cu    0.16667   0.49999   0.11978   0.00000  Uiso   1.00
H159   H     0.32631   0.49862   0.11272   0.00000  Uiso   1.00
H160   H     0.07745   0.45347   0.25394   0.00000  Uiso   1.00
H161   H     0.20755   0.58106   0.06436   0.00000  Uiso   1.00
H162   H     0.25586   0.54655   0.07940   0.00000  Uiso   1.00
H163   H     0.00702   0.50137   0.22061   0.00000  Uiso   1.00
H164   H     0.12474   0.37106   0.09820   0.00000  Uiso   1.00
H165   H     0.20859   0.62894   0.23513   0.00000  Uiso   1.00
H166   H     0.13200   0.63357   0.05797   0.00000  Uiso   1.00
H167   H     0.07703   0.63254   0.08285   0.00000  Uiso   1.00
H168   H     0.20133   0.36644   0.27537   0.00000  Uiso   1.00
H169   H     0.25631   0.36746   0.25049   0.00000  Uiso   1.00
H170   H     0.12576   0.41895   0.26896   0.00000  Uiso   1.00
N171   N     0.16668   0.50001   0.28403   0.00000  Uiso   1.00
N172   N     0.16665   0.49999   0.04931   0.00000  Uiso   1.00
N173   N     0.11542   0.62384   0.08735   0.00000  Uiso   1.00
N174   N     0.21792   0.37616   0.24598   0.00000  Uiso   1.00
N175   N     0.10316   0.44140   0.28046   0.00000  Uiso   1.00
N176   N     0.23016   0.55861   0.05287   0.00000  Uiso   1.00
O177   O     0.16666   0.43989   0.20625   0.00000  Uiso   1.00
O178   O     0.16667   0.56011   0.12709   0.00000  Uiso   1.00
O179   O     0.16666   0.43988   0.12706   0.00000  Uiso   1.00
O180   O     0.16667   0.56012   0.20628   0.00000  Uiso   1.00
O181   O     0.09161   0.50000   0.19712   0.00000  Uiso   1.00
O182   O     0.24172   0.50000   0.13621   0.00000  Uiso   1.00
O183   O     0.09161   0.49999   0.11793   0.00000  Uiso   1.00
O184   O     0.24172   0.50001   0.21540   0.00000  Uiso   1.00
C185   C     0.50054   0.42089   0.16690   0.00000  Uiso   1.00
C186   C     0.52452   0.35474   0.20620   0.00000  Uiso   1.00
C187   C     0.49914   0.62378   0.16605   0.00000  Uiso   1.00
C188   C     0.50086   0.37622   0.16728   0.00000  Uiso   1.00
C189   C     0.46776   0.47365   0.02125   0.00000  Uiso   1.00
C190   C     0.53224   0.52635   0.31208   0.00000  Uiso   1.00
C191   C     0.46835   0.47288   0.30567   0.00000  Uiso   1.00
C192   C     0.53165   0.52712   0.02767   0.00000  Uiso   1.00
C193   C     0.49947   0.57911   0.16643   0.00000  Uiso   1.00
C194   C     0.40143   0.49986   0.15472   0.00000  Uiso   1.00
C195   C     0.59857   0.50014   0.17861   0.00000  Uiso   1.00
C196   C     0.34610   0.49959   0.14820   0.00000  Uiso   1.00
C197   C     0.65390   0.50040   0.18513   0.00000  Uiso   1.00
C198   C     0.47680   0.35473   0.12803   0.00000  Uiso   1.00
C199   C     0.52320   0.64527   0.20530   0.00000  Uiso   1.00
C200   C     0.47548   0.64526   0.12713   0.00000  Uiso   1.00
Cl201  Cl    0.42348   0.44000   0.04499   0.00000  Uiso   1.00
Cl202  Cl    0.57652   0.56000   0.28835   0.00000  Uiso   1.00
Cu203  Cu    0.50000   0.50001   0.21355   0.00000  Uiso   1.00
Cu204  Cu    0.50000   0.49999   0.11978   0.00000  Uiso   1.00
H205   H     0.65965   0.49862   0.11272   0.00000  Uiso   1.00
H206   H     0.41079   0.45347   0.25394   0.00000  Uiso   1.00
H207   H     0.54089   0.58106   0.06436   0.00000  Uiso   1.00
H208   H     0.58919   0.54655   0.07940   0.00000  Uiso   1.00
H209   H     0.34036   0.50137   0.22061   0.00000  Uiso   1.00
H210   H     0.45808   0.37106   0.09820   0.00000  Uiso   1.00
H211   H     0.54192   0.62894   0.23513   0.00000  Uiso   1.00
H212   H     0.46534   0.63357   0.05797   0.00000  Uiso   1.00
H213   H     0.41036   0.63254   0.08285   0.00000  Uiso   1.00
H214   H     0.53466   0.36644   0.27537   0.00000  Uiso   1.00
H215   H     0.58964   0.36746   0.25049   0.00000  Uiso   1.00
H216   H     0.45909   0.41895   0.26896   0.00000  Uiso   1.00
N217   N     0.50001   0.50001   0.28403   0.00000  Uiso   1.00
N218   N     0.49999   0.49999   0.04931   0.00000  Uiso   1.00
N219   N     0.44875   0.62384   0.08735   0.00000  Uiso   1.00
N220   N     0.55125   0.37616   0.24598   0.00000  Uiso   1.00
N221   N     0.43649   0.44140   0.28046   0.00000  Uiso   1.00
N222   N     0.56350   0.55861   0.05287   0.00000  Uiso   1.00
O223   O     0.50000   0.43989   0.20625   0.00000  Uiso   1.00
O224   O     0.50000   0.56011   0.12709   0.00000  Uiso   1.00
O225   O     0.50000   0.43988   0.12706   0.00000  Uiso   1.00
O226   O     0.50000   0.56012   0.20628   0.00000  Uiso   1.00
O227   O     0.42495   0.50000   0.19712   0.00000  Uiso   1.00
O228   O     0.57505   0.50000   0.13621   0.00000  Uiso   1.00
O229   O     0.42494   0.49999   0.11793   0.00000  Uiso   1.00
O230   O     0.57506   0.50001   0.21540   0.00000  Uiso   1.00
C231   C     0.83387   0.42089   0.16690   0.00000  Uiso   1.00
C232   C     0.85785   0.35474   0.20620   0.00000  Uiso   1.00
C233   C     0.83247   0.62378   0.16605   0.00000  Uiso   1.00
C234   C     0.83419   0.37622   0.16728   0.00000  Uiso   1.00
C235   C     0.80109   0.47365   0.02125   0.00000  Uiso   1.00
C236   C     0.86558   0.52635   0.31208   0.00000  Uiso   1.00
C237   C     0.80169   0.47288   0.30567   0.00000  Uiso   1.00
C238   C     0.86498   0.52712   0.02767   0.00000  Uiso   1.00
C239   C     0.83280   0.57911   0.16643   0.00000  Uiso   1.00
C240   C     0.73476   0.49986   0.15472   0.00000  Uiso   1.00
C241   C     0.93191   0.50014   0.17861   0.00000  Uiso   1.00
C242   C     0.67943   0.49959   0.14820   0.00000  Uiso   1.00
C243   C     0.98723   0.50040   0.18513   0.00000  Uiso   1.00
C244   C     0.81013   0.35473   0.12803   0.00000  Uiso   1.00
C245   C     0.85653   0.64527   0.20530   0.00000  Uiso   1.00
C246   C     0.80882   0.64526   0.12713   0.00000  Uiso   1.00
Cl247  Cl    0.75681   0.44000   0.04499   0.00000  Uiso   1.00
Cl248  Cl    0.90986   0.56000   0.28835   0.00000  Uiso   1.00
Cu249  Cu    0.83333   0.50001   0.21355   0.00000  Uiso   1.00
Cu250  Cu    0.83333   0.49999   0.11978   0.00000  Uiso   1.00
H251   H     0.99298   0.49862   0.11272   0.00000  Uiso   1.00
H252   H     0.74412   0.45347   0.25394   0.00000  Uiso   1.00
H253   H     0.87422   0.58106   0.06436   0.00000  Uiso   1.00
H254   H     0.92253   0.54655   0.07940   0.00000  Uiso   1.00
H255   H     0.67369   0.50137   0.22061   0.00000  Uiso   1.00
H256   H     0.79141   0.37106   0.09820   0.00000  Uiso   1.00
H257   H     0.87526   0.62894   0.23513   0.00000  Uiso   1.00
H258   H     0.79867   0.63357   0.05797   0.00000  Uiso   1.00
H259   H     0.74369   0.63254   0.08285   0.00000  Uiso   1.00
H260   H     0.86799   0.36644   0.27537   0.00000  Uiso   1.00
H261   H     0.92297   0.36746   0.25049   0.00000  Uiso   1.00
H262   H     0.79243   0.41895   0.26896   0.00000  Uiso   1.00
N263   N     0.83335   0.50001   0.28403   0.00000  Uiso   1.00
N264   N     0.83332   0.49999   0.04931   0.00000  Uiso   1.00
N265   N     0.78209   0.62384   0.08735   0.00000  Uiso   1.00
N266   N     0.88458   0.37616   0.24598   0.00000  Uiso   1.00
N267   N     0.76983   0.44140   0.28046   0.00000  Uiso   1.00
N268   N     0.89683   0.55861   0.05287   0.00000  Uiso   1.00
O269   O     0.83333   0.43989   0.20625   0.00000  Uiso   1.00
O270   O     0.83334   0.56011   0.12709   0.00000  Uiso   1.00
O271   O     0.83333   0.43988   0.12706   0.00000  Uiso   1.00
O272   O     0.83334   0.56012   0.20628   0.00000  Uiso   1.00
O273   O     0.75828   0.50000   0.19712   0.00000  Uiso   1.00
O274   O     0.90839   0.50000   0.13621   0.00000  Uiso   1.00
O275   O     0.75828   0.49999   0.11793   0.00000  Uiso   1.00
O276   O     0.90839   0.50001   0.21540   0.00000  Uiso   1.00
C277   C     0.16720   0.75422   0.16690   0.00000  Uiso   1.00
C278   C     0.19118   0.68807   0.20620   0.00000  Uiso   1.00
C279   C     0.16581   0.95711   0.16605   0.00000  Uiso   1.00
C280   C     0.16753   0.70956   0.16728   0.00000  Uiso   1.00
C281   C     0.13442   0.80698   0.02125   0.00000  Uiso   1.00
C282   C     0.19891   0.85969   0.31208   0.00000  Uiso   1.00
C283   C     0.13502   0.80622   0.30567   0.00000  Uiso   1.00
C284   C     0.19831   0.86045   0.02767   0.00000  Uiso   1.00
C285   C     0.16613   0.91245   0.16643   0.00000  Uiso   1.00
C286   C     0.06809   0.83319   0.15472   0.00000  Uiso   1.00
C287   C     0.26524   0.83347   0.17861   0.00000  Uiso   1.00
C288   C     0.01277   0.83293   0.14820   0.00000  Uiso   1.00
C289   C     0.32057   0.83374   0.18513   0.00000  Uiso   1.00
C290   C     0.14347   0.68807   0.12803   0.00000  Uiso   1.00
C291   C     0.18987   0.97860   0.20530   0.00000  Uiso   1.00
C292   C     0.14215   0.97860   0.12713   0.00000  Uiso   1.00
Cl293  Cl    0.09014   0.77333   0.04499   0.00000  Uiso   1.00
Cl294  Cl    0.24319   0.89334   0.28835   0.00000  Uiso   1.00
Cu295  Cu    0.16667   0.83334   0.21355   0.00000  Uiso   1.00
Cu296  Cu    0.16667   0.83333   0.11978   0.00000  Uiso   1.00
H297   H     0.32631   0.83196   0.11272   0.00000  Uiso   1.00
H298   H     0.07745   0.78680   0.25394   0.00000  Uiso   1.00
H299   H     0.20755   0.91439   0.06436   0.00000  Uiso   1.00
H300   H     0.25586   0.87988   0.07940   0.00000  Uiso   1.00
H301   H     0.00702   0.83471   0.22061   0.00000  Uiso   1.00
H302   H     0.12474   0.70439   0.09820   0.00000  Uiso   1.00
H303   H     0.20859   0.96228   0.23513   0.00000  Uiso   1.00
H304   H     0.13200   0.96690   0.05797   0.00000  Uiso   1.00
H305   H     0.07703   0.96587   0.08285   0.00000  Uiso   1.00
H306   H     0.20133   0.69977   0.27537   0.00000  Uiso   1.00
H307   H     0.25631   0.70079   0.25049   0.00000  Uiso   1.00
H308   H     0.12576   0.75228   0.26896   0.00000  Uiso   1.00
N309   N     0.16668   0.83334   0.28403   0.00000  Uiso   1.00
N310   N     0.16665   0.83332   0.04931   0.00000  Uiso   1.00
N311   N     0.11542   0.95717   0.08735   0.00000  Uiso   1.00
N312   N     0.21792   0.70949   0.24598   0.00000  Uiso   1.00
N313   N     0.10316   0.77473   0.28046   0.00000  Uiso   1.00
N314   N     0.23016   0.89194   0.05287   0.00000  Uiso   1.00
O315   O     0.16666   0.77322   0.20625   0.00000  Uiso   1.00
O316   O     0.16667   0.89345   0.12709   0.00000  Uiso   1.00
O317   O     0.16666   0.77321   0.12706   0.00000  Uiso   1.00
O318   O     0.16667   0.89346   0.20628   0.00000  Uiso   1.00
O319   O     0.09161   0.83334   0.19712   0.00000  Uiso   1.00
O320   O     0.24172   0.83333   0.13621   0.00000  Uiso   1.00
O321   O     0.09161   0.83333   0.11793   0.00000  Uiso   1.00
O322   O     0.24172   0.83334   0.21540   0.00000  Uiso   1.00
C323   C     0.50054   0.75422   0.16690   0.00000  Uiso   1.00
C324   C     0.52452   0.68807   0.20620   0.00000  Uiso   1.00
C325   C     0.49914   0.95711   0.16605   0.00000  Uiso   1.00
C326   C     0.50086   0.70956   0.16728   0.00000  Uiso   1.00
C327   C     0.46776   0.80698   0.02125   0.00000  Uiso   1.00
C328   C     0.53224   0.85969   0.31208   0.00000  Uiso   1.00
C329   C     0.46835   0.80622   0.30567   0.00000  Uiso   1.00
C330   C     0.53165   0.86045   0.02767   0.00000  Uiso   1.00
C331   C     0.49947   0.91245   0.16643   0.00000  Uiso   1.00
C332   C     0.40143   0.83319   0.15472   0.00000  Uiso   1.00
C333   C     0.59857   0.83347   0.17861   0.00000  Uiso   1.00
C334   C     0.34610   0.83293   0.14820   0.00000  Uiso   1.00
C335   C     0.65390   0.83374   0.18513   0.00000  Uiso   1.00
C336   C     0.47680   0.68807   0.12803   0.00000  Uiso   1.00
C337   C     0.52320   0.97860   0.20530   0.00000  Uiso   1.00
C338   C     0.47548   0.97860   0.12713   0.00000  Uiso   1.00
Cl339  Cl    0.42348   0.77333   0.04499   0.00000  Uiso   1.00
Cl340  Cl    0.57652   0.89334   0.28835   0.00000  Uiso   1.00
Cu341  Cu    0.50000   0.83334   0.21355   0.00000  Uiso   1.00
Cu342  Cu    0.50000   0.83333   0.11978   0.00000  Uiso   1.00
H343   H     0.65965   0.83196   0.11272   0.00000  Uiso   1.00
H344   H     0.41079   0.78680   0.25394   0.00000  Uiso   1.00
H345   H     0.54089   0.91439   0.06436   0.00000  Uiso   1.00
H346   H     0.58919   0.87988   0.07940   0.00000  Uiso   1.00
H347   H     0.34036   0.83471   0.22061   0.00000  Uiso   1.00
H348   H     0.45808   0.70439   0.09820   0.00000  Uiso   1.00
H349   H     0.54192   0.96228   0.23513   0.00000  Uiso   1.00
H350   H     0.46534   0.96690   0.05797   0.00000  Uiso   1.00
H351   H     0.41036   0.96587   0.08285   0.00000  Uiso   1.00
H352   H     0.53466   0.69977   0.27537   0.00000  Uiso   1.00
H353   H     0.58964   0.70079   0.25049   0.00000  Uiso   1.00
H354   H     0.45909   0.75228   0.26896   0.00000  Uiso   1.00
N355   N     0.50001   0.83334   0.28403   0.00000  Uiso   1.00
N356   N     0.49999   0.83332   0.04931   0.00000  Uiso   1.00
N357   N     0.44875   0.95717   0.08735   0.00000  Uiso   1.00
N358   N     0.55125   0.70949   0.24598   0.00000  Uiso   1.00
N359   N     0.43649   0.77473   0.28046   0.00000  Uiso   1.00
N360   N     0.56350   0.89194   0.05287   0.00000  Uiso   1.00
O361   O     0.50000   0.77322   0.20625   0.00000  Uiso   1.00
O362   O     0.50000   0.89345   0.12709   0.00000  Uiso   1.00
O363   O     0.50000   0.77321   0.12706   0.00000  Uiso   1.00
O364   O     0.50000   0.89346   0.20628   0.00000  Uiso   1.00
O365   O     0.42495   0.83334   0.19712   0.00000  Uiso   1.00
O366   O     0.57505   0.83333   0.13621   0.00000  Uiso   1.00
O367   O     0.42494   0.83333   0.11793   0.00000  Uiso   1.00
O368   O     0.57506   0.83334   0.21540   0.00000  Uiso   1.00
C369   C     0.83387   0.75422   0.16690   0.00000  Uiso   1.00
C370   C     0.85785   0.68807   0.20620   0.00000  Uiso   1.00
C371   C     0.83247   0.95711   0.16605   0.00000  Uiso   1.00
C372   C     0.83419   0.70956   0.16728   0.00000  Uiso   1.00
C373   C     0.80109   0.80698   0.02125   0.00000  Uiso   1.00
C374   C     0.86558   0.85969   0.31208   0.00000  Uiso   1.00
C375   C     0.80169   0.80622   0.30567   0.00000  Uiso   1.00
C376   C     0.86498   0.86045   0.02767   0.00000  Uiso   1.00
C377   C     0.83280   0.91245   0.16643   0.00000  Uiso   1.00
C378   C     0.73476   0.83319   0.15472   0.00000  Uiso   1.00
C379   C     0.93191   0.83347   0.17861   0.00000  Uiso   1.00
C380   C     0.67943   0.83293   0.14820   0.00000  Uiso   1.00
C381   C     0.98723   0.83374   0.18513   0.00000  Uiso   1.00
C382   C     0.81013   0.68807   0.12803   0.00000  Uiso   1.00
C383   C     0.85653   0.97860   0.20530   0.00000  Uiso   1.00
C384   C     0.80882   0.97860   0.12713   0.00000  Uiso   1.00
Cl385  Cl    0.75681   0.77333   0.04499   0.00000  Uiso   1.00
Cl386  Cl    0.90986   0.89334   0.28835   0.00000  Uiso   1.00
Cu387  Cu    0.83333   0.83334   0.21355   0.00000  Uiso   1.00
Cu388  Cu    0.83333   0.83333   0.11978   0.00000  Uiso   1.00
H389   H     0.99298   0.83196   0.11272   0.00000  Uiso   1.00
H390   H     0.74412   0.78680   0.25394   0.00000  Uiso   1.00
H391   H     0.87422   0.91439   0.06436   0.00000  Uiso   1.00
H392   H     0.92253   0.87988   0.07940   0.00000  Uiso   1.00
H393   H     0.67369   0.83471   0.22061   0.00000  Uiso   1.00
H394   H     0.79141   0.70439   0.09820   0.00000  Uiso   1.00
H395   H     0.87526   0.96228   0.23513   0.00000  Uiso   1.00
H396   H     0.79867   0.96690   0.05797   0.00000  Uiso   1.00
H397   H     0.74369   0.96587   0.08285   0.00000  Uiso   1.00
H398   H     0.86799   0.69977   0.27537   0.00000  Uiso   1.00
H399   H     0.92297   0.70079   0.25049   0.00000  Uiso   1.00
H400   H     0.79243   0.75228   0.26896   0.00000  Uiso   1.00
N401   N     0.83335   0.83334   0.28403   0.00000  Uiso   1.00
N402   N     0.83332   0.83332   0.04931   0.00000  Uiso   1.00
N403   N     0.78209   0.95717   0.08735   0.00000  Uiso   1.00
N404   N     0.88458   0.70949   0.24598   0.00000  Uiso   1.00
N405   N     0.76983   0.77473   0.28046   0.00000  Uiso   1.00
N406   N     0.89683   0.89194   0.05287   0.00000  Uiso   1.00
O407   O     0.83333   0.77322   0.20625   0.00000  Uiso   1.00
O408   O     0.83334   0.89345   0.12709   0.00000  Uiso   1.00
O409   O     0.83333   0.77321   0.12706   0.00000  Uiso   1.00
O410   O     0.83334   0.89346   0.20628   0.00000  Uiso   1.00
O411   O     0.75828   0.83334   0.19712   0.00000  Uiso   1.00
O412   O     0.90839   0.83333   0.13621   0.00000  Uiso   1.00
O413   O     0.75828   0.83333   0.11793   0.00000  Uiso   1.00
O414   O     0.90839   0.83334   0.21540   0.00000  Uiso   1.00
C415   C     0.16720   0.08755   0.50024   0.00000  Uiso   1.00
C416   C     0.19118   0.02140   0.53953   0.00000  Uiso   1.00
C417   C     0.16581   0.29044   0.49938   0.00000  Uiso   1.00
C418   C     0.16753   0.04289   0.50062   0.00000  Uiso   1.00
C419   C     0.13442   0.14031   0.35459   0.00000  Uiso   1.00
C420   C     0.19891   0.19302   0.64541   0.00000  Uiso   1.00
C421   C     0.13502   0.13955   0.63900   0.00000  Uiso   1.00
C422   C     0.19831   0.19379   0.36100   0.00000  Uiso   1.00
C423   C     0.16613   0.24578   0.49976   0.00000  Uiso   1.00
C424   C     0.06809   0.16653   0.48805   0.00000  Uiso   1.00
C425   C     0.26524   0.16681   0.51195   0.00000  Uiso   1.00
C426   C     0.01277   0.16626   0.48154   0.00000  Uiso   1.00
C427   C     0.32057   0.16707   0.51846   0.00000  Uiso   1.00
C428   C     0.14347   0.02140   0.46136   0.00000  Uiso   1.00
C429   C     0.18987   0.31193   0.53864   0.00000  Uiso   1.00
C430   C     0.14215   0.31193   0.46047   0.00000  Uiso   1.00
Cl431  Cl    0.09014   0.10666   0.37832   0.00000  Uiso   1.00
Cl432  Cl    0.24319   0.22667   0.62168   0.00000  Uiso   1.00
Cu433  Cu    0.16667   0.16667   0.54689   0.00000  Uiso   1.00
Cu434  Cu    0.16667   0.16666   0.45311   0.00000  Uiso   1.00
H435   H     0.32631   0.16529   0.44605   0.00000  Uiso   1.00
H436   H     0.07745   0.12013   0.58728   0.00000  Uiso   1.00
H437   H     0.20755   0.24773   0.39769   0.00000  Uiso   1.00
H438   H     0.25586   0.21321   0.41273   0.00000  Uiso   1.00
H439   H     0.00702   0.16804   0.55395   0.00000  Uiso   1.00
H440   H     0.12474   0.03772   0.43153   0.00000  Uiso   1.00
H441   H     0.20859   0.29561   0.56847   0.00000  Uiso   1.00
H442   H     0.13200   0.30023   0.39130   0.00000  Uiso   1.00
H443   H     0.07703   0.29921   0.41618   0.00000  Uiso   1.00
H444   H     0.20133   0.03310   0.60870   0.00000  Uiso   1.00
H445   H     0.25631   0.03412   0.58382   0.00000  Uiso   1.00
H446   H     0.12576   0.08561   0.60230   0.00000  Uiso   1.00
N447   N     0.16668   0.16668   0.61736   0.00000  Uiso   1.00
N448   N     0.16665   0.16666   0.38264   0.00000  Uiso   1.00
N449   N     0.11542   0.29051   0.42068   0.00000  Uiso   1.00
N450   N     0.21792   0.04283   0.57932   0.00000  Uiso   1.00
N451   N     0.10316   0.10807   0.61379   0.00000  Uiso   1.00
N452   N     0.23016   0.22527   0.38621   0.00000  Uiso   1.00
O453   O     0.16666   0.10655   0.53958   0.00000  Uiso   1.00
O454   O     0.16667   0.22678   0.46042   0.00000  Uiso   1.00
O455   O     0.16666   0.10654   0.46039   0.00000  Uiso   1.00
O456   O     0.16667   0.22679   0.53961   0.00000  Uiso   1.00
O457   O     0.09161   0.16667   0.53046   0.00000  Uiso   1.00
O458   O     0.24172   0.16666   0.46954   0.00000  Uiso   1.00
O459   O     0.09161   0.16666   0.45127   0.00000  Uiso   1.00
O460   O     0.24172   0.16667   0.54873   0.00000  Uiso   1.00
C461   C     0.50054   0.08755   0.50024   0.00000  Uiso   1.00
C462   C     0.52452   0.02140   0.53953   0.00000  Uiso   1.00
C463   C     0.49914   0.29044   0.49938   0.00000  Uiso   1.00
C464   C     0.50086   0.04289   0.50062   0.00000  Uiso   1.00
C465   C     0.46776   0.14031   0.35459   0.00000  Uiso   1.00
C466   C     0.53224   0.19302   0.64541   0.00000  Uiso   1.00
C467   C     0.46835   0.13955   0.63900   0.00000  Uiso   1.00
C468   C     0.53165   0.19379   0.36100   0.00000  Uiso   1.00
C469   C     0.49947   0.24578   0.49976   0.00000  Uiso   1.00
C470   C     0.40143   0.16653   0.48805   0.00000  Uiso   1.00
C471   C     0.59857   0.16681   0.51195   0.00000  Uiso   1.00
C472   C     0.34610   0.16626   0.48154   0.00000  Uiso   1.00
C473   C     0.65390   0.16707   0.51846   0.00000  Uiso   1.00
C474   C     0.47680   0.02140   0.46136   0.00000  Uiso   1.00
C475   C     0.52320   0.31193   0.53864   0.00000  Uiso   1.00
C476   C     0.47548   0.31193   0.46047   0.00000  Uiso   1.00
Cl477  Cl    0.42348   0.10666   0.37832   0.00000  Uiso   1.00
Cl478  Cl    0.57652   0.22667   0.62168   0.00000  Uiso   1.00
Cu479  Cu    0.50000   0.16667   0.54689   0.00000  Uiso   1.00
Cu480  Cu    0.50000   0.16666   0.45311   0.00000  Uiso   1.00
H481   H     0.65965   0.16529   0.44605   0.00000  Uiso   1.00
H482   H     0.41079   0.12013   0.58728   0.00000  Uiso   1.00
H483   H     0.54089   0.24773   0.39769   0.00000  Uiso   1.00
H484   H     0.58919   0.21321   0.41273   0.00000  Uiso   1.00
H485   H     0.34036   0.16804   0.55395   0.00000  Uiso   1.00
H486   H     0.45808   0.03772   0.43153   0.00000  Uiso   1.00
H487   H     0.54192   0.29561   0.56847   0.00000  Uiso   1.00
H488   H     0.46534   0.30023   0.39130   0.00000  Uiso   1.00
H489   H     0.41036   0.29921   0.41618   0.00000  Uiso   1.00
H490   H     0.53466   0.03310   0.60870   0.00000  Uiso   1.00
H491   H     0.58964   0.03412   0.58382   0.00000  Uiso   1.00
H492   H     0.45909   0.08561   0.60230   0.00000  Uiso   1.00
N493   N     0.50001   0.16668   0.61736   0.00000  Uiso   1.00
N494   N     0.49999   0.16666   0.38264   0.00000  Uiso   1.00
N495   N     0.44875   0.29051   0.42068   0.00000  Uiso   1.00
N496   N     0.55125   0.04283   0.57932   0.00000  Uiso   1.00
N497   N     0.43649   0.10807   0.61379   0.00000  Uiso   1.00
N498   N     0.56350   0.22527   0.38621   0.00000  Uiso   1.00
O499   O     0.50000   0.10655   0.53958   0.00000  Uiso   1.00
O500   O     0.50000   0.22678   0.46042   0.00000  Uiso   1.00
O501   O     0.50000   0.10654   0.46039   0.00000  Uiso   1.00
O502   O     0.50000   0.22679   0.53961   0.00000  Uiso   1.00
O503   O     0.42495   0.16667   0.53046   0.00000  Uiso   1.00
O504   O     0.57505   0.16666   0.46954   0.00000  Uiso   1.00
O505   O     0.42494   0.16666   0.45127   0.00000  Uiso   1.00
O506   O     0.57506   0.16667   0.54873   0.00000  Uiso   1.00
C507   C     0.83387   0.08755   0.50024   0.00000  Uiso   1.00
C508   C     0.85785   0.02140   0.53953   0.00000  Uiso   1.00
C509   C     0.83247   0.29044   0.49938   0.00000  Uiso   1.00
C510   C     0.83419   0.04289   0.50062   0.00000  Uiso   1.00
C511   C     0.80109   0.14031   0.35459   0.00000  Uiso   1.00
C512   C     0.86558   0.19302   0.64541   0.00000  Uiso   1.00
C513   C     0.80169   0.13955   0.63900   0.00000  Uiso   1.00
C514   C     0.86498   0.19379   0.36100   0.00000  Uiso   1.00
C515   C     0.83280   0.24578   0.49976   0.00000  Uiso   1.00
C516   C     0.73476   0.16653   0.48805   0.00000  Uiso   1.00
C517   C     0.93191   0.16681   0.51195   0.00000  Uiso   1.00
C518   C     0.67943   0.16626   0.48154   0.00000  Uiso   1.00
C519   C     0.98723   0.16707   0.51846   0.00000  Uiso   1.00
C520   C     0.81013   0.02140   0.46136   0.00000  Uiso   1.00
C521   C     0.85653   0.31193   0.53864   0.00000  Uiso   1.00
C522   C     0.80882   0.31193   0.46047   0.00000  Uiso   1.00
Cl523  Cl    0.75681   0.10666   0.37832   0.00000  Uiso   1.00
Cl524  Cl    0.90986   0.22667   0.62168   0.00000  Uiso   1.00
Cu525  Cu    0.83333   0.16667   0.54689   0.00000  Uiso   1.00
Cu526  Cu    0.83333   0.16666   0.45311   0.00000  Uiso   1.00
H527   H     0.99298   0.16529   0.44605   0.00000  Uiso   1.00
H528   H     0.74412   0.12013   0.58728   0.00000  Uiso   1.00
H529   H     0.87422   0.24773   0.39769   0.00000  Uiso   1.00
H530   H     0.92253   0.21321   0.41273   0.00000  Uiso   1.00
H531   H     0.67369   0.16804   0.55395   0.00000  Uiso   1.00
H532   H     0.79141   0.03772   0.43153   0.00000  Uiso   1.00
H533   H     0.87526   0.29561   0.56847   0.00000  Uiso   1.00
H534   H     0.79867   0.30023   0.39130   0.00000  Uiso   1.00
H535   H     0.74369   0.29921   0.41618   0.00000  Uiso   1.00
H536   H     0.86799   0.03310   0.60870   0.00000  Uiso   1.00
H537   H     0.92297   0.03412   0.58382   0.00000  Uiso   1.00
H538   H     0.79243   0.08561   0.60230   0.00000  Uiso   1.00
N539   N     0.83335   0.16668   0.61736   0.00000  Uiso   1.00
N540   N     0.83332   0.16666   0.38264   0.00000  Uiso   1.00
N541   N     0.78209   0.29051   0.42068   0.00000  Uiso   1.00
N542   N     0.88458   0.04283   0.57932   0.00000  Uiso   1.00
N543   N     0.76983   0.10807   0.61379   0.00000  Uiso   1.00
N544   N     0.89683   0.22527   0.38621   0.00000  Uiso   1.00
O545   O     0.83333   0.10655   0.53958   0.00000  Uiso   1.00
O546   O     0.83334   0.22678   0.46042   0.00000  Uiso   1.00
O547   O     0.83333   0.10654   0.46039   0.00000  Uiso   1.00
O548   O     0.83334   0.22679   0.53961   0.00000  Uiso   1.00
O549   O     0.75828   0.16667   0.53046   0.00000  Uiso   1.00
O550   O     0.90839   0.16666   0.46954   0.00000  Uiso   1.00
O551   O     0.75828   0.16666   0.45127   0.00000  Uiso   1.00
O552   O     0.90839   0.16667   0.54873   0.00000  Uiso   1.00
C553   C     0.16720   0.42089   0.50024   0.00000  Uiso   1.00
C554   C     0.19118   0.35474   0.53953   0.00000  Uiso   1.00
C555   C     0.16581   0.62378   0.49938   0.00000  Uiso   1.00
C556   C     0.16753   0.37622   0.50062   0.00000  Uiso   1.00
C557   C     0.13442   0.47365   0.35459   0.00000  Uiso   1.00
C558   C     0.19891   0.52635   0.64541   0.00000  Uiso   1.00
C559   C     0.13502   0.47288   0.63900   0.00000  Uiso   1.00
C560   C     0.19831   0.52712   0.36100   0.00000  Uiso   1.00
C561   C     0.16613   0.57911   0.49976   0.00000  Uiso   1.00
C562   C     0.06809   0.49986   0.48805   0.00000  Uiso   1.00
C563   C     0.26524   0.50014   0.51195   0.00000  Uiso   1.00
C564   C     0.01277   0.49959   0.48154   0.00000  Uiso   1.00
C565   C     0.32057   0.50040   0.51846   0.00000  Uiso   1.00
C566   C     0.14347   0.35473   0.46136   0.00000  Uiso   1.00
C567   C     0.18987   0.64527   0.53864   0.00000  Uiso   1.00
C568   C     0.14215   0.64526   0.46047   0.00000  Uiso   1.00
Cl569  Cl    0.09014   0.44000   0.37832   0.00000  Uiso   1.00
Cl570  Cl    0.24319   0.56000   0.62168   0.00000  Uiso   1.00
Cu571  Cu    0.16667   0.50001   0.54689   0.00000  Uiso   1.00
Cu572  Cu    0.16667   0.49999   0.45311   0.00000  Uiso   1.00
H573   H     0.32631   0.49862   0.44605   0.00000  Uiso   1.00
H574   H     0.07745   0.45347   0.58728   0.00000  Uiso   1.00
H575   H     0.20755   0.58106   0.39769   0.00000  Uiso   1.00
H576   H     0.25586   0.54655   0.41273   0.00000  Uiso   1.00
H577   H     0.00702   0.50137   0.55395   0.00000  Uiso   1.00
H578   H     0.12474   0.37106   0.43153   0.00000  Uiso   1.00
H579   H     0.20859   0.62894   0.56847   0.00000  Uiso   1.00
H580   H     0.13200   0.63357   0.39130   0.00000  Uiso   1.00
H581   H     0.07703   0.63254   0.41618   0.00000  Uiso   1.00
H582   H     0.20133   0.36644   0.60870   0.00000  Uiso   1.00
H583   H     0.25631   0.36746   0.58382   0.00000  Uiso   1.00
H584   H     0.12576   0.41895   0.60230   0.00000  Uiso   1.00
N585   N     0.16668   0.50001   0.61736   0.00000  Uiso   1.00
N586   N     0.16665   0.49999   0.38264   0.00000  Uiso   1.00
N587   N     0.11542   0.62384   0.42068   0.00000  Uiso   1.00
N588   N     0.21792   0.37616   0.57932   0.00000  Uiso   1.00
N589   N     0.10316   0.44140   0.61379   0.00000  Uiso   1.00
N590   N     0.23016   0.55861   0.38621   0.00000  Uiso   1.00
O591   O     0.16666   0.43989   0.53958   0.00000  Uiso   1.00
O592   O     0.16667   0.56011   0.46042   0.00000  Uiso   1.00
O593   O     0.16666   0.43988   0.46039   0.00000  Uiso   1.00
O594   O     0.16667   0.56012   0.53961   0.00000  Uiso   1.00
O595   O     0.09161   0.50000   0.53046   0.00000  Uiso   1.00
O596   O     0.24172   0.50000   0.46954   0.00000  Uiso   1.00
O597   O     0.09161   0.49999   0.45127   0.00000  Uiso   1.00
O598   O     0.24172   0.50001   0.54873   0.00000  Uiso   1.00
C599   C     0.50054   0.42089   0.50024   0.00000  Uiso   1.00
C600   C     0.52452   0.35474   0.53953   0.00000  Uiso   1.00
C601   C     0.49914   0.62378   0.49938   0.00000  Uiso   1.00
C602   C     0.50086   0.37622   0.50062   0.00000  Uiso   1.00
C603   C     0.46776   0.47365   0.35459   0.00000  Uiso   1.00
C604   C     0.53224   0.52635   0.64541   0.00000  Uiso   1.00
C605   C     0.46835   0.47288   0.63900   0.00000  Uiso   1.00
C606   C     0.53165   0.52712   0.36100   0.00000  Uiso   1.00
C607   C     0.49947   0.57911   0.49976   0.00000  Uiso   1.00
C608   C     0.40143   0.49986   0.48805   0.00000  Uiso   1.00
C609   C     0.59857   0.50014   0.51195   0.00000  Uiso   1.00
C610   C     0.34610   0.49959   0.48154   0.00000  Uiso   1.00
C611   C     0.65390   0.50040   0.51846   0.00000  Uiso   1.00
C612   C     0.47680   0.35473   0.46136   0.00000  Uiso   1.00
C613   C     0.52320   0.64527   0.53864   0.00000  Uiso   1.00
C614   C     0.47548   0.64526   0.46047   0.00000  Uiso   1.00
Cl615  Cl    0.42348   0.44000   0.37832   0.00000  Uiso   1.00
Cl616  Cl    0.57652   0.56000   0.62168   0.00000  Uiso   1.00
Cu617  Cu    0.50000   0.50001   0.54689   0.00000  Uiso   1.00
Cu618  Cu    0.50000   0.49999   0.45311   0.00000  Uiso   1.00
H619   H     0.65965   0.49862   0.44605   0.00000  Uiso   1.00
H620   H     0.41079   0.45347   0.58728   0.00000  Uiso   1.00
H621   H     0.54089   0.58106   0.39769   0.00000  Uiso   1.00
H622   H     0.58919   0.54655   0.41273   0.00000  Uiso   1.00
H623   H     0.34036   0.50137   0.55395   0.00000  Uiso   1.00
H624   H     0.45808   0.37106   0.43153   0.00000  Uiso   1.00
H625   H     0.54192   0.62894   0.56847   0.00000  Uiso   1.00
H626   H     0.46534   0.63357   0.39130   0.00000  Uiso   1.00
H627   H     0.41036   0.63254   0.41618   0.00000  Uiso   1.00
H628   H     0.53466   0.36644   0.60870   0.00000  Uiso   1.00
H629   H     0.58964   0.36746   0.58382   0.00000  Uiso   1.00
H630   H     0.45909   0.41895   0.60230   0.00000  Uiso   1.00
N631   N     0.50001   0.50001   0.61736   0.00000  Uiso   1.00
N632   N     0.49999   0.49999   0.38264   0.00000  Uiso   1.00
N633   N     0.44875   0.62384   0.42068   0.00000  Uiso   1.00
N634   N     0.55125   0.37616   0.57932   0.00000  Uiso   1.00
N635   N     0.43649   0.44140   0.61379   0.00000  Uiso   1.00
N636   N     0.56350   0.55861   0.38621   0.00000  Uiso   1.00
O637   O     0.50000   0.43989   0.53958   0.00000  Uiso   1.00
O638   O     0.50000   0.56011   0.46042   0.00000  Uiso   1.00
O639   O     0.50000   0.43988   0.46039   0.00000  Uiso   1.00
O640   O     0.50000   0.56012   0.53961   0.00000  Uiso   1.00
O641   O     0.42495   0.50000   0.53046   0.00000  Uiso   1.00
O642   O     0.57505   0.50000   0.46954   0.00000  Uiso   1.00
O643   O     0.42494   0.49999   0.45127   0.00000  Uiso   1.00
O644   O     0.57506   0.50001   0.54873   0.00000  Uiso   1.00
C645   C     0.83387   0.42089   0.50024   0.00000  Uiso   1.00
C646   C     0.85785   0.35474   0.53953   0.00000  Uiso   1.00
C647   C     0.83247   0.62378   0.49938   0.00000  Uiso   1.00
C648   C     0.83419   0.37622   0.50062   0.00000  Uiso   1.00
C649   C     0.80109   0.47365   0.35459   0.00000  Uiso   1.00
C650   C     0.86558   0.52635   0.64541   0.00000  Uiso   1.00
C651   C     0.80169   0.47288   0.63900   0.00000  Uiso   1.00
C652   C     0.86498   0.52712   0.36100   0.00000  Uiso   1.00
C653   C     0.83280   0.57911   0.49976   0.00000  Uiso   1.00
C654   C     0.73476   0.49986   0.48805   0.00000  Uiso   1.00
C655   C     0.93191   0.50014   0.51195   0.00000  Uiso   1.00
C656   C     0.67943   0.49959   0.48154   0.00000  Uiso   1.00
C657   C     0.98723   0.50040   0.51846   0.00000  Uiso   1.00
C658   C     0.81013   0.35473   0.46136   0.00000  Uiso   1.00
C659   C     0.85653   0.64527   0.53864   0.00000  Uiso   1.00
C660   C     0.80882   0.64526   0.46047   0.00000  Uiso   1.00
Cl661  Cl    0.75681   0.44000   0.37832   0.00000  Uiso   1.00
Cl662  Cl    0.90986   0.56000   0.62168   0.00000  Uiso   1.00
Cu663  Cu    0.83333   0.50001   0.54689   0.00000  Uiso   1.00
Cu664  Cu    0.83333   0.49999   0.45311   0.00000  Uiso   1.00
H665   H     0.99298   0.49862   0.44605   0.00000  Uiso   1.00
H666   H     0.74412   0.45347   0.58728   0.00000  Uiso   1.00
H667   H     0.87422   0.58106   0.39769   0.00000  Uiso   1.00
H668   H     0.92253   0.54655   0.41273   0.00000  Uiso   1.00
H669   H     0.67369   0.50137   0.55395   0.00000  Uiso   1.00
H670   H     0.79141   0.37106   0.43153   0.00000  Uiso   1.00
H671   H     0.87526   0.62894   0.56847   0.00000  Uiso   1.00
H672   H     0.79867   0.63357   0.39130   0.00000  Uiso   1.00
H673   H     0.74369   0.63254   0.41618   0.00000  Uiso   1.00
H674   H     0.86799   0.36644   0.60870   0.00000  Uiso   1.00
H675   H     0.92297   0.36746   0.58382   0.00000  Uiso   1.00
H676   H     0.79243   0.41895   0.60230   0.00000  Uiso   1.00
N677   N     0.83335   0.50001   0.61736   0.00000  Uiso   1.00
N678   N     0.83332   0.49999   0.38264   0.00000  Uiso   1.00
N679   N     0.78209   0.62384   0.42068   0.00000  Uiso   1.00
N680   N     0.88458   0.37616   0.57932   0.00000  Uiso   1.00
N681   N     0.76983   0.44140   0.61379   0.00000  Uiso   1.00
N682   N     0.89683   0.55861   0.38621   0.00000  Uiso   1.00
O683   O     0.83333   0.43989   0.53958   0.00000  Uiso   1.00
O684   O     0.83334   0.56011   0.46042   0.00000  Uiso   1.00
O685   O     0.83333   0.43988   0.46039   0.00000  Uiso   1.00
O686   O     0.83334   0.56012   0.53961   0.00000  Uiso   1.00
O687   O     0.75828   0.50000   0.53046   0.00000  Uiso   1.00
O688   O     0.90839   0.50000   0.46954   0.00000  Uiso   1.00
O689   O     0.75828   0.49999   0.45127   0.00000  Uiso   1.00
O690   O     0.90839   0.50001   0.54873   0.00000  Uiso   1.00
C691   C     0.16720   0.75422   0.50024   0.00000  Uiso   1.00
C692   C     0.19118   0.68807   0.53953   0.00000  Uiso   1.00
C693   C     0.16581   0.95711   0.49938   0.00000  Uiso   1.00
C694   C     0.16753   0.70956   0.50062   0.00000  Uiso   1.00
C695   C     0.13442   0.80698   0.35459   0.00000  Uiso   1.00
C696   C     0.19891   0.85969   0.64541   0.00000  Uiso   1.00
C697   C     0.13502   0.80622   0.63900   0.00000  Uiso   1.00
C698   C     0.19831   0.86045   0.36100   0.00000  Uiso   1.00
C699   C     0.16613   0.91245   0.49976   0.00000  Uiso   1.00
C700   C     0.06809   0.83319   0.48805   0.00000  Uiso   1.00
C701   C     0.26524   0.83347   0.51195   0.00000  Uiso   1.00
C702   C     0.01277   0.83293   0.48154   0.00000  Uiso   1.00
C703   C     0.32057   0.83374   0.51846   0.00000  Uiso   1.00
C704   C     0.14347   0.68807   0.46136   0.00000  Uiso   1.00
C705   C     0.18987   0.97860   0.53864   0.00000  Uiso   1.00
C706   C     0.14215   0.97860   0.46047   0.00000  Uiso   1.00
Cl707  Cl    0.09014   0.77333   0.37832   0.00000  Uiso   1.00
Cl708  Cl    0.24319   0.89334   0.62168   0.00000  Uiso   1.00
Cu709  Cu    0.16667   0.83334   0.54689   0.00000  Uiso   1.00
Cu710  Cu    0.16667   0.83333   0.45311   0.00000  Uiso   1.00
H711   H     0.32631   0.83196   0.44605   0.00000  Uiso   1.00
H712   H     0.07745   0.78680   0.58728   0.00000  Uiso   1.00
H713   H     0.20755   0.91439   0.39769   0.00000  Uiso   1.00
H714   H     0.25586   0.87988   0.41273   0.00000  Uiso   1.00
H715   H     0.00702   0.83471   0.55395   0.00000  Uiso   1.00
H716   H     0.12474   0.70439   0.43153   0.00000  Uiso   1.00
H717   H     0.20859   0.96228   0.56847   0.00000  Uiso   1.00
H718   H     0.13200   0.96690   0.39130   0.00000  Uiso   1.00
H719   H     0.07703   0.96587   0.41618   0.00000  Uiso   1.00
H720   H     0.20133   0.69977   0.60870   0.00000  Uiso   1.00
H721   H     0.25631   0.70079   0.58382   0.00000  Uiso   1.00
H722   H     0.12576   0.75228   0.60230   0.00000  Uiso   1.00
N723   N     0.16668   0.83334   0.61736   0.00000  Uiso   1.00
N724   N     0.16665   0.83332   0.38264   0.00000  Uiso   1.00
N725   N     0.11542   0.95717   0.42068   0.00000  Uiso   1.00
N726   N     0.21792   0.70949   0.57932   0.00000  Uiso   1.00
N727   N     0.10316   0.77473   0.61379   0.00000  Uiso   1.00
N728   N     0.23016   0.89194   0.38621   0.00000  Uiso   1.00
O729   O     0.16666   0.77322   0.53958   0.00000  Uiso   1.00
O730   O     0.16667   0.89345   0.46042   0.00000  Uiso   1.00
O731   O     0.16666   0.77321   0.46039   0.00000  Uiso   1.00
O732   O     0.16667   0.89346   0.53961   0.00000  Uiso   1.00
O733   O     0.09161   0.83334   0.53046   0.00000  Uiso   1.00
O734   O     0.24172   0.83333   0.46954   0.00000  Uiso   1.00
O735   O     0.09161   0.83333   0.45127   0.00000  Uiso   1.00
O736   O     0.24172   0.83334   0.54873   0.00000  Uiso   1.00
C737   C     0.50054   0.75422   0.50024   0.00000  Uiso   1.00
C738   C     0.52452   0.68807   0.53953   0.00000  Uiso   1.00
C739   C     0.49914   0.95711   0.49938   0.00000  Uiso   1.00
C740   C     0.50086   0.70956   0.50062   0.00000  Uiso   1.00
C741   C     0.46776   0.80698   0.35459   0.00000  Uiso   1.00
C742   C     0.53224   0.85969   0.64541   0.00000  Uiso   1.00
C743   C     0.46835   0.80622   0.63900   0.00000  Uiso   1.00
C744   C     0.53165   0.86045   0.36100   0.00000  Uiso   1.00
C745   C     0.49947   0.91245   0.49976   0.00000  Uiso   1.00
C746   C     0.40143   0.83319   0.48805   0.00000  Uiso   1.00
C747   C     0.59857   0.83347   0.51195   0.00000  Uiso   1.00
C748   C     0.34610   0.83293   0.48154   0.00000  Uiso   1.00
C749   C     0.65390   0.83374   0.51846   0.00000  Uiso   1.00
C750   C     0.47680   0.68807   0.46136   0.00000  Uiso   1.00
C751   C     0.52320   0.97860   0.53864   0.00000  Uiso   1.00
C752   C     0.47548   0.97860   0.46047   0.00000  Uiso   1.00
Cl753  Cl    0.42348   0.77333   0.37832   0.00000  Uiso   1.00
Cl754  Cl    0.57652   0.89334   0.62168   0.00000  Uiso   1.00
Cu755  Cu    0.50000   0.83334   0.54689   0.00000  Uiso   1.00
Cu756  Cu    0.50000   0.83333   0.45311   0.00000  Uiso   1.00
H757   H     0.65965   0.83196   0.44605   0.00000  Uiso   1.00
H758   H     0.41079   0.78680   0.58728   0.00000  Uiso   1.00
H759   H     0.54089   0.91439   0.39769   0.00000  Uiso   1.00
H760   H     0.58919   0.87988   0.41273   0.00000  Uiso   1.00
H761   H     0.34036   0.83471   0.55395   0.00000  Uiso   1.00
H762   H     0.45808   0.70439   0.43153   0.00000  Uiso   1.00
H763   H     0.54192   0.96228   0.56847   0.00000  Uiso   1.00
H764   H     0.46534   0.96690   0.39130   0.00000  Uiso   1.00
H765   H     0.41036   0.96587   0.41618   0.00000  Uiso   1.00
H766   H     0.53466   0.69977   0.60870   0.00000  Uiso   1.00
H767   H     0.58964   0.70079   0.58382   0.00000  Uiso   1.00
H768   H     0.45909   0.75228   0.60230   0.00000  Uiso   1.00
N769   N     0.50001   0.83334   0.61736   0.00000  Uiso   1.00
N770   N     0.49999   0.83332   0.38264   0.00000  Uiso   1.00
N771   N     0.44875   0.95717   0.42068   0.00000  Uiso   1.00
N772   N     0.55125   0.70949   0.57932   0.00000  Uiso   1.00
N773   N     0.43649   0.77473   0.61379   0.00000  Uiso   1.00
N774   N     0.56350   0.89194   0.38621   0.00000  Uiso   1.00
O775   O     0.50000   0.77322   0.53958   0.00000  Uiso   1.00
O776   O     0.50000   0.89345   0.46042   0.00000  Uiso   1.00
O777   O     0.50000   0.77321   0.46039   0.00000  Uiso   1.00
O778   O     0.50000   0.89346   0.53961   0.00000  Uiso   1.00
O779   O     0.42495   0.83334   0.53046   0.00000  Uiso   1.00
O780   O     0.57505   0.83333   0.46954   0.00000  Uiso   1.00
O781   O     0.42494   0.83333   0.45127   0.00000  Uiso   1.00
O782   O     0.57506   0.83334   0.54873   0.00000  Uiso   1.00
C783   C     0.83387   0.75422   0.50024   0.00000  Uiso   1.00
C784   C     0.85785   0.68807   0.53953   0.00000  Uiso   1.00
C785   C     0.83247   0.95711   0.49938   0.00000  Uiso   1.00
C786   C     0.83419   0.70956   0.50062   0.00000  Uiso   1.00
C787   C     0.80109   0.80698   0.35459   0.00000  Uiso   1.00
C788   C     0.86558   0.85969   0.64541   0.00000  Uiso   1.00
C789   C     0.80169   0.80622   0.63900   0.00000  Uiso   1.00
C790   C     0.86498   0.86045   0.36100   0.00000  Uiso   1.00
C791   C     0.83280   0.91245   0.49976   0.00000  Uiso   1.00
C792   C     0.73476   0.83319   0.48805   0.00000  Uiso   1.00
C793   C     0.93191   0.83347   0.51195   0.00000  Uiso   1.00
C794   C     0.67943   0.83293   0.48154   0.00000  Uiso   1.00
C795   C     0.98723   0.83374   0.51846   0.00000  Uiso   1.00
C796   C     0.81013   0.68807   0.46136   0.00000  Uiso   1.00
C797   C     0.85653   0.97860   0.53864   0.00000  Uiso   1.00
C798   C     0.80882   0.97860   0.46047   0.00000  Uiso   1.00
Cl799  Cl    0.75681   0.77333   0.37832   0.00000  Uiso   1.00
Cl800  Cl    0.90986   0.89334   0.62168   0.00000  Uiso   1.00
Cu801  Cu    0.83333   0.83334   0.54689   0.00000  Uiso   1.00
Cu802  Cu    0.83333   0.83333   0.45311   0.00000  Uiso   1.00
H803   H     0.99298   0.83196   0.44605   0.00000  Uiso   1.00
H804   H     0.74412   0.78680   0.58728   0.00000  Uiso   1.00
H805   H     0.87422   0.91439   0.39769   0.00000  Uiso   1.00
H806   H     0.92253   0.87988   0.41273   0.00000  Uiso   1.00
H807   H     0.67369   0.83471   0.55395   0.00000  Uiso   1.00
H808   H     0.79141   0.70439   0.43153   0.00000  Uiso   1.00
H809   H     0.87526   0.96228   0.56847   0.00000  Uiso   1.00
H810   H     0.79867   0.96690   0.39130   0.00000  Uiso   1.00
H811   H     0.74369   0.96587   0.41618   0.00000  Uiso   1.00
H812   H     0.86799   0.69977   0.60870   0.00000  Uiso   1.00
H813   H     0.92297   0.70079   0.58382   0.00000  Uiso   1.00
H814   H     0.79243   0.75228   0.60230   0.00000  Uiso   1.00
N815   N     0.83335   0.83334   0.61736   0.00000  Uiso   1.00
N816   N     0.83332   0.83332   0.38264   0.00000  Uiso   1.00
N817   N     0.78209   0.95717   0.42068   0.00000  Uiso   1.00
N818   N     0.88458   0.70949   0.57932   0.00000  Uiso   1.00
N819   N     0.76983   0.77473   0.61379   0.00000  Uiso   1.00
N820   N     0.89683   0.89194   0.38621   0.00000  Uiso   1.00
O821   O     0.83333   0.77322   0.53958   0.00000  Uiso   1.00
O822   O     0.83334   0.89345   0.46042   0.00000  Uiso   1.00
O823   O     0.83333   0.77321   0.46039   0.00000  Uiso   1.00
O824   O     0.83334   0.89346   0.53961   0.00000  Uiso   1.00
O825   O     0.75828   0.83334   0.53046   0.00000  Uiso   1.00
O826   O     0.90839   0.83333   0.46954   0.00000  Uiso   1.00
O827   O     0.75828   0.83333   0.45127   0.00000  Uiso   1.00
O828   O     0.90839   0.83334   0.54873   0.00000  Uiso   1.00
C829   C     0.16720   0.08755   0.83357   0.00000  Uiso   1.00
C830   C     0.19118   0.02140   0.87287   0.00000  Uiso   1.00
C831   C     0.16581   0.29044   0.83272   0.00000  Uiso   1.00
C832   C     0.16753   0.04289   0.83395   0.00000  Uiso   1.00
C833   C     0.13442   0.14031   0.68792   0.00000  Uiso   1.00
C834   C     0.19891   0.19302   0.97874   0.00000  Uiso   1.00
C835   C     0.13502   0.13955   0.97233   0.00000  Uiso   1.00
C836   C     0.19831   0.19379   0.69433   0.00000  Uiso   1.00
C837   C     0.16613   0.24578   0.83310   0.00000  Uiso   1.00
C838   C     0.06809   0.16653   0.82138   0.00000  Uiso   1.00
C839   C     0.26524   0.16681   0.84528   0.00000  Uiso   1.00
C840   C     0.01277   0.16626   0.81487   0.00000  Uiso   1.00
C841   C     0.32057   0.16707   0.85180   0.00000  Uiso   1.00
C842   C     0.14347   0.02140   0.79470   0.00000  Uiso   1.00
C843   C     0.18987   0.31193   0.87197   0.00000  Uiso   1.00
C844   C     0.14215   0.31193   0.79380   0.00000  Uiso   1.00
Cl845  Cl    0.09014   0.10666   0.71165   0.00000  Uiso   1.00
Cl846  Cl    0.24319   0.22667   0.95501   0.00000  Uiso   1.00
Cu847  Cu    0.16667   0.16667   0.88022   0.00000  Uiso   1.00
Cu848  Cu    0.16667   0.16666   0.78645   0.00000  Uiso   1.00
H849   H     0.32631   0.16529   0.77939   0.00000  Uiso   1.00
H850   H     0.07745   0.12013   0.92061   0.00000  Uiso   1.00
H851   H     0.20755   0.24773   0.73102   0.00000  Uiso   1.00
H852   H     0.25586   0.21321   0.74607   0.00000  Uiso   1.00
H853   H     0.00702   0.16804   0.88728   0.00000  Uiso   1.00
H854   H     0.12474   0.03772   0.76487   0.00000  Uiso   1.00
H855   H     0.20859   0.29561   0.90180   0.00000  Uiso   1.00
H856   H     0.13200   0.30023   0.72463   0.00000  Uiso   1.00
H857   H     0.07703   0.29921   0.74951   0.00000  Uiso   1.00
H858   H     0.20133   0.03310   0.94203   0.00000  Uiso   1.00
H859   H     0.25631   0.03412   0.91716   0.00000  Uiso   1.00
H860   H     0.12576   0.08561   0.93563   0.00000  Uiso   1.00
N861   N     0.16668   0.16668   0.95069   0.00000  Uiso   1.00
N862   N     0.16665   0.16666   0.71597   0.00000  Uiso   1.00
N863   N     0.11542   0.29051   0.75402   0.00000  Uiso   1.00
N864   N     0.21792   0.04283   0.91265   0.00000  Uiso   1.00
N865   N     0.10316   0.10807   0.94712   0.00000  Uiso   1.00
N866   N     0.23016   0.22527   0.71954   0.00000  Uiso   1.00
O867   O     0.16666   0.10655   0.87291   0.00000  Uiso   1.00
O868   O     0.16667   0.22678   0.79375   0.00000  Uiso   1.00
O869   O     0.16666   0.10654   0.79372   0.00000  Uiso   1.00
O870   O     0.16667   0.22679   0.87294   0.00000  Uiso   1.00
O871   O     0.09161   0.16667   0.86379   0.00000  Uiso   1.00
O872   O     0.24172   0.16666   0.80288   0.00000  Uiso   1.00
O873   O     0.09161   0.16666   0.78460   0.00000  Uiso   1.00
O874   O     0.24172   0.16667   0.88207   0.00000  Uiso   1.00
C875   C     0.50054   0.08755   0.83357   0.00000  Uiso   1.00
C876   C     0.52452   0.02140   0.87287   0.00000  Uiso   1.00
C877   C     0.49914   0.29044   0.83272   0.00000  Uiso   1.00
C878   C     0.50086   0.04289   0.83395   0.00000  Uiso   1.00
C879   C     0.46776   0.14031   0.68792   0.00000  Uiso   1.00
C880   C     0.53224   0.19302   0.97874   0.00000  Uiso   1.00
C881   C     0.46835   0.13955   0.97233   0.00000  Uiso   1.00
C882   C     0.53165   0.19379   0.69433   0.00000  Uiso   1.00
C883   C     0.49947   0.24578   0.83310   0.00000  Uiso   1.00
C884   C     0.40143   0.16653   0.82138   0.00000  Uiso   1.00
C885   C     0.59857   0.16681   0.84528   0.00000  Uiso   1.00
C886   C     0.34610   0.16626   0.81487   0.00000  Uiso   1.00
C887   C     0.65390   0.16707   0.85180   0.00000  Uiso   1.00
C888   C     0.47680   0.02140   0.79470   0.00000  Uiso   1.00
C889   C     0.52320   0.31193   0.87197   0.00000  Uiso   1.00
C890   C     0.47548   0.31193   0.79380   0.00000  Uiso   1.00
Cl891  Cl    0.42348   0.10666   0.71165   0.00000  Uiso   1.00
Cl892  Cl    0.57652   0.22667   0.95501   0.00000  Uiso   1.00
Cu893  Cu    0.50000   0.16667   0.88022   0.00000  Uiso   1.00
Cu894  Cu    0.50000   0.16666   0.78645   0.00000  Uiso   1.00
H895   H     0.65965   0.16529   0.77939   0.00000  Uiso   1.00
H896   H     0.41079   0.12013   0.92061   0.00000  Uiso   1.00
H897   H     0.54089   0.24773   0.73102   0.00000  Uiso   1.00
H898   H     0.58919   0.21321   0.74607   0.00000  Uiso   1.00
H899   H     0.34036   0.16804   0.88728   0.00000  Uiso   1.00
H900   H     0.45808   0.03772   0.76487   0.00000  Uiso   1.00
H901   H     0.54192   0.29561   0.90180   0.00000  Uiso   1.00
H902   H     0.46534   0.30023   0.72463   0.00000  Uiso   1.00
H903   H     0.41036   0.29921   0.74951   0.00000  Uiso   1.00
H904   H     0.53466   0.03310   0.94203   0.00000  Uiso   1.00
H905   H     0.58964   0.03412   0.91716   0.00000  Uiso   1.00
H906   H     0.45909   0.08561   0.93563   0.00000  Uiso   1.00
N907   N     0.50001   0.16668   0.95069   0.00000  Uiso   1.00
N908   N     0.49999   0.16666   0.71597   0.00000  Uiso   1.00
N909   N     0.44875   0.29051   0.75402   0.00000  Uiso   1.00
N910   N     0.55125   0.04283   0.91265   0.00000  Uiso   1.00
N911   N     0.43649   0.10807   0.94712   0.00000  Uiso   1.00
N912   N     0.56350   0.22527   0.71954   0.00000  Uiso   1.00
O913   O     0.50000   0.10655   0.87291   0.00000  Uiso   1.00
O914   O     0.50000   0.22678   0.79375   0.00000  Uiso   1.00
O915   O     0.50000   0.10654   0.79372   0.00000  Uiso   1.00
O916   O     0.50000   0.22679   0.87294   0.00000  Uiso   1.00
O917   O     0.42495   0.16667   0.86379   0.00000  Uiso   1.00
O918   O     0.57505   0.16666   0.80288   0.00000  Uiso   1.00
O919   O     0.42494   0.16666   0.78460   0.00000  Uiso   1.00
O920   O     0.57506   0.16667   0.88207   0.00000  Uiso   1.00
C921   C     0.83387   0.08755   0.83357   0.00000  Uiso   1.00
C922   C     0.85785   0.02140   0.87287   0.00000  Uiso   1.00
C923   C     0.83247   0.29044   0.83272   0.00000  Uiso   1.00
C924   C     0.83419   0.04289   0.83395   0.00000  Uiso   1.00
C925   C     0.80109   0.14031   0.68792   0.00000  Uiso   1.00
C926   C     0.86558   0.19302   0.97874   0.00000  Uiso   1.00
C927   C     0.80169   0.13955   0.97233   0.00000  Uiso   1.00
C928   C     0.86498   0.19379   0.69433   0.00000  Uiso   1.00
C929   C     0.83280   0.24578   0.83310   0.00000  Uiso   1.00
C930   C     0.73476   0.16653   0.82138   0.00000  Uiso   1.00
C931   C     0.93191   0.16681   0.84528   0.00000  Uiso   1.00
C932   C     0.67943   0.16626   0.81487   0.00000  Uiso   1.00
C933   C     0.98723   0.16707   0.85180   0.00000  Uiso   1.00
C934   C     0.81013   0.02140   0.79470   0.00000  Uiso   1.00
C935   C     0.85653   0.31193   0.87197   0.00000  Uiso   1.00
C936   C     0.80882   0.31193   0.79380   0.00000  Uiso   1.00
Cl937  Cl    0.75681   0.10666   0.71165   0.00000  Uiso   1.00
Cl938  Cl    0.90986   0.22667   0.95501   0.00000  Uiso   1.00
Cu939  Cu    0.83333   0.16667   0.88022   0.00000  Uiso   1.00
Cu940  Cu    0.83333   0.16666   0.78645   0.00000  Uiso   1.00
H941   H     0.99298   0.16529   0.77939   0.00000  Uiso   1.00
H942   H     0.74412   0.12013   0.92061   0.00000  Uiso   1.00
H943   H     0.87422   0.24773   0.73102   0.00000  Uiso   1.00
H944   H     0.92253   0.21321   0.74607   0.00000  Uiso   1.00
H945   H     0.67369   0.16804   0.88728   0.00000  Uiso   1.00
H946   H     0.79141   0.03772   0.76487   0.00000  Uiso   1.00
H947   H     0.87526   0.29561   0.90180   0.00000  Uiso   1.00
H948   H     0.79867   0.30023   0.72463   0.00000  Uiso   1.00
H949   H     0.74369   0.29921   0.74951   0.00000  Uiso   1.00
H950   H     0.86799   0.03310   0.94203   0.00000  Uiso   1.00
H951   H     0.92297   0.03412   0.91716   0.00000  Uiso   1.00
H952   H     0.79243   0.08561   0.93563   0.00000  Uiso   1.00
N953   N     0.83335   0.16668   0.95069   0.00000  Uiso   1.00
N954   N     0.83332   0.16666   0.71597   0.00000  Uiso   1.00
N955   N     0.78209   0.29051   0.75402   0.00000  Uiso   1.00
N956   N     0.88458   0.04283   0.91265   0.00000  Uiso   1.00
N957   N     0.76983   0.10807   0.94712   0.00000  Uiso   1.00
N958   N     0.89683   0.22527   0.71954   0.00000  Uiso   1.00
O959   O     0.83333   0.10655   0.87291   0.00000  Uiso   1.00
O960   O     0.83334   0.22678   0.79375   0.00000  Uiso   1.00
O961   O     0.83333   0.10654   0.79372   0.00000  Uiso   1.00
O962   O     0.83334   0.22679   0.87294   0.00000  Uiso   1.00
O963   O     0.75828   0.16667   0.86379   0.00000  Uiso   1.00
O964   O     0.90839   0.16666   0.80288   0.00000  Uiso   1.00
O965   O     0.75828   0.16666   0.78460   0.00000  Uiso   1.00
O966   O     0.90839   0.16667   0.88207   0.00000  Uiso   1.00
C967   C     0.16720   0.42089   0.83357   0.00000  Uiso   1.00
C968   C     0.19118   0.35474   0.87287   0.00000  Uiso   1.00
C969   C     0.16581   0.62378   0.83272   0.00000  Uiso   1.00
C970   C     0.16753   0.37622   0.83395   0.00000  Uiso   1.00
C971   C     0.13442   0.47365   0.68792   0.00000  Uiso   1.00
C972   C     0.19891   0.52635   0.97874   0.00000  Uiso   1.00
C973   C     0.13502   0.47288   0.97233   0.00000  Uiso   1.00
C974   C     0.19831   0.52712   0.69433   0.00000  Uiso   1.00
C975   C     0.16613   0.57911   0.83310   0.00000  Uiso   1.00
C976   C     0.06809   0.49986   0.82138   0.00000  Uiso   1.00
C977   C     0.26524   0.50014   0.84528   0.00000  Uiso   1.00
C978   C     0.01277   0.49959   0.81487   0.00000  Uiso   1.00
C979   C     0.32057   0.50040   0.85180   0.00000  Uiso   1.00
C980   C     0.14347   0.35473   0.79470   0.00000  Uiso   1.00
C981   C     0.18987   0.64527   0.87197   0.00000  Uiso   1.00
C982   C     0.14215   0.64526   0.79380   0.00000  Uiso   1.00
Cl983  Cl    0.09014   0.44000   0.71165   0.00000  Uiso   1.00
Cl984  Cl    0.24319   0.56000   0.95501   0.00000  Uiso   1.00
Cu985  Cu    0.16667   0.50001   0.88022   0.00000  Uiso   1.00
Cu986  Cu    0.16667   0.49999   0.78645   0.00000  Uiso   1.00
H987   H     0.32631   0.49862   0.77939   0.00000  Uiso   1.00
H988   H     0.07745   0.45347   0.92061   0.00000  Uiso   1.00
H989   H     0.20755   0.58106   0.73102   0.00000  Uiso   1.00
H990   H     0.25586   0.54655   0.74607   0.00000  Uiso   1.00
H991   H     0.00702   0.50137   0.88728   0.00000  Uiso   1.00
H992   H     0.12474   0.37106   0.76487   0.00000  Uiso   1.00
H993   H     0.20859   0.62894   0.90180   0.00000  Uiso   1.00
H994   H     0.13200   0.63357   0.72463   0.00000  Uiso   1.00
H995   H     0.07703   0.63254   0.74951   0.00000  Uiso   1.00
H996   H     0.20133   0.36644   0.94203   0.00000  Uiso   1.00
H997   H     0.25631   0.36746   0.91716   0.00000  Uiso   1.00
H998   H     0.12576   0.41895   0.93563   0.00000  Uiso   1.00
N999   N     0.16668   0.50001   0.95069   0.00000  Uiso   1.00
N1000  N     0.16665   0.49999   0.71597   0.00000  Uiso   1.00
N1001  N     0.11542   0.62384   0.75402   0.00000  Uiso   1.00
N1002  N     0.21792   0.37616   0.91265   0.00000  Uiso   1.00
N1003  N     0.10316   0.44140   0.94712   0.00000  Uiso   1.00
N1004  N     0.23016   0.55861   0.71954   0.00000  Uiso   1.00
O1005  O     0.16666   0.43989   0.87291   0.00000  Uiso   1.00
O1006  O     0.16667   0.56011   0.79375   0.00000  Uiso   1.00
O1007  O     0.16666   0.43988   0.79372   0.00000  Uiso   1.00
O1008  O     0.16667   0.56012   0.87294   0.00000  Uiso   1.00
O1009  O     0.09161   0.50000   0.86379   0.00000  Uiso   1.00
O1010  O     0.24172   0.50000   0.80288   0.00000  Uiso   1.00
O1011  O     0.09161   0.49999   0.78460   0.00000  Uiso   1.00
O1012  O     0.24172   0.50001   0.88207   0.00000  Uiso   1.00
C1013  C     0.50054   0.42089   0.83357   0.00000  Uiso   1.00
C1014  C     0.52452   0.35474   0.87287   0.00000  Uiso   1.00
C1015  C     0.49914   0.62378   0.83272   0.00000  Uiso   1.00
C1016  C     0.50086   0.37622   0.83395   0.00000  Uiso   1.00
C1017  C     0.46776   0.47365   0.68792   0.00000  Uiso   1.00
C1018  C     0.53224   0.52635   0.97874   0.00000  Uiso   1.00
C1019  C     0.46835   0.47288   0.97233   0.00000  Uiso   1.00
C1020  C     0.53165   0.52712   0.69433   0.00000  Uiso   1.00
C1021  C     0.49947   0.57911   0.83310   0.00000  Uiso   1.00
C1022  C     0.40143   0.49986   0.82138   0.00000  Uiso   1.00
C1023  C     0.59857   0.50014   0.84528   0.00000  Uiso   1.00
C1024  C     0.34610   0.49959   0.81487   0.00000  Uiso   1.00
C1025  C     0.65390   0.50040   0.85180   0.00000  Uiso   1.00
C1026  C     0.47680   0.35473   0.79470   0.00000  Uiso   1.00
C1027  C     0.52320   0.64527   0.87197   0.00000  Uiso   1.00
C1028  C     0.47548   0.64526   0.79380   0.00000  Uiso   1.00
Cl1029 Cl    0.42348   0.44000   0.71165   0.00000  Uiso   1.00
Cl1030 Cl    0.57652   0.56000   0.95501   0.00000  Uiso   1.00
Cu1031 Cu    0.50000   0.50001   0.88022   0.00000  Uiso   1.00
Cu1032 Cu    0.50000   0.49999   0.78645   0.00000  Uiso   1.00
H1033  H     0.65965   0.49862   0.77939   0.00000  Uiso   1.00
H1034  H     0.41079   0.45347   0.92061   0.00000  Uiso   1.00
H1035  H     0.54089   0.58106   0.73102   0.00000  Uiso   1.00
H1036  H     0.58919   0.54655   0.74607   0.00000  Uiso   1.00
H1037  H     0.34036   0.50137   0.88728   0.00000  Uiso   1.00
H1038  H     0.45808   0.37106   0.76487   0.00000  Uiso   1.00
H1039  H     0.54192   0.62894   0.90180   0.00000  Uiso   1.00
H1040  H     0.46534   0.63357   0.72463   0.00000  Uiso   1.00
H1041  H     0.41036   0.63254   0.74951   0.00000  Uiso   1.00
H1042  H     0.53466   0.36644   0.94203   0.00000  Uiso   1.00
H1043  H     0.58964   0.36746   0.91716   0.00000  Uiso   1.00
H1044  H     0.45909   0.41895   0.93563   0.00000  Uiso   1.00
N1045  N     0.50001   0.50001   0.95069   0.00000  Uiso   1.00
N1046  N     0.49999   0.49999   0.71597   0.00000  Uiso   1.00
N1047  N     0.44875   0.62384   0.75402   0.00000  Uiso   1.00
N1048  N     0.55125   0.37616   0.91265   0.00000  Uiso   1.00
N1049  N     0.43649   0.44140   0.94712   0.00000  Uiso   1.00
N1050  N     0.56350   0.55861   0.71954   0.00000  Uiso   1.00
O1051  O     0.50000   0.43989   0.87291   0.00000  Uiso   1.00
O1052  O     0.50000   0.56011   0.79375   0.00000  Uiso   1.00
O1053  O     0.50000   0.43988   0.79372   0.00000  Uiso   1.00
O1054  O     0.50000   0.56012   0.87294   0.00000  Uiso   1.00
O1055  O     0.42495   0.50000   0.86379   0.00000  Uiso   1.00
O1056  O     0.57505   0.50000   0.80288   0.00000  Uiso   1.00
O1057  O     0.42494   0.49999   0.78460   0.00000  Uiso   1.00
O1058  O     0.57506   0.50001   0.88207   0.00000  Uiso   1.00
C1059  C     0.83387   0.42089   0.83357   0.00000  Uiso   1.00
C1060  C     0.85785   0.35474   0.87287   0.00000  Uiso   1.00
C1061  C     0.83247   0.62378   0.83272   0.00000  Uiso   1.00
C1062  C     0.83419   0.37622   0.83395   0.00000  Uiso   1.00
C1063  C     0.80109   0.47365   0.68792   0.00000  Uiso   1.00
C1064  C     0.86558   0.52635   0.97874   0.00000  Uiso   1.00
C1065  C     0.80169   0.47288   0.97233   0.00000  Uiso   1.00
C1066  C     0.86498   0.52712   0.69433   0.00000  Uiso   1.00
C1067  C     0.83280   0.57911   0.83310   0.00000  Uiso   1.00
C1068  C     0.73476   0.49986   0.82138   0.00000  Uiso   1.00
C1069  C     0.93191   0.50014   0.84528   0.00000  Uiso   1.00
C1070  C     0.67943   0.49959   0.81487   0.00000  Uiso   1.00
C1071  C     0.98723   0.50040   0.85180   0.00000  Uiso   1.00
C1072  C     0.81013   0.35473   0.79470   0.00000  Uiso   1.00
C1073  C     0.85653   0.64527   0.87197   0.00000  Uiso   1.00
C1074  C     0.80882   0.64526   0.79380   0.00000  Uiso   1.00
Cl1075 Cl    0.75681   0.44000   0.71165   0.00000  Uiso   1.00
Cl1076 Cl    0.90986   0.56000   0.95501   0.00000  Uiso   1.00
Cu1077 Cu    0.83333   0.50001   0.88022   0.00000  Uiso   1.00
Cu1078 Cu    0.83333   0.49999   0.78645   0.00000  Uiso   1.00
H1079  H     0.99298   0.49862   0.77939   0.00000  Uiso   1.00
H1080  H     0.74412   0.45347   0.92061   0.00000  Uiso   1.00
H1081  H     0.87422   0.58106   0.73102   0.00000  Uiso   1.00
H1082  H     0.92253   0.54655   0.74607   0.00000  Uiso   1.00
H1083  H     0.67369   0.50137   0.88728   0.00000  Uiso   1.00
H1084  H     0.79141   0.37106   0.76487   0.00000  Uiso   1.00
H1085  H     0.87526   0.62894   0.90180   0.00000  Uiso   1.00
H1086  H     0.79867   0.63357   0.72463   0.00000  Uiso   1.00
H1087  H     0.74369   0.63254   0.74951   0.00000  Uiso   1.00
H1088  H     0.86799   0.36644   0.94203   0.00000  Uiso   1.00
H1089  H     0.92297   0.36746   0.91716   0.00000  Uiso   1.00
H1090  H     0.79243   0.41895   0.93563   0.00000  Uiso   1.00
N1091  N     0.83335   0.50001   0.95069   0.00000  Uiso   1.00
N1092  N     0.83332   0.49999   0.71597   0.00000  Uiso   1.00
N1093  N     0.78209   0.62384   0.75402   0.00000  Uiso   1.00
N1094  N     0.88458   0.37616   0.91265   0.00000  Uiso   1.00
N1095  N     0.76983   0.44140   0.94712   0.00000  Uiso   1.00
N1096  N     0.89683   0.55861   0.71954   0.00000  Uiso   1.00
O1097  O     0.83333   0.43989   0.87291   0.00000  Uiso   1.00
O1098  O     0.83334   0.56011   0.79375   0.00000  Uiso   1.00
O1099  O     0.83333   0.43988   0.79372   0.00000  Uiso   1.00
O1100  O     0.83334   0.56012   0.87294   0.00000  Uiso   1.00
O1101  O     0.75828   0.50000   0.86379   0.00000  Uiso   1.00
O1102  O     0.90839   0.50000   0.80288   0.00000  Uiso   1.00
O1103  O     0.75828   0.49999   0.78460   0.00000  Uiso   1.00
O1104  O     0.90839   0.50001   0.88207   0.00000  Uiso   1.00
C1105  C     0.16720   0.75422   0.83357   0.00000  Uiso   1.00
C1106  C     0.19118   0.68807   0.87287   0.00000  Uiso   1.00
C1107  C     0.16581   0.95711   0.83272   0.00000  Uiso   1.00
C1108  C     0.16753   0.70956   0.83395   0.00000  Uiso   1.00
C1109  C     0.13442   0.80698   0.68792   0.00000  Uiso   1.00
C1110  C     0.19891   0.85969   0.97874   0.00000  Uiso   1.00
C1111  C     0.13502   0.80622   0.97233   0.00000  Uiso   1.00
C1112  C     0.19831   0.86045   0.69433   0.00000  Uiso   1.00
C1113  C     0.16613   0.91245   0.83310   0.00000  Uiso   1.00
C1114  C     0.06809   0.83319   0.82138   0.00000  Uiso   1.00
C1115  C     0.26524   0.83347   0.84528   0.00000  Uiso   1.00
C1116  C     0.01277   0.83293   0.81487   0.00000  Uiso   1.00
C1117  C     0.32057   0.83374   0.85180   0.00000  Uiso   1.00
C1118  C     0.14347   0.68807   0.79470   0.00000  Uiso   1.00
C1119  C     0.18987   0.97860   0.87197   0.00000  Uiso   1.00
C1120  C     0.14215   0.97860   0.79380   0.00000  Uiso   1.00
Cl1121 Cl    0.09014   0.77333   0.71165   0.00000  Uiso   1.00
Cl1122 Cl    0.24319   0.89334   0.95501   0.00000  Uiso   1.00
Cu1123 Cu    0.16667   0.83334   0.88022   0.00000  Uiso   1.00
Cu1124 Cu    0.16667   0.83333   0.78645   0.00000  Uiso   1.00
H1125  H     0.32631   0.83196   0.77939   0.00000  Uiso   1.00
H1126  H     0.07745   0.78680   0.92061   0.00000  Uiso   1.00
H1127  H     0.20755   0.91439   0.73102   0.00000  Uiso   1.00
H1128  H     0.25586   0.87988   0.74607   0.00000  Uiso   1.00
H1129  H     0.00702   0.83471   0.88728   0.00000  Uiso   1.00
H1130  H     0.12474   0.70439   0.76487   0.00000  Uiso   1.00
H1131  H     0.20859   0.96228   0.90180   0.00000  Uiso   1.00
H1132  H     0.13200   0.96690   0.72463   0.00000  Uiso   1.00
H1133  H     0.07703   0.96587   0.74951   0.00000  Uiso   1.00
H1134  H     0.20133   0.69977   0.94203   0.00000  Uiso   1.00
H1135  H     0.25631   0.70079   0.91716   0.00000  Uiso   1.00
H1136  H     0.12576   0.75228   0.93563   0.00000  Uiso   1.00
N1137  N     0.16668   0.83334   0.95069   0.00000  Uiso   1.00
N1138  N     0.16665   0.83332   0.71597   0.00000  Uiso   1.00
N1139  N     0.11542   0.95717   0.75402   0.00000  Uiso   1.00
N1140  N     0.21792   0.70949   0.91265   0.00000  Uiso   1.00
N1141  N     0.10316   0.77473   0.94712   0.00000  Uiso   1.00
N1142  N     0.23016   0.89194   0.71954   0.00000  Uiso   1.00
O1143  O     0.16666   0.77322   0.87291   0.00000  Uiso   1.00
O1144  O     0.16667   0.89345   0.79375   0.00000  Uiso   1.00
O1145  O     0.16666   0.77321   0.79372   0.00000  Uiso   1.00
O1146  O     0.16667   0.89346   0.87294   0.00000  Uiso   1.00
O1147  O     0.09161   0.83334   0.86379   0.00000  Uiso   1.00
O1148  O     0.24172   0.83333   0.80288   0.00000  Uiso   1.00
O1149  O     0.09161   0.83333   0.78460   0.00000  Uiso   1.00
O1150  O     0.24172   0.83334   0.88207   0.00000  Uiso   1.00
C1151  C     0.50054   0.75422   0.83357   0.00000  Uiso   1.00
C1152  C     0.52452   0.68807   0.87287   0.00000  Uiso   1.00
C1153  C     0.49914   0.95711   0.83272   0.00000  Uiso   1.00
C1154  C     0.50086   0.70956   0.83395   0.00000  Uiso   1.00
C1155  C     0.46776   0.80698   0.68792   0.00000  Uiso   1.00
C1156  C     0.53224   0.85969   0.97874   0.00000  Uiso   1.00
C1157  C     0.46835   0.80622   0.97233   0.00000  Uiso   1.00
C1158  C     0.53165   0.86045   0.69433   0.00000  Uiso   1.00
C1159  C     0.49947   0.91245   0.83310   0.00000  Uiso   1.00
C1160  C     0.40143   0.83319   0.82138   0.00000  Uiso   1.00
C1161  C     0.59857   0.83347   0.84528   0.00000  Uiso   1.00
C1162  C     0.34610   0.83293   0.81487   0.00000  Uiso   1.00
C1163  C     0.65390   0.83374   0.85180   0.00000  Uiso   1.00
C1164  C     0.47680   0.68807   0.79470   0.00000  Uiso   1.00
C1165  C     0.52320   0.97860   0.87197   0.00000  Uiso   1.00
C1166  C     0.47548   0.97860   0.79380   0.00000  Uiso   1.00
Cl1167 Cl    0.42348   0.77333   0.71165   0.00000  Uiso   1.00
Cl1168 Cl    0.57652   0.89334   0.95501   0.00000  Uiso   1.00
Cu1169 Cu    0.50000   0.83334   0.88022   0.00000  Uiso   1.00
Cu1170 Cu    0.50000   0.83333   0.78645   0.00000  Uiso   1.00
H1171  H     0.65965   0.83196   0.77939   0.00000  Uiso   1.00
H1172  H     0.41079   0.78680   0.92061   0.00000  Uiso   1.00
H1173  H     0.54089   0.91439   0.73102   0.00000  Uiso   1.00
H1174  H     0.58919   0.87988   0.74607   0.00000  Uiso   1.00
H1175  H     0.34036   0.83471   0.88728   0.00000  Uiso   1.00
H1176  H     0.45808   0.70439   0.76487   0.00000  Uiso   1.00
H1177  H     0.54192   0.96228   0.90180   0.00000  Uiso   1.00
H1178  H     0.46534   0.96690   0.72463   0.00000  Uiso   1.00
H1179  H     0.41036   0.96587   0.74951   0.00000  Uiso   1.00
H1180  H     0.53466   0.69977   0.94203   0.00000  Uiso   1.00
H1181  H     0.58964   0.70079   0.91716   0.00000  Uiso   1.00
H1182  H     0.45909   0.75228   0.93563   0.00000  Uiso   1.00
N1183  N     0.50001   0.83334   0.95069   0.00000  Uiso   1.00
N1184  N     0.49999   0.83332   0.71597   0.00000  Uiso   1.00
N1185  N     0.44875   0.95717   0.75402   0.00000  Uiso   1.00
N1186  N     0.55125   0.70949   0.91265   0.00000  Uiso   1.00
N1187  N     0.43649   0.77473   0.94712   0.00000  Uiso   1.00
N1188  N     0.56350   0.89194   0.71954   0.00000  Uiso   1.00
O1189  O     0.50000   0.77322   0.87291   0.00000  Uiso   1.00
O1190  O     0.50000   0.89345   0.79375   0.00000  Uiso   1.00
O1191  O     0.50000   0.77321   0.79372   0.00000  Uiso   1.00
O1192  O     0.50000   0.89346   0.87294   0.00000  Uiso   1.00
O1193  O     0.42495   0.83334   0.86379   0.00000  Uiso   1.00
O1194  O     0.57505   0.83333   0.80288   0.00000  Uiso   1.00
O1195  O     0.42494   0.83333   0.78460   0.00000  Uiso   1.00
O1196  O     0.57506   0.83334   0.88207   0.00000  Uiso   1.00
C1197  C     0.83387   0.75422   0.83357   0.00000  Uiso   1.00
C1198  C     0.85785   0.68807   0.87287   0.00000  Uiso   1.00
C1199  C     0.83247   0.95711   0.83272   0.00000  Uiso   1.00
C1200  C     0.83419   0.70956   0.83395   0.00000  Uiso   1.00
C1201  C     0.80109   0.80698   0.68792   0.00000  Uiso   1.00
C1202  C     0.86558   0.85969   0.97874   0.00000  Uiso   1.00
C1203  C     0.80169   0.80622   0.97233   0.00000  Uiso   1.00
C1204  C     0.86498   0.86045   0.69433   0.00000  Uiso   1.00
C1205  C     0.83280   0.91245   0.83310   0.00000  Uiso   1.00
C1206  C     0.73476   0.83319   0.82138   0.00000  Uiso   1.00
C1207  C     0.93191   0.83347   0.84528   0.00000  Uiso   1.00
C1208  C     0.67943   0.83293   0.81487   0.00000  Uiso   1.00
C1209  C     0.98723   0.83374   0.85180   0.00000  Uiso   1.00
C1210  C     0.81013   0.68807   0.79470   0.00000  Uiso   1.00
C1211  C     0.85653   0.97860   0.87197   0.00000  Uiso   1.00
C1212  C     0.80882   0.97860   0.79380   0.00000  Uiso   1.00
Cl1213 Cl    0.75681   0.77333   0.71165   0.00000  Uiso   1.00
Cl1214 Cl    0.90986   0.89334   0.95501   0.00000  Uiso   1.00
Cu1215 Cu    0.83333   0.83334   0.88022   0.00000  Uiso   1.00
Cu1216 Cu    0.83333   0.83333   0.78645   0.00000  Uiso   1.00
H1217  H     0.99298   0.83196   0.77939   0.00000  Uiso   1.00
H1218  H     0.74412   0.78680   0.92061   0.00000  Uiso   1.00
H1219  H     0.87422   0.91439   0.73102   0.00000  Uiso   1.00
H1220  H     0.92253   0.87988   0.74607   0.00000  Uiso   1.00
H1221  H     0.67369   0.83471   0.88728   0.00000  Uiso   1.00
H1222  H     0.79141   0.70439   0.76487   0.00000  Uiso   1.00
H1223  H     0.87526   0.96228   0.90180   0.00000  Uiso   1.00
H1224  H     0.79867   0.96690   0.72463   0.00000  Uiso   1.00
H1225  H     0.74369   0.96587   0.74951   0.00000  Uiso   1.00
H1226  H     0.86799   0.69977   0.94203   0.00000  Uiso   1.00
H1227  H     0.92297   0.70079   0.91716   0.00000  Uiso   1.00
H1228  H     0.79243   0.75228   0.93563   0.00000  Uiso   1.00
N1229  N     0.83335   0.83334   0.95069   0.00000  Uiso   1.00
N1230  N     0.83332   0.83332   0.71597   0.00000  Uiso   1.00
N1231  N     0.78209   0.95717   0.75402   0.00000  Uiso   1.00
N1232  N     0.88458   0.70949   0.91265   0.00000  Uiso   1.00
N1233  N     0.76983   0.77473   0.94712   0.00000  Uiso   1.00
N1234  N     0.89683   0.89194   0.71954   0.00000  Uiso   1.00
O1235  O     0.83333   0.77322   0.87291   0.00000  Uiso   1.00
O1236  O     0.83334   0.89345   0.79375   0.00000  Uiso   1.00
O1237  O     0.83333   0.77321   0.79372   0.00000  Uiso   1.00
O1238  O     0.83334   0.89346   0.87294   0.00000  Uiso   1.00
O1239  O     0.75828   0.83334   0.86379   0.00000  Uiso   1.00
O1240  O     0.90839   0.83333   0.80288   0.00000  Uiso   1.00
O1241  O     0.75828   0.83333   0.78460   0.00000  Uiso   1.00
O1242  O     0.90839   0.83334   0.88207   0.00000  Uiso   1.00
loop_
_geom_bond_atom_site_label_1
_geom_bond_atom_site_label_2
_geom_bond_distance
_geom_bond_site_symmetry_2
_ccdc_geom_bond_type
C1     C4      1.450   .     S
C1     O41     1.302   .     A
C1     O39     1.301   .     A
C2     C4      1.406   .     A
C2     N36     1.434   .     S
C2     C291    1.389   1_545 S
C3     C9      1.450   .     S
C3     C15     1.399   .     A
C3     C16     1.406   .     A
C4     C14     1.399   .     A
C5     N34     1.367   .     A
C5     Cl17    1.761   .     S
C5     C835    1.418   1_554 S
C6     N33     1.367   .     A
C6     Cl18    1.761   .     S
C6     C422    1.418   .     S
C7     N37     1.432   .     S
C7     N33     1.386   .     A
C7     C419    1.418   .     S
C8     N34     1.386   .     A
C8     N38     1.432   .     S
C8     C834    1.418   1_554 S
C9     O42     1.302   .     A
C9     O40     1.301   .     A
C10    O45     1.298   .     A
C10    C12     1.434   .     S
C10    O43     1.298   .     A
C11    C13     1.434   .     S
C11    O44     1.298   .     A
C11    O46     1.298   .     A
C12    C105    1.334   1_455 S
C12    H113    1.087   1_455 S
C13    C58     1.334   .     S
C13    H71     1.087   .     S
C14    H26     1.081   .     S
C14    C292    1.389   1_545 S
C15    H27     1.081   .     S
C15    C140    1.389   .     S
C16    N35     1.434   .     S
C16    C152    1.389   .     S
Cu19   O42     1.961   .     S
Cu19   O46     1.957   .     S
Cu19   O43     1.958   .     S
Cu19   O39     1.965   .     S
Cu19   N33     2.039   .     S
Cu19   Cu20    2.714   .     S
Cu20   O45     1.957   .     S
Cu20   N34     2.039   .     S
Cu20   O41     1.961   .     S
Cu20   O44     1.958   .     S
Cu20   O40     1.965   .     S
H21    C58     1.087   .     S
H22    N37     1.037   .     S
H23    N38     1.041   .     S
H24    N38     1.037   .     S
H25    C105    1.087   1_455 S
H28    N35     1.046   .     S
H29    N35     1.046   .     S
H30    N36     1.046   .     S
H31    N36     1.046   .     S
H32    N37     1.041   .     S
C47    C50     1.450   .     S
C47    O87     1.302   .     A
C47    O85     1.301   .     A
C48    C50     1.406   .     A
C48    N82     1.434   .     S
C48    C337    1.389   1_545 S
C49    C55     1.450   .     S
C49    C61     1.399   .     A
C49    C62     1.406   .     A
C50    C60     1.399   .     A
C51    N80     1.367   .     A
C51    Cl63    1.761   .     S
C51    C881    1.418   1_554 S
C52    N79     1.367   .     A
C52    Cl64    1.761   .     S
C52    C468    1.418   .     S
C53    N83     1.432   .     S
C53    N79     1.386   .     A
C53    C465    1.418   .     S
C54    N80     1.386   .     A
C54    N84     1.432   .     S
C54    C880    1.418   1_554 S
C55    O88     1.302   .     A
C55    O86     1.301   .     A
C56    O91     1.298   .     A
C56    C58     1.434   .     S
C56    O89     1.298   .     A
C57    C59     1.434   .     S
C57    O90     1.298   .     A
C57    O92     1.298   .     A
C59    C104    1.334   .     S
C59    H117    1.087   .     S
C60    H72     1.081   .     S
C60    C338    1.389   1_545 S
C61    H73     1.081   .     S
C61    C186    1.389   .     S
C62    N81     1.434   .     S
C62    C198    1.389   .     S
Cu65   O88     1.961   .     S
Cu65   O92     1.957   .     S
Cu65   O89     1.958   .     S
Cu65   O85     1.965   .     S
Cu65   N79     2.039   .     S
Cu65   Cu66    2.714   .     S
Cu66   O91     1.957   .     S
Cu66   N80     2.039   .     S
Cu66   O87     1.961   .     S
Cu66   O90     1.958   .     S
Cu66   O86     1.965   .     S
H67    C104    1.087   .     S
H68    N83     1.037   .     S
H69    N84     1.041   .     S
H70    N84     1.037   .     S
H74    N81     1.046   .     S
H75    N81     1.046   .     S
H76    N82     1.046   .     S
H77    N82     1.046   .     S
H78    N83     1.041   .     S
C93    C96     1.450   .     S
C93    O133    1.302   .     A
C93    O131    1.301   .     A
C94    C96     1.406   .     A
C94    N128    1.434   .     S
C94    C383    1.389   1_545 S
C95    C101    1.450   .     S
C95    C107    1.399   .     A
C95    C108    1.406   .     A
C96    C106    1.399   .     A
C97    N126    1.367   .     A
C97    Cl109   1.761   .     S
C97    C927    1.418   1_554 S
C98    N125    1.367   .     A
C98    Cl110   1.761   .     S
C98    C514    1.418   .     S
C99    N129    1.432   .     S
C99    N125    1.386   .     A
C99    C511    1.418   .     S
C100   N126    1.386   .     A
C100   N130    1.432   .     S
C100   C926    1.418   1_554 S
C101   O134    1.302   .     A
C101   O132    1.301   .     A
C102   O137    1.298   .     A
C102   C104    1.434   .     S
C102   O135    1.298   .     A
C103   C105    1.434   .     S
C103   O136    1.298   .     A
C103   O138    1.298   .     A
C105   C12     1.334   1_655 S
C105   H25     1.087   1_655 S
C106   H118    1.081   .     S
C106   C384    1.389   1_545 S
C107   H119    1.081   .     S
C107   C232    1.389   .     S
C108   N127    1.434   .     S
C108   C244    1.389   .     S
Cu111  O134    1.961   .     S
Cu111  O138    1.957   .     S
Cu111  O135    1.958   .     S
Cu111  O131    1.965   .     S
Cu111  N125    2.039   .     S
Cu111  Cu112   2.714   .     S
Cu112  O137    1.957   .     S
Cu112  N126    2.039   .     S
Cu112  O133    1.961   .     S
Cu112  O136    1.958   .     S
Cu112  O132    1.965   .     S
H113   C12     1.087   1_655 S
H114   N129    1.037   .     S
H115   N130    1.041   .     S
H116   N130    1.037   .     S
H120   N127    1.046   .     S
H121   N127    1.046   .     S
H122   N128    1.046   .     S
H123   N128    1.046   .     S
H124   N129    1.041   .     S
C139   C142    1.450   .     S
C139   O179    1.302   .     A
C139   O177    1.301   .     A
C140   C142    1.406   .     A
C140   N174    1.434   .     S
C141   C147    1.450   .     S
C141   C153    1.399   .     A
C141   C154    1.406   .     A
C142   C152    1.399   .     A
C143   N172    1.367   .     A
C143   Cl155   1.761   .     S
C143   C973    1.418   1_554 S
C144   N171    1.367   .     A
C144   Cl156   1.761   .     S
C144   C560    1.418   .     S
C145   N175    1.432   .     S
C145   N171    1.386   .     A
C145   C557    1.418   .     S
C146   N172    1.386   .     A
C146   N176    1.432   .     S
C146   C972    1.418   1_554 S
C147   O180    1.302   .     A
C147   O178    1.301   .     A
C148   O183    1.298   .     A
C148   C150    1.434   .     S
C148   O181    1.298   .     A
C149   C151    1.434   .     S
C149   O182    1.298   .     A
C149   O184    1.298   .     A
C150   C243    1.334   1_455 S
C150   H251    1.087   1_455 S
C151   C196    1.334   .     S
C151   H209    1.087   .     S
C152   H164    1.081   .     S
C153   H165    1.081   .     S
C153   C278    1.389   .     S
C154   N173    1.434   .     S
C154   C290    1.389   .     S
Cu157  O180    1.961   .     S
Cu157  O184    1.957   .     S
Cu157  O181    1.958   .     S
Cu157  O177    1.965   .     S
Cu157  N171    2.039   .     S
Cu157  Cu158   2.714   .     S
Cu158  O183    1.957   .     S
Cu158  N172    2.039   .     S
Cu158  O179    1.961   .     S
Cu158  O182    1.958   .     S
Cu158  O178    1.965   .     S
H159   C196    1.087   .     S
H160   N175    1.037   .     S
H161   N176    1.041   .     S
H162   N176    1.037   .     S
H163   C243    1.087   1_455 S
H166   N173    1.046   .     S
H167   N173    1.046   .     S
H168   N174    1.046   .     S
H169   N174    1.046   .     S
H170   N175    1.041   .     S
C185   C188    1.450   .     S
C185   O225    1.302   .     A
C185   O223    1.301   .     A
C186   C188    1.406   .     A
C186   N220    1.434   .     S
C187   C193    1.450   .     S
C187   C199    1.399   .     A
C187   C200    1.406   .     A
C188   C198    1.399   .     A
C189   N218    1.367   .     A
C189   Cl201   1.761   .     S
C189   C1019   1.418   1_554 S
C190   N217    1.367   .     A
C190   Cl202   1.761   .     S
C190   C606    1.418   .     S
C191   N221    1.432   .     S
C191   N217    1.386   .     A
C191   C603    1.418   .     S
C192   N218    1.386   .     A
C192   N222    1.432   .     S
C192   C1018   1.418   1_554 S
C193   O226    1.302   .     A
C193   O224    1.301   .     A
C194   O229    1.298   .     A
C194   C196    1.434   .     S
C194   O227    1.298   .     A
C195   C197    1.434   .     S
C195   O228    1.298   .     A
C195   O230    1.298   .     A
C197   C242    1.334   .     S
C197   H255    1.087   .     S
C198   H210    1.081   .     S
C199   H211    1.081   .     S
C199   C324    1.389   .     S
C200   N219    1.434   .     S
C200   C336    1.389   .     S
Cu203  O226    1.961   .     S
Cu203  O230    1.957   .     S
Cu203  O227    1.958   .     S
Cu203  O223    1.965   .     S
Cu203  N217    2.039   .     S
Cu203  Cu204   2.714   .     S
Cu204  O229    1.957   .     S
Cu204  N218    2.039   .     S
Cu204  O225    1.961   .     S
Cu204  O228    1.958   .     S
Cu204  O224    1.965   .     S
H205   C242    1.087   .     S
H206   N221    1.037   .     S
H207   N222    1.041   .     S
H208   N222    1.037   .     S
H212   N219    1.046   .     S
H213   N219    1.046   .     S
H214   N220    1.046   .     S
H215   N220    1.046   .     S
H216   N221    1.041   .     S
C231   C234    1.450   .     S
C231   O271    1.302   .     A
C231   O269    1.301   .     A
C232   C234    1.406   .     A
C232   N266    1.434   .     S
C233   C239    1.450   .     S
C233   C245    1.399   .     A
C233   C246    1.406   .     A
C234   C244    1.399   .     A
C235   N264    1.367   .     A
C235   Cl247   1.761   .     S
C235   C1065   1.418   1_554 S
C236   N263    1.367   .     A
C236   Cl248   1.761   .     S
C236   C652    1.418   .     S
C237   N267    1.432   .     S
C237   N263    1.386   .     A
C237   C649    1.418   .     S
C238   N264    1.386   .     A
C238   N268    1.432   .     S
C238   C1064   1.418   1_554 S
C239   O272    1.302   .     A
C239   O270    1.301   .     A
C240   O275    1.298   .     A
C240   C242    1.434   .     S
C240   O273    1.298   .     A
C241   C243    1.434   .     S
C241   O274    1.298   .     A
C241   O276    1.298   .     A
C243   C150    1.334   1_655 S
C243   H163    1.087   1_655 S
C244   H256    1.081   .     S
C245   H257    1.081   .     S
C245   C370    1.389   .     S
C246   N265    1.434   .     S
C246   C382    1.389   .     S
Cu249  O272    1.961   .     S
Cu249  O276    1.957   .     S
Cu249  O273    1.958   .     S
Cu249  O269    1.965   .     S
Cu249  N263    2.039   .     S
Cu249  Cu250   2.714   .     S
Cu250  O275    1.957   .     S
Cu250  N264    2.039   .     S
Cu250  O271    1.961   .     S
Cu250  O274    1.958   .     S
Cu250  O270    1.965   .     S
H251   C150    1.087   1_655 S
H252   N267    1.037   .     S
H253   N268    1.041   .     S
H254   N268    1.037   .     S
H258   N265    1.046   .     S
H259   N265    1.046   .     S
H260   N266    1.046   .     S
H261   N266    1.046   .     S
H262   N267    1.041   .     S
C277   C280    1.450   .     S
C277   O317    1.302   .     A
C277   O315    1.301   .     A
C278   C280    1.406   .     A
C278   N312    1.434   .     S
C279   C285    1.450   .     S
C279   C291    1.399   .     A
C279   C292    1.406   .     A
C280   C290    1.399   .     A
C281   N310    1.367   .     A
C281   Cl293   1.761   .     S
C281   C1111   1.418   1_554 S
C282   N309    1.367   .     A
C282   Cl294   1.761   .     S
C282   C698    1.418   .     S
C283   N313    1.432   .     S
C283   N309    1.386   .     A
C283   C695    1.418   .     S
C284   N310    1.386   .     A
C284   N314    1.432   .     S
C284   C1110   1.418   1_554 S
C285   O318    1.302   .     A
C285   O316    1.301   .     A
C286   O321    1.298   .     A
C286   C288    1.434   .     S
C286   O319    1.298   .     A
C287   C289    1.434   .     S
C287   O320    1.298   .     A
C287   O322    1.298   .     A
C288   C381    1.334   1_455 S
C288   H389    1.087   1_455 S
C289   C334    1.334   .     S
C289   H347    1.087   .     S
C290   H302    1.081   .     S
C291   H303    1.081   .     S
C291   C2      1.389   1_565 S
C292   N311    1.434   .     S
C292   C14     1.389   1_565 S
Cu295  O318    1.961   .     S
Cu295  O322    1.957   .     S
Cu295  O319    1.958   .     S
Cu295  O315    1.965   .     S
Cu295  N309    2.039   .     S
Cu295  Cu296   2.714   .     S
Cu296  O321    1.957   .     S
Cu296  N310    2.039   .     S
Cu296  O317    1.961   .     S
Cu296  O320    1.958   .     S
Cu296  O316    1.965   .     S
H297   C334    1.087   .     S
H298   N313    1.037   .     S
H299   N314    1.041   .     S
H300   N314    1.037   .     S
H301   C381    1.087   1_455 S
H304   N311    1.046   .     S
H305   N311    1.046   .     S
H306   N312    1.046   .     S
H307   N312    1.046   .     S
H308   N313    1.041   .     S
C323   C326    1.450   .     S
C323   O363    1.302   .     A
C323   O361    1.301   .     A
C324   C326    1.406   .     A
C324   N358    1.434   .     S
C325   C331    1.450   .     S
C325   C337    1.399   .     A
C325   C338    1.406   .     A
C326   C336    1.399   .     A
C327   N356    1.367   .     A
C327   Cl339   1.761   .     S
C327   C1157   1.418   1_554 S
C328   N355    1.367   .     A
C328   Cl340   1.761   .     S
C328   C744    1.418   .     S
C329   N359    1.432   .     S
C329   N355    1.386   .     A
C329   C741    1.418   .     S
C330   N356    1.386   .     A
C330   N360    1.432   .     S
C330   C1156   1.418   1_554 S
C331   O364    1.302   .     A
C331   O362    1.301   .     A
C332   O367    1.298   .     A
C332   C334    1.434   .     S
C332   O365    1.298   .     A
C333   C335    1.434   .     S
C333   O366    1.298   .     A
C333   O368    1.298   .     A
C335   C380    1.334   .     S
C335   H393    1.087   .     S
C336   H348    1.081   .     S
C337   H349    1.081   .     S
C337   C48     1.389   1_565 S
C338   N357    1.434   .     S
C338   C60     1.389   1_565 S
Cu341  O364    1.961   .     S
Cu341  O368    1.957   .     S
Cu341  O365    1.958   .     S
Cu341  O361    1.965   .     S
Cu341  N355    2.039   .     S
Cu341  Cu342   2.714   .     S
Cu342  O367    1.957   .     S
Cu342  N356    2.039   .     S
Cu342  O363    1.961   .     S
Cu342  O366    1.958   .     S
Cu342  O362    1.965   .     S
H343   C380    1.087   .     S
H344   N359    1.037   .     S
H345   N360    1.041   .     S
H346   N360    1.037   .     S
H350   N357    1.046   .     S
H351   N357    1.046   .     S
H352   N358    1.046   .     S
H353   N358    1.046   .     S
H354   N359    1.041   .     S
C369   C372    1.450   .     S
C369   O409    1.302   .     A
C369   O407    1.301   .     A
C370   C372    1.406   .     A
C370   N404    1.434   .     S
C371   C377    1.450   .     S
C371   C383    1.399   .     A
C371   C384    1.406   .     A
C372   C382    1.399   .     A
C373   N402    1.367   .     A
C373   Cl385   1.761   .     S
C373   C1203   1.418   1_554 S
C374   N401    1.367   .     A
C374   Cl386   1.761   .     S
C374   C790    1.418   .     S
C375   N405    1.432   .     S
C375   N401    1.386   .     A
C375   C787    1.418   .     S
C376   N402    1.386   .     A
C376   N406    1.432   .     S
C376   C1202   1.418   1_554 S
C377   O410    1.302   .     A
C377   O408    1.301   .     A
C378   O413    1.298   .     A
C378   C380    1.434   .     S
C378   O411    1.298   .     A
C379   C381    1.434   .     S
C379   O412    1.298   .     A
C379   O414    1.298   .     A
C381   C288    1.334   1_655 S
C381   H301    1.087   1_655 S
C382   H394    1.081   .     S
C383   H395    1.081   .     S
C383   C94     1.389   1_565 S
C384   N403    1.434   .     S
C384   C106    1.389   1_565 S
Cu387  O410    1.961   .     S
Cu387  O414    1.957   .     S
Cu387  O411    1.958   .     S
Cu387  O407    1.965   .     S
Cu387  N401    2.039   .     S
Cu387  Cu388   2.714   .     S
Cu388  O413    1.957   .     S
Cu388  N402    2.039   .     S
Cu388  O409    1.961   .     S
Cu388  O412    1.958   .     S
Cu388  O408    1.965   .     S
H389   C288    1.087   1_655 S
H390   N405    1.037   .     S
H391   N406    1.041   .     S
H392   N406    1.037   .     S
H396   N403    1.046   .     S
H397   N403    1.046   .     S
H398   N404    1.046   .     S
H399   N404    1.046   .     S
H400   N405    1.041   .     S
C415   C418    1.450   .     S
C415   O455    1.302   .     A
C415   O453    1.301   .     A
C416   C418    1.406   .     A
C416   N450    1.434   .     S
C416   C705    1.389   1_545 S
C417   C423    1.450   .     S
C417   C429    1.399   .     A
C417   C430    1.406   .     A
C418   C428    1.399   .     A
C419   N448    1.367   .     A
C419   Cl431   1.761   .     S
C420   N447    1.367   .     A
C420   Cl432   1.761   .     S
C420   C836    1.418   .     S
C421   N451    1.432   .     S
C421   N447    1.386   .     A
C421   C833    1.418   .     S
C422   N448    1.386   .     A
C422   N452    1.432   .     S
C423   O456    1.302   .     A
C423   O454    1.301   .     A
C424   O459    1.298   .     A
C424   C426    1.434   .     S
C424   O457    1.298   .     A
C425   C427    1.434   .     S
C425   O458    1.298   .     A
C425   O460    1.298   .     A
C426   C519    1.334   1_455 S
C426   H527    1.087   1_455 S
C427   C472    1.334   .     S
C427   H485    1.087   .     S
C428   H440    1.081   .     S
C428   C706    1.389   1_545 S
C429   H441    1.081   .     S
C429   C554    1.389   .     S
C430   N449    1.434   .     S
C430   C566    1.389   .     S
Cu433  O456    1.961   .     S
Cu433  O460    1.957   .     S
Cu433  O457    1.958   .     S
Cu433  O453    1.965   .     S
Cu433  N447    2.039   .     S
Cu433  Cu434   2.714   .     S
Cu434  O459    1.957   .     S
Cu434  N448    2.039   .     S
Cu434  O455    1.961   .     S
Cu434  O458    1.958   .     S
Cu434  O454    1.965   .     S
H435   C472    1.087   .     S
H436   N451    1.037   .     S
H437   N452    1.041   .     S
H438   N452    1.037   .     S
H439   C519    1.087   1_455 S
H442   N449    1.046   .     S
H443   N449    1.046   .     S
H444   N450    1.046   .     S
H445   N450    1.046   .     S
H446   N451    1.041   .     S
C461   C464    1.450   .     S
C461   O501    1.302   .     A
C461   O499    1.301   .     A
C462   C464    1.406   .     A
C462   N496    1.434   .     S
C462   C751    1.389   1_545 S
C463   C469    1.450   .     S
C463   C475    1.399   .     A
C463   C476    1.406   .     A
C464   C474    1.399   .     A
C465   N494    1.367   .     A
C465   Cl477   1.761   .     S
C466   N493    1.367   .     A
C466   Cl478   1.761   .     S
C466   C882    1.418   .     S
C467   N497    1.432   .     S
C467   N493    1.386   .     A
C467   C879    1.418   .     S
C468   N494    1.386   .     A
C468   N498    1.432   .     S
C469   O502    1.302   .     A
C469   O500    1.301   .     A
C470   O505    1.298   .     A
C470   C472    1.434   .     S
C470   O503    1.298   .     A
C471   C473    1.434   .     S
C471   O504    1.298   .     A
C471   O506    1.298   .     A
C473   C518    1.334   .     S
C473   H531    1.087   .     S
C474   H486    1.081   .     S
C474   C752    1.389   1_545 S
C475   H487    1.081   .     S
C475   C600    1.389   .     S
C476   N495    1.434   .     S
C476   C612    1.389   .     S
Cu479  O502    1.961   .     S
Cu479  O506    1.957   .     S
Cu479  O503    1.958   .     S
Cu479  O499    1.965   .     S
Cu479  N493    2.039   .     S
Cu479  Cu480   2.714   .     S
Cu480  O505    1.957   .     S
Cu480  N494    2.039   .     S
Cu480  O501    1.961   .     S
Cu480  O504    1.958   .     S
Cu480  O500    1.965   .     S
H481   C518    1.087   .     S
H482   N497    1.037   .     S
H483   N498    1.041   .     S
H484   N498    1.037   .     S
H488   N495    1.046   .     S
H489   N495    1.046   .     S
H490   N496    1.046   .     S
H491   N496    1.046   .     S
H492   N497    1.041   .     S
C507   C510    1.450   .     S
C507   O547    1.302   .     A
C507   O545    1.301   .     A
C508   C510    1.406   .     A
C508   N542    1.434   .     S
C508   C797    1.389   1_545 S
C509   C515    1.450   .     S
C509   C521    1.399   .     A
C509   C522    1.406   .     A
C510   C520    1.399   .     A
C511   N540    1.367   .     A
C511   Cl523   1.761   .     S
C512   N539    1.367   .     A
C512   Cl524   1.761   .     S
C512   C928    1.418   .     S
C513   N543    1.432   .     S
C513   N539    1.386   .     A
C513   C925    1.418   .     S
C514   N540    1.386   .     A
C514   N544    1.432   .     S
C515   O548    1.302   .     A
C515   O546    1.301   .     A
C516   O551    1.298   .     A
C516   C518    1.434   .     S
C516   O549    1.298   .     A
C517   C519    1.434   .     S
C517   O550    1.298   .     A
C517   O552    1.298   .     A
C519   C426    1.334   1_655 S
C519   H439    1.087   1_655 S
C520   H532    1.081   .     S
C520   C798    1.389   1_545 S
C521   H533    1.081   .     S
C521   C646    1.389   .     S
C522   N541    1.434   .     S
C522   C658    1.389   .     S
Cu525  O548    1.961   .     S
Cu525  O552    1.957   .     S
Cu525  O549    1.958   .     S
Cu525  O545    1.965   .     S
Cu525  N539    2.039   .     S
Cu525  Cu526   2.714   .     S
Cu526  O551    1.957   .     S
Cu526  N540    2.039   .     S
Cu526  O547    1.961   .     S
Cu526  O550    1.958   .     S
Cu526  O546    1.965   .     S
H527   C426    1.087   1_655 S
H528   N543    1.037   .     S
H529   N544    1.041   .     S
H530   N544    1.037   .     S
H534   N541    1.046   .     S
H535   N541    1.046   .     S
H536   N542    1.046   .     S
H537   N542    1.046   .     S
H538   N543    1.041   .     S
C553   C556    1.450   .     S
C553   O593    1.302   .     A
C553   O591    1.301   .     A
C554   C556    1.406   .     A
C554   N588    1.434   .     S
C555   C561    1.450   .     S
C555   C567    1.399   .     A
C555   C568    1.406   .     A
C556   C566    1.399   .     A
C557   N586    1.367   .     A
C557   Cl569   1.761   .     S
C558   N585    1.367   .     A
C558   Cl570   1.761   .     S
C558   C974    1.418   .     S
C559   N589    1.432   .     S
C559   N585    1.386   .     A
C559   C971    1.418   .     S
C560   N586    1.386   .     A
C560   N590    1.432   .     S
C561   O594    1.302   .     A
C561   O592    1.301   .     A
C562   O597    1.298   .     A
C562   C564    1.434   .     S
C562   O595    1.298   .     A
C563   C565    1.434   .     S
C563   O596    1.298   .     A
C563   O598    1.298   .     A
C564   C657    1.334   1_455 S
C564   H665    1.087   1_455 S
C565   C610    1.334   .     S
C565   H623    1.087   .     S
C566   H578    1.081   .     S
C567   H579    1.081   .     S
C567   C692    1.389   .     S
C568   N587    1.434   .     S
C568   C704    1.389   .     S
Cu571  O594    1.961   .     S
Cu571  O598    1.957   .     S
Cu571  O595    1.958   .     S
Cu571  O591    1.965   .     S
Cu571  N585    2.039   .     S
Cu571  Cu572   2.714   .     S
Cu572  O597    1.957   .     S
Cu572  N586    2.039   .     S
Cu572  O593    1.961   .     S
Cu572  O596    1.958   .     S
Cu572  O592    1.965   .     S
H573   C610    1.087   .     S
H574   N589    1.037   .     S
H575   N590    1.041   .     S
H576   N590    1.037   .     S
H577   C657    1.087   1_455 S
H580   N587    1.046   .     S
H581   N587    1.046   .     S
H582   N588    1.046   .     S
H583   N588    1.046   .     S
H584   N589    1.041   .     S
C599   C602    1.450   .     S
C599   O639    1.302   .     A
C599   O637    1.301   .     A
C600   C602    1.406   .     A
C600   N634    1.434   .     S
C601   C607    1.450   .     S
C601   C613    1.399   .     A
C601   C614    1.406   .     A
C602   C612    1.399   .     A
C603   N632    1.367   .     A
C603   Cl615   1.761   .     S
C604   N631    1.367   .     A
C604   Cl616   1.761   .     S
C604   C1020   1.418   .     S
C605   N635    1.432   .     S
C605   N631    1.386   .     A
C605   C1017   1.418   .     S
C606   N632    1.386   .     A
C606   N636    1.432   .     S
C607   O640    1.302   .     A
C607   O638    1.301   .     A
C608   O643    1.298   .     A
C608   C610    1.434   .     S
C608   O641    1.298   .     A
C609   C611    1.434   .     S
C609   O642    1.298   .     A
C609   O644    1.298   .     A
C611   C656    1.334   .     S
C611   H669    1.087   .     S
C612   H624    1.081   .     S
C613   H625    1.081   .     S
C613   C738    1.389   .     S
C614   N633    1.434   .     S
C614   C750    1.389   .     S
Cu617  O640    1.961   .     S
Cu617  O644    1.957   .     S
Cu617  O641    1.958   .     S
Cu617  O637    1.965   .     S
Cu617  N631    2.039   .     S
Cu617  Cu618   2.714   .     S
Cu618  O643    1.957   .     S
Cu618  N632    2.039   .     S
Cu618  O639    1.961   .     S
Cu618  O642    1.958   .     S
Cu618  O638    1.965   .     S
H619   C656    1.087   .     S
H620   N635    1.037   .     S
H621   N636    1.041   .     S
H622   N636    1.037   .     S
H626   N633    1.046   .     S
H627   N633    1.046   .     S
H628   N634    1.046   .     S
H629   N634    1.046   .     S
H630   N635    1.041   .     S
C645   C648    1.450   .     S
C645   O685    1.302   .     A
C645   O683    1.301   .     A
C646   C648    1.406   .     A
C646   N680    1.434   .     S
C647   C653    1.450   .     S
C647   C659    1.399   .     A
C647   C660    1.406   .     A
C648   C658    1.399   .     A
C649   N678    1.367   .     A
C649   Cl661   1.761   .     S
C650   N677    1.367   .     A
C650   Cl662   1.761   .     S
C650   C1066   1.418   .     S
C651   N681    1.432   .     S
C651   N677    1.386   .     A
C651   C1063   1.418   .     S
C652   N678    1.386   .     A
C652   N682    1.432   .     S
C653   O686    1.302   .     A
C653   O684    1.301   .     A
C654   O689    1.298   .     A
C654   C656    1.434   .     S
C654   O687    1.298   .     A
C655   C657    1.434   .     S
C655   O688    1.298   .     A
C655   O690    1.298   .     A
C657   C564    1.334   1_655 S
C657   H577    1.087   1_655 S
C658   H670    1.081   .     S
C659   H671    1.081   .     S
C659   C784    1.389   .     S
C660   N679    1.434   .     S
C660   C796    1.389   .     S
Cu663  O686    1.961   .     S
Cu663  O690    1.957   .     S
Cu663  O687    1.958   .     S
Cu663  O683    1.965   .     S
Cu663  N677    2.039   .     S
Cu663  Cu664   2.714   .     S
Cu664  O689    1.957   .     S
Cu664  N678    2.039   .     S
Cu664  O685    1.961   .     S
Cu664  O688    1.958   .     S
Cu664  O684    1.965   .     S
H665   C564    1.087   1_655 S
H666   N681    1.037   .     S
H667   N682    1.041   .     S
H668   N682    1.037   .     S
H672   N679    1.046   .     S
H673   N679    1.046   .     S
H674   N680    1.046   .     S
H675   N680    1.046   .     S
H676   N681    1.041   .     S
C691   C694    1.450   .     S
C691   O731    1.302   .     A
C691   O729    1.301   .     A
C692   C694    1.406   .     A
C692   N726    1.434   .     S
C693   C699    1.450   .     S
C693   C705    1.399   .     A
C693   C706    1.406   .     A
C694   C704    1.399   .     A
C695   N724    1.367   .     A
C695   Cl707   1.761   .     S
C696   N723    1.367   .     A
C696   Cl708   1.761   .     S
C696   C1112   1.418   .     S
C697   N727    1.432   .     S
C697   N723    1.386   .     A
C697   C1109   1.418   .     S
C698   N724    1.386   .     A
C698   N728    1.432   .     S
C699   O732    1.302   .     A
C699   O730    1.301   .     A
C700   O735    1.298   .     A
C700   C702    1.434   .     S
C700   O733    1.298   .     A
C701   C703    1.434   .     S
C701   O734    1.298   .     A
C701   O736    1.298   .     A
C702   C795    1.334   1_455 S
C702   H803    1.087   1_455 S
C703   C748    1.334   .     S
C703   H761    1.087   .     S
C704   H716    1.081   .     S
C705   H717    1.081   .     S
C705   C416    1.389   1_565 S
C706   N725    1.434   .     S
C706   C428    1.389   1_565 S
Cu709  O732    1.961   .     S
Cu709  O736    1.957   .     S
Cu709  O733    1.958   .     S
Cu709  O729    1.965   .     S
Cu709  N723    2.039   .     S
Cu709  Cu710   2.714   .     S
Cu710  O735    1.957   .     S
Cu710  N724    2.039   .     S
Cu710  O731    1.961   .     S
Cu710  O734    1.958   .     S
Cu710  O730    1.965   .     S
H711   C748    1.087   .     S
H712   N727    1.037   .     S
H713   N728    1.041   .     S
H714   N728    1.037   .     S
H715   C795    1.087   1_455 S
H718   N725    1.046   .     S
H719   N725    1.046   .     S
H720   N726    1.046   .     S
H721   N726    1.046   .     S
H722   N727    1.041   .     S
C737   C740    1.450   .     S
C737   O777    1.302   .     A
C737   O775    1.301   .     A
C738   C740    1.406   .     A
C738   N772    1.434   .     S
C739   C745    1.450   .     S
C739   C751    1.399   .     A
C739   C752    1.406   .     A
C740   C750    1.399   .     A
C741   N770    1.367   .     A
C741   Cl753   1.761   .     S
C742   N769    1.367   .     A
C742   Cl754   1.761   .     S
C742   C1158   1.418   .     S
C743   N773    1.432   .     S
C743   N769    1.386   .     A
C743   C1155   1.418   .     S
C744   N770    1.386   .     A
C744   N774    1.432   .     S
C745   O778    1.302   .     A
C745   O776    1.301   .     A
C746   O781    1.298   .     A
C746   C748    1.434   .     S
C746   O779    1.298   .     A
C747   C749    1.434   .     S
C747   O780    1.298   .     A
C747   O782    1.298   .     A
C749   C794    1.334   .     S
C749   H807    1.087   .     S
C750   H762    1.081   .     S
C751   H763    1.081   .     S
C751   C462    1.389   1_565 S
C752   N771    1.434   .     S
C752   C474    1.389   1_565 S
Cu755  O778    1.961   .     S
Cu755  O782    1.957   .     S
Cu755  O779    1.958   .     S
Cu755  O775    1.965   .     S
Cu755  N769    2.039   .     S
Cu755  Cu756   2.714   .     S
Cu756  O781    1.957   .     S
Cu756  N770    2.039   .     S
Cu756  O777    1.961   .     S
Cu756  O780    1.958   .     S
Cu756  O776    1.965   .     S
H757   C794    1.087   .     S
H758   N773    1.037   .     S
H759   N774    1.041   .     S
H760   N774    1.037   .     S
H764   N771    1.046   .     S
H765   N771    1.046   .     S
H766   N772    1.046   .     S
H767   N772    1.046   .     S
H768   N773    1.041   .     S
C783   C786    1.450   .     S
C783   O823    1.302   .     A
C783   O821    1.301   .     A
C784   C786    1.406   .     A
C784   N818    1.434   .     S
C785   C791    1.450   .     S
C785   C797    1.399   .     A
C785   C798    1.406   .     A
C786   C796    1.399   .     A
C787   N816    1.367   .     A
C787   Cl799   1.761   .     S
C788   N815    1.367   .     A
C788   Cl800   1.761   .     S
C788   C1204   1.418   .     S
C789   N819    1.432   .     S
C789   N815    1.386   .     A
C789   C1201   1.418   .     S
C790   N816    1.386   .     A
C790   N820    1.432   .     S
C791   O824    1.302   .     A
C791   O822    1.301   .     A
C792   O827    1.298   .     A
C792   C794    1.434   .     S
C792   O825    1.298   .     A
C793   C795    1.434   .     S
C793   O826    1.298   .     A
C793   O828    1.298   .     A
C795   C702    1.334   1_655 S
C795   H715    1.087   1_655 S
C796   H808    1.081   .     S
C797   H809    1.081   .     S
C797   C508    1.389   1_565 S
C798   N817    1.434   .     S
C798   C520    1.389   1_565 S
Cu801  O824    1.961   .     S
Cu801  O828    1.957   .     S
Cu801  O825    1.958   .     S
Cu801  O821    1.965   .     S
Cu801  N815    2.039   .     S
Cu801  Cu802   2.714   .     S
Cu802  O827    1.957   .     S
Cu802  N816    2.039   .     S
Cu802  O823    1.961   .     S
Cu802  O826    1.958   .     S
Cu802  O822    1.965   .     S
H803   C702    1.087   1_655 S
H804   N819    1.037   .     S
H805   N820    1.041   .     S
H806   N820    1.037   .     S
H810   N817    1.046   .     S
H811   N817    1.046   .     S
H812   N818    1.046   .     S
H813   N818    1.046   .     S
H814   N819    1.041   .     S
C829   C832    1.450   .     S
C829   O869    1.302   .     A
C829   O867    1.301   .     A
C830   C832    1.406   .     A
C830   N864    1.434   .     S
C830   C1119   1.389   1_545 S
C831   C837    1.450   .     S
C831   C843    1.399   .     A
C831   C844    1.406   .     A
C832   C842    1.399   .     A
C833   N862    1.367   .     A
C833   Cl845   1.761   .     S
C834   N861    1.367   .     A
C834   Cl846   1.761   .     S
C834   C8      1.418   1_556 S
C835   N865    1.432   .     S
C835   N861    1.386   .     A
C835   C5      1.418   1_556 S
C836   N862    1.386   .     A
C836   N866    1.432   .     S
C837   O870    1.302   .     A
C837   O868    1.301   .     A
C838   O873    1.298   .     A
C838   C840    1.434   .     S
C838   O871    1.298   .     A
C839   C841    1.434   .     S
C839   O872    1.298   .     A
C839   O874    1.298   .     A
C840   C933    1.334   1_455 S
C840   H941    1.087   1_455 S
C841   C886    1.334   .     S
C841   H899    1.087   .     S
C842   H854    1.081   .     S
C842   C1120   1.389   1_545 S
C843   H855    1.081   .     S
C843   C968    1.389   .     S
C844   N863    1.434   .     S
C844   C980    1.389   .     S
Cu847  O870    1.961   .     S
Cu847  O874    1.957   .     S
Cu847  O871    1.958   .     S
Cu847  O867    1.965   .     S
Cu847  N861    2.039   .     S
Cu847  Cu848   2.714   .     S
Cu848  O873    1.957   .     S
Cu848  N862    2.039   .     S
Cu848  O869    1.961   .     S
Cu848  O872    1.958   .     S
Cu848  O868    1.965   .     S
H849   C886    1.087   .     S
H850   N865    1.037   .     S
H851   N866    1.041   .     S
H852   N866    1.037   .     S
H853   C933    1.087   1_455 S
H856   N863    1.046   .     S
H857   N863    1.046   .     S
H858   N864    1.046   .     S
H859   N864    1.046   .     S
H860   N865    1.041   .     S
C875   C878    1.450   .     S
C875   O915    1.302   .     A
C875   O913    1.301   .     A
C876   C878    1.406   .     A
C876   N910    1.434   .     S
C876   C1165   1.389   1_545 S
C877   C883    1.450   .     S
C877   C889    1.399   .     A
C877   C890    1.406   .     A
C878   C888    1.399   .     A
C879   N908    1.367   .     A
C879   Cl891   1.761   .     S
C880   N907    1.367   .     A
C880   Cl892   1.761   .     S
C880   C54     1.418   1_556 S
C881   N911    1.432   .     S
C881   N907    1.386   .     A
C881   C51     1.418   1_556 S
C882   N908    1.386   .     A
C882   N912    1.432   .     S
C883   O916    1.302   .     A
C883   O914    1.301   .     A
C884   O919    1.298   .     A
C884   C886    1.434   .     S
C884   O917    1.298   .     A
C885   C887    1.434   .     S
C885   O918    1.298   .     A
C885   O920    1.298   .     A
C887   C932    1.334   .     S
C887   H945    1.087   .     S
C888   H900    1.081   .     S
C888   C1166   1.389   1_545 S
C889   H901    1.081   .     S
C889   C1014   1.389   .     S
C890   N909    1.434   .     S
C890   C1026   1.389   .     S
Cu893  O916    1.961   .     S
Cu893  O920    1.957   .     S
Cu893  O917    1.958   .     S
Cu893  O913    1.965   .     S
Cu893  N907    2.039   .     S
Cu893  Cu894   2.714   .     S
Cu894  O919    1.957   .     S
Cu894  N908    2.039   .     S
Cu894  O915    1.961   .     S
Cu894  O918    1.958   .     S
Cu894  O914    1.965   .     S
H895   C932    1.087   .     S
H896   N911    1.037   .     S
H897   N912    1.041   .     S
H898   N912    1.037   .     S
H902   N909    1.046   .     S
H903   N909    1.046   .     S
H904   N910    1.046   .     S
H905   N910    1.046   .     S
H906   N911    1.041   .     S
C921   C924    1.450   .     S
C921   O961    1.302   .     A
C921   O959    1.301   .     A
C922   C924    1.406   .     A
C922   N956    1.434   .     S
C922   C1211   1.389   1_545 S
C923   C929    1.450   .     S
C923   C935    1.399   .     A
C923   C936    1.406   .     A
C924   C934    1.399   .     A
C925   N954    1.367   .     A
C925   Cl937   1.761   .     S
C926   N953    1.367   .     A
C926   Cl938   1.761   .     S
C926   C100    1.418   1_556 S
C927   N957    1.432   .     S
C927   N953    1.386   .     A
C927   C97     1.418   1_556 S
C928   N954    1.386   .     A
C928   N958    1.432   .     S
C929   O962    1.302   .     A
C929   O960    1.301   .     A
C930   O965    1.298   .     A
C930   C932    1.434   .     S
C930   O963    1.298   .     A
C931   C933    1.434   .     S
C931   O964    1.298   .     A
C931   O966    1.298   .     A
C933   C840    1.334   1_655 S
C933   H853    1.087   1_655 S
C934   H946    1.081   .     S
C934   C1212   1.389   1_545 S
C935   H947    1.081   .     S
C935   C1060   1.389   .     S
C936   N955    1.434   .     S
C936   C1072   1.389   .     S
Cu939  O962    1.961   .     S
Cu939  O966    1.957   .     S
Cu939  O963    1.958   .     S
Cu939  O959    1.965   .     S
Cu939  N953    2.039   .     S
Cu939  Cu940   2.714   .     S
Cu940  O965    1.957   .     S
Cu940  N954    2.039   .     S
Cu940  O961    1.961   .     S
Cu940  O964    1.958   .     S
Cu940  O960    1.965   .     S
H941   C840    1.087   1_655 S
H942   N957    1.037   .     S
H943   N958    1.041   .     S
H944   N958    1.037   .     S
H948   N955    1.046   .     S
H949   N955    1.046   .     S
H950   N956    1.046   .     S
H951   N956    1.046   .     S
H952   N957    1.041   .     S
C967   C970    1.450   .     S
C967   O1007   1.302   .     A
C967   O1005   1.301   .     A
C968   C970    1.406   .     A
C968   N1002   1.434   .     S
C969   C975    1.450   .     S
C969   C981    1.399   .     A
C969   C982    1.406   .     A
C970   C980    1.399   .     A
C971   N1000   1.367   .     A
C971   Cl983   1.761   .     S
C972   N999    1.367   .     A
C972   Cl984   1.761   .     S
C972   C146    1.418   1_556 S
C973   N1003   1.432   .     S
C973   N999    1.386   .     A
C973   C143    1.418   1_556 S
C974   N1000   1.386   .     A
C974   N1004   1.432   .     S
C975   O1008   1.302   .     A
C975   O1006   1.301   .     A
C976   O1011   1.298   .     A
C976   C978    1.434   .     S
C976   O1009   1.298   .     A
C977   C979    1.434   .     S
C977   O1010   1.298   .     A
C977   O1012   1.298   .     A
C978   C1071   1.334   1_455 S
C978   H1079   1.087   1_455 S
C979   C1024   1.334   .     S
C979   H1037   1.087   .     S
C980   H992    1.081   .     S
C981   H993    1.081   .     S
C981   C1106   1.389   .     S
C982   N1001   1.434   .     S
C982   C1118   1.389   .     S
Cu985  O1008   1.961   .     S
Cu985  O1012   1.957   .     S
Cu985  O1009   1.958   .     S
Cu985  O1005   1.965   .     S
Cu985  N999    2.039   .     S
Cu985  Cu986   2.714   .     S
Cu986  O1011   1.957   .     S
Cu986  N1000   2.039   .     S
Cu986  O1007   1.961   .     S
Cu986  O1010   1.958   .     S
Cu986  O1006   1.965   .     S
H987   C1024   1.087   .     S
H988   N1003   1.037   .     S
H989   N1004   1.041   .     S
H990   N1004   1.037   .     S
H991   C1071   1.087   1_455 S
H994   N1001   1.046   .     S
H995   N1001   1.046   .     S
H996   N1002   1.046   .     S
H997   N1002   1.046   .     S
H998   N1003   1.041   .     S
C1013  C1016   1.450   .     S
C1013  O1053   1.302   .     A
C1013  O1051   1.301   .     A
C1014  C1016   1.406   .     A
C1014  N1048   1.434   .     S
C1015  C1021   1.450   .     S
C1015  C1027   1.399   .     A
C1015  C1028   1.406   .     A
C1016  C1026   1.399   .     A
C1017  N1046   1.367   .     A
C1017  Cl1029  1.761   .     S
C1018  N1045   1.367   .     A
C1018  Cl1030  1.761   .     S
C1018  C192    1.418   1_556 S
C1019  N1049   1.432   .     S
C1019  N1045   1.386   .     A
C1019  C189    1.418   1_556 S
C1020  N1046   1.386   .     A
C1020  N1050   1.432   .     S
C1021  O1054   1.302   .     A
C1021  O1052   1.301   .     A
C1022  O1057   1.298   .     A
C1022  C1024   1.434   .     S
C1022  O1055   1.298   .     A
C1023  C1025   1.434   .     S
C1023  O1056   1.298   .     A
C1023  O1058   1.298   .     A
C1025  C1070   1.334   .     S
C1025  H1083   1.087   .     S
C1026  H1038   1.081   .     S
C1027  H1039   1.081   .     S
C1027  C1152   1.389   .     S
C1028  N1047   1.434   .     S
C1028  C1164   1.389   .     S
Cu1031 O1054   1.961   .     S
Cu1031 O1058   1.957   .     S
Cu1031 O1055   1.958   .     S
Cu1031 O1051   1.965   .     S
Cu1031 N1045   2.039   .     S
Cu1031 Cu1032  2.714   .     S
Cu1032 O1057   1.957   .     S
Cu1032 N1046   2.039   .     S
Cu1032 O1053   1.961   .     S
Cu1032 O1056   1.958   .     S
Cu1032 O1052   1.965   .     S
H1033  C1070   1.087   .     S
H1034  N1049   1.037   .     S
H1035  N1050   1.041   .     S
H1036  N1050   1.037   .     S
H1040  N1047   1.046   .     S
H1041  N1047   1.046   .     S
H1042  N1048   1.046   .     S
H1043  N1048   1.046   .     S
H1044  N1049   1.041   .     S
C1059  C1062   1.450   .     S
C1059  O1099   1.302   .     A
C1059  O1097   1.301   .     A
C1060  C1062   1.406   .     A
C1060  N1094   1.434   .     S
C1061  C1067   1.450   .     S
C1061  C1073   1.399   .     A
C1061  C1074   1.406   .     A
C1062  C1072   1.399   .     A
C1063  N1092   1.367   .     A
C1063  Cl1075  1.761   .     S
C1064  N1091   1.367   .     A
C1064  Cl1076  1.761   .     S
C1064  C238    1.418   1_556 S
C1065  N1095   1.432   .     S
C1065  N1091   1.386   .     A
C1065  C235    1.418   1_556 S
C1066  N1092   1.386   .     A
C1066  N1096   1.432   .     S
C1067  O1100   1.302   .     A
C1067  O1098   1.301   .     A
C1068  O1103   1.298   .     A
C1068  C1070   1.434   .     S
C1068  O1101   1.298   .     A
C1069  C1071   1.434   .     S
C1069  O1102   1.298   .     A
C1069  O1104   1.298   .     A
C1071  C978    1.334   1_655 S
C1071  H991    1.087   1_655 S
C1072  H1084   1.081   .     S
C1073  H1085   1.081   .     S
C1073  C1198   1.389   .     S
C1074  N1093   1.434   .     S
C1074  C1210   1.389   .     S
Cu1077 O1100   1.961   .     S
Cu1077 O1104   1.957   .     S
Cu1077 O1101   1.958   .     S
Cu1077 O1097   1.965   .     S
Cu1077 N1091   2.039   .     S
Cu1077 Cu1078  2.714   .     S
Cu1078 O1103   1.957   .     S
Cu1078 N1092   2.039   .     S
Cu1078 O1099   1.961   .     S
Cu1078 O1102   1.958   .     S
Cu1078 O1098   1.965   .     S
H1079  C978    1.087   1_655 S
H1080  N1095   1.037   .     S
H1081  N1096   1.041   .     S
H1082  N1096   1.037   .     S
H1086  N1093   1.046   .     S
H1087  N1093   1.046   .     S
H1088  N1094   1.046   .     S
H1089  N1094   1.046   .     S
H1090  N1095   1.041   .     S
C1105  C1108   1.450   .     S
C1105  O1145   1.302   .     A
C1105  O1143   1.301   .     A
C1106  C1108   1.406   .     A
C1106  N1140   1.434   .     S
C1107  C1113   1.450   .     S
C1107  C1119   1.399   .     A
C1107  C1120   1.406   .     A
C1108  C1118   1.399   .     A
C1109  N1138   1.367   .     A
C1109  Cl1121  1.761   .     S
C1110  N1137   1.367   .     A
C1110  Cl1122  1.761   .     S
C1110  C284    1.418   1_556 S
C1111  N1141   1.432   .     S
C1111  N1137   1.386   .     A
C1111  C281    1.418   1_556 S
C1112  N1138   1.386   .     A
C1112  N1142   1.432   .     S
C1113  O1146   1.302   .     A
C1113  O1144   1.301   .     A
C1114  O1149   1.298   .     A
C1114  C1116   1.434   .     S
C1114  O1147   1.298   .     A
C1115  C1117   1.434   .     S
C1115  O1148   1.298   .     A
C1115  O1150   1.298   .     A
C1116  C1209   1.334   1_455 S
C1116  H1217   1.087   1_455 S
C1117  C1162   1.334   .     S
C1117  H1175   1.087   .     S
C1118  H1130   1.081   .     S
C1119  H1131   1.081   .     S
C1119  C830    1.389   1_565 S
C1120  N1139   1.434   .     S
C1120  C842    1.389   1_565 S
Cu1123 O1146   1.961   .     S
Cu1123 O1150   1.957   .     S
Cu1123 O1147   1.958   .     S
Cu1123 O1143   1.965   .     S
Cu1123 N1137   2.039   .     S
Cu1123 Cu1124  2.714   .     S
Cu1124 O1149   1.957   .     S
Cu1124 N1138   2.039   .     S
Cu1124 O1145   1.961   .     S
Cu1124 O1148   1.958   .     S
Cu1124 O1144   1.965   .     S
H1125  C1162   1.087   .     S
H1126  N1141   1.037   .     S
H1127  N1142   1.041   .     S
H1128  N1142   1.037   .     S
H1129  C1209   1.087   1_455 S
H1132  N1139   1.046   .     S
H1133  N1139   1.046   .     S
H1134  N1140   1.046   .     S
H1135  N1140   1.046   .     S
H1136  N1141   1.041   .     S
C1151  C1154   1.450   .     S
C1151  O1191   1.302   .     A
C1151  O1189   1.301   .     A
C1152  C1154   1.406   .     A
C1152  N1186   1.434   .     S
C1153  C1159   1.450   .     S
C1153  C1165   1.399   .     A
C1153  C1166   1.406   .     A
C1154  C1164   1.399   .     A
C1155  N1184   1.367   .     A
C1155  Cl1167  1.761   .     S
C1156  N1183   1.367   .     A
C1156  Cl1168  1.761   .     S
C1156  C330    1.418   1_556 S
C1157  N1187   1.432   .     S
C1157  N1183   1.386   .     A
C1157  C327    1.418   1_556 S
C1158  N1184   1.386   .     A
C1158  N1188   1.432   .     S
C1159  O1192   1.302   .     A
C1159  O1190   1.301   .     A
C1160  O1195   1.298   .     A
C1160  C1162   1.434   .     S
C1160  O1193   1.298   .     A
C1161  C1163   1.434   .     S
C1161  O1194   1.298   .     A
C1161  O1196   1.298   .     A
C1163  C1208   1.334   .     S
C1163  H1221   1.087   .     S
C1164  H1176   1.081   .     S
C1165  H1177   1.081   .     S
C1165  C876    1.389   1_565 S
C1166  N1185   1.434   .     S
C1166  C888    1.389   1_565 S
Cu1169 O1192   1.961   .     S
Cu1169 O1196   1.957   .     S
Cu1169 O1193   1.958   .     S
Cu1169 O1189   1.965   .     S
Cu1169 N1183   2.039   .     S
Cu1169 Cu1170  2.714   .     S
Cu1170 O1195   1.957   .     S
Cu1170 N1184   2.039   .     S
Cu1170 O1191   1.961   .     S
Cu1170 O1194   1.958   .     S
Cu1170 O1190   1.965   .     S
H1171  C1208   1.087   .     S
H1172  N1187   1.037   .     S
H1173  N1188   1.041   .     S
H1174  N1188   1.037   .     S
H1178  N1185   1.046   .     S
H1179  N1185   1.046   .     S
H1180  N1186   1.046   .     S
H1181  N1186   1.046   .     S
H1182  N1187   1.041   .     S
C1197  C1200   1.450   .     S
C1197  O1237   1.302   .     A
C1197  O1235   1.301   .     A
C1198  C1200   1.406   .     A
C1198  N1232   1.434   .     S
C1199  C1205   1.450   .     S
C1199  C1211   1.399   .     A
C1199  C1212   1.406   .     A
C1200  C1210   1.399   .     A
C1201  N1230   1.367   .     A
C1201  Cl1213  1.761   .     S
C1202  N1229   1.367   .     A
C1202  Cl1214  1.761   .     S
C1202  C376    1.418   1_556 S
C1203  N1233   1.432   .     S
C1203  N1229   1.386   .     A
C1203  C373    1.418   1_556 S
C1204  N1230   1.386   .     A
C1204  N1234   1.432   .     S
C1205  O1238   1.302   .     A
C1205  O1236   1.301   .     A
C1206  O1241   1.298   .     A
C1206  C1208   1.434   .     S
C1206  O1239   1.298   .     A
C1207  C1209   1.434   .     S
C1207  O1240   1.298   .     A
C1207  O1242   1.298   .     A
C1209  C1116   1.334   1_655 S
C1209  H1129   1.087   1_655 S
C1210  H1222   1.081   .     S
C1211  H1223   1.081   .     S
C1211  C922    1.389   1_565 S
C1212  N1231   1.434   .     S
C1212  C934    1.389   1_565 S
Cu1215 O1238   1.961   .     S
Cu1215 O1242   1.957   .     S
Cu1215 O1239   1.958   .     S
Cu1215 O1235   1.965   .     S
Cu1215 N1229   2.039   .     S
Cu1215 Cu1216  2.714   .     S
Cu1216 O1241   1.957   .     S
Cu1216 N1230   2.039   .     S
Cu1216 O1237   1.961   .     S
Cu1216 O1240   1.958   .     S
Cu1216 O1236   1.965   .     S
H1217  C1116   1.087   1_655 S
H1218  N1233   1.037   .     S
H1219  N1234   1.041   .     S
H1220  N1234   1.037   .     S
H1224  N1231   1.046   .     S
H1225  N1231   1.046   .     S
H1226  N1232   1.046   .     S
H1227  N1232   1.046   .     S
H1228  N1233   1.041   .     S
