data_str_m3_o1_o16_pcu_sym.215
_audit_creation_date              2020-01-03
_audit_creation_method            'Materials Studio'
_symmetry_space_group_name_H-M    'P1'
_symmetry_Int_Tables_number       1
_symmetry_cell_setting            triclinic
loop_
_symmetry_equiv_pos_as_xyz
  x,y,z
_cell_length_a                    29.7376
_cell_length_b                    31.8377
_cell_length_c                    26.1799
_cell_angle_alpha                 90.6686
_cell_angle_beta                  69.3670
_cell_angle_gamma                 89.9815
loop_
_atom_site_label
_atom_site_type_symbol
_atom_site_fract_x
_atom_site_fract_y
_atom_site_fract_z
_atom_site_U_iso_or_equiv
_atom_site_adp_type
_atom_site_occupancy
C1     C     0.16629   0.24656   0.25155   0.00000  Uiso   1.00
C2     C     0.14522   0.15790   0.49189   0.00000  Uiso   1.00
C3     C     0.15404   0.14602   0.43750   0.00000  Uiso   1.00
C4     C     0.18259   0.15281   0.01301   0.00000  Uiso   1.00
C5     C     0.22510   0.12970   0.48335   0.00000  Uiso   1.00
C6     C     0.23068   0.11351   0.43093   0.00000  Uiso   1.00
C7     C     0.19442   0.12067   0.40976   0.00000  Uiso   1.00
C8     C     0.17872   0.17090   0.06306   0.00000  Uiso   1.00
C9     C     0.25123   0.13621   0.06151   0.00000  Uiso   1.00
C10    C     0.12272   0.16072   0.41163   0.00000  Uiso   1.00
C11    C     0.20146   0.31108   0.21100   0.00000  Uiso   1.00
C12    C     0.13991   0.16439   0.35220   0.00000  Uiso   1.00
C13    C     0.20194   0.02080   0.20990   0.00000  Uiso   1.00
C14    C     0.16649   0.04281   0.25065   0.00000  Uiso   1.00
C15    C     0.13157   0.02304   0.29366   0.00000  Uiso   1.00
C16    C     0.13194   0.31306   0.29659   0.00000  Uiso   1.00
C17    C     0.16623   0.29085   0.25350   0.00000  Uiso   1.00
C18    C     0.32148   0.14472   0.21126   0.00000  Uiso   1.00
C19    C     0.03604   0.14522   0.21080   0.00000  Uiso   1.00
C20    C     0.01124   0.18762   0.29006   0.00000  Uiso   1.00
C21    C     0.29716   0.18961   0.28809   0.00000  Uiso   1.00
C22    C     0.16680   0.08683   0.24956   0.00000  Uiso   1.00
C23    C     0.19356   0.16636   0.14774   0.00000  Uiso   1.00
C24    C     0.25920   0.12185   0.00854   0.00000  Uiso   1.00
C25    C     0.21035   0.16014   0.08897   0.00000  Uiso   1.00
C26    C     0.07789   0.17773   0.44284   0.00000  Uiso   1.00
C27    C     0.06508   0.18293   0.49910   0.00000  Uiso   1.00
C28    C     0.09904   0.17391   0.02336   0.00000  Uiso   1.00
H29    H     0.27567   0.12693   0.08180   0.00000  Uiso   1.00
H30    H     0.22907   0.03691   0.17705   0.00000  Uiso   1.00
H31    H     0.10575   0.04159   0.32575   0.00000  Uiso   1.00
H32    H     0.31319   0.12702   0.18020   0.00000  Uiso   1.00
H33    H     0.06369   0.12796   0.17929   0.00000  Uiso   1.00
H34    H     0.29057   0.10247   0.48956   0.00000  Uiso   1.00
H35    H     0.14978   0.19228   0.08422   0.00000  Uiso   1.00
H36    H     0.05346   0.18809   0.42323   0.00000  Uiso   1.00
H37    H     0.08816   0.17840   0.06696   0.00000  Uiso   1.00
H38    H     0.19834   0.10646   0.37062   0.00000  Uiso   1.00
H39    H     0.22811   0.29348   0.17861   0.00000  Uiso   1.00
N40    N     0.04760   0.16668   0.25002   0.00000  Uiso   1.00
N41    N     0.28573   0.16665   0.25000   0.00000  Uiso   1.00
O42    O     0.12846   0.22775   0.25001   0.00000  Uiso   1.00
O43    O     0.20490   0.22774   0.25001   0.00000  Uiso   1.00
O44    O     0.10947   0.16666   0.32681   0.00000  Uiso   1.00
O45    O     0.18591   0.16665   0.32681   0.00000  Uiso   1.00
O46    O     0.12843   0.10559   0.25000   0.00000  Uiso   1.00
O47    O     0.20488   0.10558   0.24999   0.00000  Uiso   1.00
O48    O     0.14742   0.16668   0.17319   0.00000  Uiso   1.00
O49    O     0.22387   0.16667   0.17319   0.00000  Uiso   1.00
Zn50   Zn    0.11562   0.16667   0.25000   0.00000  Uiso   1.00
Zn51   Zn    0.21771   0.16666   0.25000   0.00000  Uiso   1.00
C52    C     0.09947   0.29201   0.34609   0.00000  Uiso   1.00
H53    H     0.10732   0.26036   0.35543   0.00000  Uiso   1.00
O54    O     0.06418   0.31006   0.37765   0.00000  Uiso   1.00
C55    C     0.02076   0.20783   0.33601   0.00000  Uiso   1.00
H56    H     0.05498   0.22181   0.32973   0.00000  Uiso   1.00
O57    O     0.32322   0.20947   0.38150   0.00000  Uiso   1.00
O58    O     0.26166   0.21336   0.32596   0.00000  Uiso   1.00
C59    C     0.26924   0.25639   0.31270   0.00000  Uiso   1.00
H60    H     0.27094   0.26227   0.27026   0.00000  Uiso   1.00
H61    H     0.30312   0.26804   0.31657   0.00000  Uiso   1.00
C62    C     0.22807   0.28195   0.35202   0.00000  Uiso   1.00
H63    H     0.22873   0.27976   0.39405   0.00000  Uiso   1.00
H64    H     0.23148   0.31541   0.33972   0.00000  Uiso   1.00
H65    H     0.19324   0.26970   0.35182   0.00000  Uiso   1.00
C66    C     0.27394   0.09043   0.39515   0.00000  Uiso   1.00
H67    H     0.27017   0.06639   0.36719   0.00000  Uiso   1.00
O68    O     0.31423   0.09978   0.39348   0.00000  Uiso   1.00
C69    C     0.01693   0.19979   0.03148   0.00000  Uiso   1.00
H70    H     0.32506   0.20752   0.01140   0.00000  Uiso   1.00
O71    O     0.00470   0.20511   0.08080   0.00000  Uiso   1.00
C72    C     0.49962   0.24656   0.25155   0.00000  Uiso   1.00
C73    C     0.47855   0.15790   0.49189   0.00000  Uiso   1.00
C74    C     0.48737   0.14602   0.43750   0.00000  Uiso   1.00
C75    C     0.51593   0.15281   0.01301   0.00000  Uiso   1.00
C76    C     0.55843   0.12970   0.48335   0.00000  Uiso   1.00
C77    C     0.56401   0.11351   0.43093   0.00000  Uiso   1.00
C78    C     0.52775   0.12067   0.40976   0.00000  Uiso   1.00
C79    C     0.51206   0.17090   0.06306   0.00000  Uiso   1.00
C80    C     0.58456   0.13621   0.06151   0.00000  Uiso   1.00
C81    C     0.45605   0.16072   0.41163   0.00000  Uiso   1.00
C82    C     0.53480   0.31108   0.21100   0.00000  Uiso   1.00
C83    C     0.47324   0.16439   0.35220   0.00000  Uiso   1.00
C84    C     0.53528   0.02080   0.20990   0.00000  Uiso   1.00
C85    C     0.49982   0.04281   0.25065   0.00000  Uiso   1.00
C86    C     0.46490   0.02304   0.29366   0.00000  Uiso   1.00
C87    C     0.46527   0.31306   0.29659   0.00000  Uiso   1.00
C88    C     0.49956   0.29085   0.25350   0.00000  Uiso   1.00
C89    C     0.65482   0.14472   0.21126   0.00000  Uiso   1.00
C90    C     0.36937   0.14522   0.21080   0.00000  Uiso   1.00
C91    C     0.34457   0.18762   0.29006   0.00000  Uiso   1.00
C92    C     0.63049   0.18961   0.28809   0.00000  Uiso   1.00
C93    C     0.50013   0.08683   0.24956   0.00000  Uiso   1.00
C94    C     0.52690   0.16636   0.14774   0.00000  Uiso   1.00
C95    C     0.59254   0.12185   0.00854   0.00000  Uiso   1.00
C96    C     0.54368   0.16014   0.08897   0.00000  Uiso   1.00
C97    C     0.41122   0.17773   0.44284   0.00000  Uiso   1.00
C98    C     0.39841   0.18293   0.49910   0.00000  Uiso   1.00
C99    C     0.43238   0.17391   0.02336   0.00000  Uiso   1.00
H100   H     0.60901   0.12693   0.08180   0.00000  Uiso   1.00
H101   H     0.56241   0.03691   0.17705   0.00000  Uiso   1.00
H102   H     0.43908   0.04159   0.32575   0.00000  Uiso   1.00
H103   H     0.64652   0.12702   0.18020   0.00000  Uiso   1.00
H104   H     0.39702   0.12796   0.17929   0.00000  Uiso   1.00
H105   H     0.62390   0.10247   0.48956   0.00000  Uiso   1.00
H106   H     0.48312   0.19228   0.08422   0.00000  Uiso   1.00
H107   H     0.38680   0.18809   0.42323   0.00000  Uiso   1.00
H108   H     0.42149   0.17840   0.06696   0.00000  Uiso   1.00
H109   H     0.53167   0.10646   0.37062   0.00000  Uiso   1.00
H110   H     0.56144   0.29348   0.17861   0.00000  Uiso   1.00
N111   N     0.38093   0.16668   0.25002   0.00000  Uiso   1.00
N112   N     0.61906   0.16665   0.25000   0.00000  Uiso   1.00
O113   O     0.46179   0.22775   0.25001   0.00000  Uiso   1.00
O114   O     0.53823   0.22774   0.25001   0.00000  Uiso   1.00
O115   O     0.44280   0.16666   0.32681   0.00000  Uiso   1.00
O116   O     0.51924   0.16665   0.32681   0.00000  Uiso   1.00
O117   O     0.46177   0.10559   0.25000   0.00000  Uiso   1.00
O118   O     0.53821   0.10558   0.24999   0.00000  Uiso   1.00
O119   O     0.48076   0.16668   0.17319   0.00000  Uiso   1.00
O120   O     0.55720   0.16667   0.17319   0.00000  Uiso   1.00
Zn121  Zn    0.44896   0.16667   0.25000   0.00000  Uiso   1.00
Zn122  Zn    0.55104   0.16666   0.25000   0.00000  Uiso   1.00
C123   C     0.43280   0.29201   0.34609   0.00000  Uiso   1.00
H124   H     0.44066   0.26036   0.35543   0.00000  Uiso   1.00
O125   O     0.39751   0.31006   0.37765   0.00000  Uiso   1.00
C126   C     0.35409   0.20783   0.33601   0.00000  Uiso   1.00
H127   H     0.38831   0.22181   0.32973   0.00000  Uiso   1.00
O128   O     0.65655   0.20947   0.38150   0.00000  Uiso   1.00
O129   O     0.59499   0.21336   0.32596   0.00000  Uiso   1.00
C130   C     0.60257   0.25639   0.31270   0.00000  Uiso   1.00
H131   H     0.60427   0.26227   0.27026   0.00000  Uiso   1.00
H132   H     0.63645   0.26804   0.31657   0.00000  Uiso   1.00
C133   C     0.56140   0.28195   0.35202   0.00000  Uiso   1.00
H134   H     0.56207   0.27976   0.39405   0.00000  Uiso   1.00
H135   H     0.56482   0.31541   0.33972   0.00000  Uiso   1.00
H136   H     0.52657   0.26970   0.35182   0.00000  Uiso   1.00
C137   C     0.60728   0.09043   0.39515   0.00000  Uiso   1.00
H138   H     0.60350   0.06639   0.36719   0.00000  Uiso   1.00
O139   O     0.64756   0.09978   0.39348   0.00000  Uiso   1.00
C140   C     0.35027   0.19979   0.03148   0.00000  Uiso   1.00
H141   H     0.65840   0.20752   0.01140   0.00000  Uiso   1.00
O142   O     0.33803   0.20511   0.08080   0.00000  Uiso   1.00
C143   C     0.83295   0.24656   0.25155   0.00000  Uiso   1.00
C144   C     0.81189   0.15790   0.49189   0.00000  Uiso   1.00
C145   C     0.82070   0.14602   0.43750   0.00000  Uiso   1.00
C146   C     0.84926   0.15281   0.01301   0.00000  Uiso   1.00
C147   C     0.89176   0.12970   0.48335   0.00000  Uiso   1.00
C148   C     0.89735   0.11351   0.43093   0.00000  Uiso   1.00
C149   C     0.86109   0.12067   0.40976   0.00000  Uiso   1.00
C150   C     0.84539   0.17090   0.06306   0.00000  Uiso   1.00
C151   C     0.91790   0.13621   0.06151   0.00000  Uiso   1.00
C152   C     0.78939   0.16072   0.41163   0.00000  Uiso   1.00
C153   C     0.86813   0.31108   0.21100   0.00000  Uiso   1.00
C154   C     0.80658   0.16439   0.35220   0.00000  Uiso   1.00
C155   C     0.86861   0.02080   0.20990   0.00000  Uiso   1.00
C156   C     0.83315   0.04281   0.25065   0.00000  Uiso   1.00
C157   C     0.79823   0.02304   0.29366   0.00000  Uiso   1.00
C158   C     0.79860   0.31306   0.29659   0.00000  Uiso   1.00
C159   C     0.83290   0.29085   0.25350   0.00000  Uiso   1.00
C160   C     0.98815   0.14472   0.21126   0.00000  Uiso   1.00
C161   C     0.70270   0.14522   0.21080   0.00000  Uiso   1.00
C162   C     0.67790   0.18762   0.29006   0.00000  Uiso   1.00
C163   C     0.96383   0.18961   0.28809   0.00000  Uiso   1.00
C164   C     0.83346   0.08683   0.24956   0.00000  Uiso   1.00
C165   C     0.86023   0.16636   0.14774   0.00000  Uiso   1.00
C166   C     0.92587   0.12185   0.00854   0.00000  Uiso   1.00
C167   C     0.87701   0.16014   0.08897   0.00000  Uiso   1.00
C168   C     0.74455   0.17773   0.44284   0.00000  Uiso   1.00
C169   C     0.73174   0.18293   0.49910   0.00000  Uiso   1.00
C170   C     0.76571   0.17391   0.02336   0.00000  Uiso   1.00
H171   H     0.94234   0.12693   0.08180   0.00000  Uiso   1.00
H172   H     0.89574   0.03691   0.17705   0.00000  Uiso   1.00
H173   H     0.77241   0.04159   0.32575   0.00000  Uiso   1.00
H174   H     0.97985   0.12702   0.18020   0.00000  Uiso   1.00
H175   H     0.73035   0.12796   0.17929   0.00000  Uiso   1.00
H176   H     0.95724   0.10247   0.48956   0.00000  Uiso   1.00
H177   H     0.81645   0.19228   0.08422   0.00000  Uiso   1.00
H178   H     0.72013   0.18809   0.42323   0.00000  Uiso   1.00
H179   H     0.75482   0.17840   0.06696   0.00000  Uiso   1.00
H180   H     0.86500   0.10646   0.37062   0.00000  Uiso   1.00
H181   H     0.89478   0.29348   0.17861   0.00000  Uiso   1.00
N182   N     0.71426   0.16668   0.25002   0.00000  Uiso   1.00
N183   N     0.95239   0.16665   0.25000   0.00000  Uiso   1.00
O184   O     0.79512   0.22775   0.25001   0.00000  Uiso   1.00
O185   O     0.87157   0.22774   0.25001   0.00000  Uiso   1.00
O186   O     0.77613   0.16666   0.32681   0.00000  Uiso   1.00
O187   O     0.85258   0.16665   0.32681   0.00000  Uiso   1.00
O188   O     0.79510   0.10559   0.25000   0.00000  Uiso   1.00
O189   O     0.87154   0.10558   0.24999   0.00000  Uiso   1.00
O190   O     0.81409   0.16668   0.17319   0.00000  Uiso   1.00
O191   O     0.89053   0.16667   0.17319   0.00000  Uiso   1.00
Zn192  Zn    0.78229   0.16667   0.25000   0.00000  Uiso   1.00
Zn193  Zn    0.88438   0.16666   0.25000   0.00000  Uiso   1.00
C194   C     0.76614   0.29201   0.34609   0.00000  Uiso   1.00
H195   H     0.77399   0.26036   0.35543   0.00000  Uiso   1.00
O196   O     0.73084   0.31006   0.37765   0.00000  Uiso   1.00
C197   C     0.68743   0.20783   0.33601   0.00000  Uiso   1.00
H198   H     0.72164   0.22181   0.32973   0.00000  Uiso   1.00
O199   O     0.98989   0.20947   0.38150   0.00000  Uiso   1.00
O200   O     0.92833   0.21336   0.32596   0.00000  Uiso   1.00
C201   C     0.93591   0.25639   0.31270   0.00000  Uiso   1.00
H202   H     0.93761   0.26227   0.27026   0.00000  Uiso   1.00
H203   H     0.96978   0.26804   0.31657   0.00000  Uiso   1.00
C204   C     0.89473   0.28195   0.35202   0.00000  Uiso   1.00
H205   H     0.89540   0.27976   0.39405   0.00000  Uiso   1.00
H206   H     0.89815   0.31541   0.33972   0.00000  Uiso   1.00
H207   H     0.85990   0.26970   0.35182   0.00000  Uiso   1.00
C208   C     0.94061   0.09043   0.39515   0.00000  Uiso   1.00
H209   H     0.93683   0.06639   0.36719   0.00000  Uiso   1.00
O210   O     0.98090   0.09978   0.39348   0.00000  Uiso   1.00
C211   C     0.68360   0.19979   0.03148   0.00000  Uiso   1.00
H212   H     0.99173   0.20752   0.01140   0.00000  Uiso   1.00
O213   O     0.67136   0.20511   0.08080   0.00000  Uiso   1.00
C214   C     0.16629   0.57989   0.25155   0.00000  Uiso   1.00
C215   C     0.14522   0.49123   0.49189   0.00000  Uiso   1.00
C216   C     0.15404   0.47935   0.43750   0.00000  Uiso   1.00
C217   C     0.18259   0.48615   0.01301   0.00000  Uiso   1.00
C218   C     0.22510   0.46303   0.48335   0.00000  Uiso   1.00
C219   C     0.23068   0.44685   0.43093   0.00000  Uiso   1.00
C220   C     0.19442   0.45401   0.40976   0.00000  Uiso   1.00
C221   C     0.17872   0.50424   0.06306   0.00000  Uiso   1.00
C222   C     0.25123   0.46954   0.06151   0.00000  Uiso   1.00
C223   C     0.12272   0.49405   0.41163   0.00000  Uiso   1.00
C224   C     0.20146   0.64441   0.21100   0.00000  Uiso   1.00
C225   C     0.13991   0.49772   0.35220   0.00000  Uiso   1.00
C226   C     0.20194   0.35413   0.20990   0.00000  Uiso   1.00
C227   C     0.16649   0.37615   0.25065   0.00000  Uiso   1.00
C228   C     0.13157   0.35638   0.29366   0.00000  Uiso   1.00
C229   C     0.13194   0.64640   0.29659   0.00000  Uiso   1.00
C230   C     0.16623   0.62418   0.25350   0.00000  Uiso   1.00
C231   C     0.32148   0.47805   0.21126   0.00000  Uiso   1.00
C232   C     0.03604   0.47855   0.21080   0.00000  Uiso   1.00
C233   C     0.01124   0.52095   0.29006   0.00000  Uiso   1.00
C234   C     0.29716   0.52294   0.28809   0.00000  Uiso   1.00
C235   C     0.16680   0.42016   0.24956   0.00000  Uiso   1.00
C236   C     0.19356   0.49970   0.14774   0.00000  Uiso   1.00
C237   C     0.25920   0.45519   0.00854   0.00000  Uiso   1.00
C238   C     0.21035   0.49347   0.08897   0.00000  Uiso   1.00
C239   C     0.07789   0.51106   0.44284   0.00000  Uiso   1.00
C240   C     0.06508   0.51626   0.49910   0.00000  Uiso   1.00
C241   C     0.09904   0.50724   0.02336   0.00000  Uiso   1.00
H242   H     0.27567   0.46026   0.08180   0.00000  Uiso   1.00
H243   H     0.22907   0.37025   0.17705   0.00000  Uiso   1.00
H244   H     0.10575   0.37492   0.32575   0.00000  Uiso   1.00
H245   H     0.31319   0.46035   0.18020   0.00000  Uiso   1.00
H246   H     0.06369   0.46129   0.17929   0.00000  Uiso   1.00
H247   H     0.29057   0.43580   0.48956   0.00000  Uiso   1.00
H248   H     0.14978   0.52561   0.08422   0.00000  Uiso   1.00
H249   H     0.05346   0.52142   0.42323   0.00000  Uiso   1.00
H250   H     0.08816   0.51173   0.06696   0.00000  Uiso   1.00
H251   H     0.19834   0.43980   0.37062   0.00000  Uiso   1.00
H252   H     0.22811   0.62681   0.17861   0.00000  Uiso   1.00
N253   N     0.04760   0.50001   0.25002   0.00000  Uiso   1.00
N254   N     0.28573   0.49998   0.25000   0.00000  Uiso   1.00
O255   O     0.12846   0.56108   0.25001   0.00000  Uiso   1.00
O256   O     0.20490   0.56107   0.25001   0.00000  Uiso   1.00
O257   O     0.10947   0.50000   0.32681   0.00000  Uiso   1.00
O258   O     0.18591   0.49999   0.32681   0.00000  Uiso   1.00
O259   O     0.12843   0.43893   0.25000   0.00000  Uiso   1.00
O260   O     0.20488   0.43892   0.24999   0.00000  Uiso   1.00
O261   O     0.14742   0.50001   0.17319   0.00000  Uiso   1.00
O262   O     0.22387   0.50000   0.17319   0.00000  Uiso   1.00
Zn263  Zn    0.11562   0.50001   0.25000   0.00000  Uiso   1.00
Zn264  Zn    0.21771   0.49999   0.25000   0.00000  Uiso   1.00
C265   C     0.09947   0.62534   0.34609   0.00000  Uiso   1.00
H266   H     0.10732   0.59369   0.35543   0.00000  Uiso   1.00
O267   O     0.06418   0.64339   0.37765   0.00000  Uiso   1.00
C268   C     0.02076   0.54116   0.33601   0.00000  Uiso   1.00
H269   H     0.05498   0.55515   0.32973   0.00000  Uiso   1.00
O270   O     0.32322   0.54281   0.38150   0.00000  Uiso   1.00
O271   O     0.26166   0.54669   0.32596   0.00000  Uiso   1.00
C272   C     0.26924   0.58972   0.31270   0.00000  Uiso   1.00
H273   H     0.27094   0.59560   0.27026   0.00000  Uiso   1.00
H274   H     0.30312   0.60138   0.31657   0.00000  Uiso   1.00
C275   C     0.22807   0.61528   0.35202   0.00000  Uiso   1.00
H276   H     0.22873   0.61309   0.39405   0.00000  Uiso   1.00
H277   H     0.23148   0.64874   0.33972   0.00000  Uiso   1.00
H278   H     0.19324   0.60303   0.35182   0.00000  Uiso   1.00
C279   C     0.27394   0.42376   0.39515   0.00000  Uiso   1.00
H280   H     0.27017   0.39972   0.36719   0.00000  Uiso   1.00
O281   O     0.31423   0.43312   0.39348   0.00000  Uiso   1.00
C282   C     0.01693   0.53312   0.03148   0.00000  Uiso   1.00
H283   H     0.32506   0.54085   0.01140   0.00000  Uiso   1.00
O284   O     0.00470   0.53844   0.08080   0.00000  Uiso   1.00
C285   C     0.49962   0.57989   0.25155   0.00000  Uiso   1.00
C286   C     0.47855   0.49123   0.49189   0.00000  Uiso   1.00
C287   C     0.48737   0.47935   0.43750   0.00000  Uiso   1.00
C288   C     0.51593   0.48615   0.01301   0.00000  Uiso   1.00
C289   C     0.55843   0.46303   0.48335   0.00000  Uiso   1.00
C290   C     0.56401   0.44685   0.43093   0.00000  Uiso   1.00
C291   C     0.52775   0.45401   0.40976   0.00000  Uiso   1.00
C292   C     0.51206   0.50424   0.06306   0.00000  Uiso   1.00
C293   C     0.58456   0.46954   0.06151   0.00000  Uiso   1.00
C294   C     0.45605   0.49405   0.41163   0.00000  Uiso   1.00
C295   C     0.53480   0.64441   0.21100   0.00000  Uiso   1.00
C296   C     0.47324   0.49772   0.35220   0.00000  Uiso   1.00
C297   C     0.53528   0.35413   0.20990   0.00000  Uiso   1.00
C298   C     0.49982   0.37615   0.25065   0.00000  Uiso   1.00
C299   C     0.46490   0.35638   0.29366   0.00000  Uiso   1.00
C300   C     0.46527   0.64640   0.29659   0.00000  Uiso   1.00
C301   C     0.49956   0.62418   0.25350   0.00000  Uiso   1.00
C302   C     0.65482   0.47805   0.21126   0.00000  Uiso   1.00
C303   C     0.36937   0.47855   0.21080   0.00000  Uiso   1.00
C304   C     0.34457   0.52095   0.29006   0.00000  Uiso   1.00
C305   C     0.63049   0.52294   0.28809   0.00000  Uiso   1.00
C306   C     0.50013   0.42016   0.24956   0.00000  Uiso   1.00
C307   C     0.52690   0.49970   0.14774   0.00000  Uiso   1.00
C308   C     0.59254   0.45519   0.00854   0.00000  Uiso   1.00
C309   C     0.54368   0.49347   0.08897   0.00000  Uiso   1.00
C310   C     0.41122   0.51106   0.44284   0.00000  Uiso   1.00
C311   C     0.39841   0.51626   0.49910   0.00000  Uiso   1.00
C312   C     0.43238   0.50724   0.02336   0.00000  Uiso   1.00
H313   H     0.60901   0.46026   0.08180   0.00000  Uiso   1.00
H314   H     0.56241   0.37025   0.17705   0.00000  Uiso   1.00
H315   H     0.43908   0.37492   0.32575   0.00000  Uiso   1.00
H316   H     0.64652   0.46035   0.18020   0.00000  Uiso   1.00
H317   H     0.39702   0.46129   0.17929   0.00000  Uiso   1.00
H318   H     0.62390   0.43580   0.48956   0.00000  Uiso   1.00
H319   H     0.48312   0.52561   0.08422   0.00000  Uiso   1.00
H320   H     0.38680   0.52142   0.42323   0.00000  Uiso   1.00
H321   H     0.42149   0.51173   0.06696   0.00000  Uiso   1.00
H322   H     0.53167   0.43980   0.37062   0.00000  Uiso   1.00
H323   H     0.56144   0.62681   0.17861   0.00000  Uiso   1.00
N324   N     0.38093   0.50001   0.25002   0.00000  Uiso   1.00
N325   N     0.61906   0.49998   0.25000   0.00000  Uiso   1.00
O326   O     0.46179   0.56108   0.25001   0.00000  Uiso   1.00
O327   O     0.53823   0.56107   0.25001   0.00000  Uiso   1.00
O328   O     0.44280   0.50000   0.32681   0.00000  Uiso   1.00
O329   O     0.51924   0.49999   0.32681   0.00000  Uiso   1.00
O330   O     0.46177   0.43893   0.25000   0.00000  Uiso   1.00
O331   O     0.53821   0.43892   0.24999   0.00000  Uiso   1.00
O332   O     0.48076   0.50001   0.17319   0.00000  Uiso   1.00
O333   O     0.55720   0.50000   0.17319   0.00000  Uiso   1.00
Zn334  Zn    0.44896   0.50001   0.25000   0.00000  Uiso   1.00
Zn335  Zn    0.55104   0.49999   0.25000   0.00000  Uiso   1.00
C336   C     0.43280   0.62534   0.34609   0.00000  Uiso   1.00
H337   H     0.44066   0.59369   0.35543   0.00000  Uiso   1.00
O338   O     0.39751   0.64339   0.37765   0.00000  Uiso   1.00
C339   C     0.35409   0.54116   0.33601   0.00000  Uiso   1.00
H340   H     0.38831   0.55515   0.32973   0.00000  Uiso   1.00
O341   O     0.65655   0.54281   0.38150   0.00000  Uiso   1.00
O342   O     0.59499   0.54669   0.32596   0.00000  Uiso   1.00
C343   C     0.60257   0.58972   0.31270   0.00000  Uiso   1.00
H344   H     0.60427   0.59560   0.27026   0.00000  Uiso   1.00
H345   H     0.63645   0.60138   0.31657   0.00000  Uiso   1.00
C346   C     0.56140   0.61528   0.35202   0.00000  Uiso   1.00
H347   H     0.56207   0.61309   0.39405   0.00000  Uiso   1.00
H348   H     0.56482   0.64874   0.33972   0.00000  Uiso   1.00
H349   H     0.52657   0.60303   0.35182   0.00000  Uiso   1.00
C350   C     0.60728   0.42376   0.39515   0.00000  Uiso   1.00
H351   H     0.60350   0.39972   0.36719   0.00000  Uiso   1.00
O352   O     0.64756   0.43312   0.39348   0.00000  Uiso   1.00
C353   C     0.35027   0.53312   0.03148   0.00000  Uiso   1.00
H354   H     0.65840   0.54085   0.01140   0.00000  Uiso   1.00
O355   O     0.33803   0.53844   0.08080   0.00000  Uiso   1.00
C356   C     0.83295   0.57989   0.25155   0.00000  Uiso   1.00
C357   C     0.81189   0.49123   0.49189   0.00000  Uiso   1.00
C358   C     0.82070   0.47935   0.43750   0.00000  Uiso   1.00
C359   C     0.84926   0.48615   0.01301   0.00000  Uiso   1.00
C360   C     0.89176   0.46303   0.48335   0.00000  Uiso   1.00
C361   C     0.89735   0.44685   0.43093   0.00000  Uiso   1.00
C362   C     0.86109   0.45401   0.40976   0.00000  Uiso   1.00
C363   C     0.84539   0.50424   0.06306   0.00000  Uiso   1.00
C364   C     0.91790   0.46954   0.06151   0.00000  Uiso   1.00
C365   C     0.78939   0.49405   0.41163   0.00000  Uiso   1.00
C366   C     0.86813   0.64441   0.21100   0.00000  Uiso   1.00
C367   C     0.80658   0.49772   0.35220   0.00000  Uiso   1.00
C368   C     0.86861   0.35413   0.20990   0.00000  Uiso   1.00
C369   C     0.83315   0.37615   0.25065   0.00000  Uiso   1.00
C370   C     0.79823   0.35638   0.29366   0.00000  Uiso   1.00
C371   C     0.79860   0.64640   0.29659   0.00000  Uiso   1.00
C372   C     0.83290   0.62418   0.25350   0.00000  Uiso   1.00
C373   C     0.98815   0.47805   0.21126   0.00000  Uiso   1.00
C374   C     0.70270   0.47855   0.21080   0.00000  Uiso   1.00
C375   C     0.67790   0.52095   0.29006   0.00000  Uiso   1.00
C376   C     0.96383   0.52294   0.28809   0.00000  Uiso   1.00
C377   C     0.83346   0.42016   0.24956   0.00000  Uiso   1.00
C378   C     0.86023   0.49970   0.14774   0.00000  Uiso   1.00
C379   C     0.92587   0.45519   0.00854   0.00000  Uiso   1.00
C380   C     0.87701   0.49347   0.08897   0.00000  Uiso   1.00
C381   C     0.74455   0.51106   0.44284   0.00000  Uiso   1.00
C382   C     0.73174   0.51626   0.49910   0.00000  Uiso   1.00
C383   C     0.76571   0.50724   0.02336   0.00000  Uiso   1.00
H384   H     0.94234   0.46026   0.08180   0.00000  Uiso   1.00
H385   H     0.89574   0.37025   0.17705   0.00000  Uiso   1.00
H386   H     0.77241   0.37492   0.32575   0.00000  Uiso   1.00
H387   H     0.97985   0.46035   0.18020   0.00000  Uiso   1.00
H388   H     0.73035   0.46129   0.17929   0.00000  Uiso   1.00
H389   H     0.95724   0.43580   0.48956   0.00000  Uiso   1.00
H390   H     0.81645   0.52561   0.08422   0.00000  Uiso   1.00
H391   H     0.72013   0.52142   0.42323   0.00000  Uiso   1.00
H392   H     0.75482   0.51173   0.06696   0.00000  Uiso   1.00
H393   H     0.86500   0.43980   0.37062   0.00000  Uiso   1.00
H394   H     0.89478   0.62681   0.17861   0.00000  Uiso   1.00
N395   N     0.71426   0.50001   0.25002   0.00000  Uiso   1.00
N396   N     0.95239   0.49998   0.25000   0.00000  Uiso   1.00
O397   O     0.79512   0.56108   0.25001   0.00000  Uiso   1.00
O398   O     0.87157   0.56107   0.25001   0.00000  Uiso   1.00
O399   O     0.77613   0.50000   0.32681   0.00000  Uiso   1.00
O400   O     0.85258   0.49999   0.32681   0.00000  Uiso   1.00
O401   O     0.79510   0.43893   0.25000   0.00000  Uiso   1.00
O402   O     0.87154   0.43892   0.24999   0.00000  Uiso   1.00
O403   O     0.81409   0.50001   0.17319   0.00000  Uiso   1.00
O404   O     0.89053   0.50000   0.17319   0.00000  Uiso   1.00
Zn405  Zn    0.78229   0.50001   0.25000   0.00000  Uiso   1.00
Zn406  Zn    0.88438   0.49999   0.25000   0.00000  Uiso   1.00
C407   C     0.76614   0.62534   0.34609   0.00000  Uiso   1.00
H408   H     0.77399   0.59369   0.35543   0.00000  Uiso   1.00
O409   O     0.73084   0.64339   0.37765   0.00000  Uiso   1.00
C410   C     0.68743   0.54116   0.33601   0.00000  Uiso   1.00
H411   H     0.72164   0.55515   0.32973   0.00000  Uiso   1.00
O412   O     0.98989   0.54281   0.38150   0.00000  Uiso   1.00
O413   O     0.92833   0.54669   0.32596   0.00000  Uiso   1.00
C414   C     0.93591   0.58972   0.31270   0.00000  Uiso   1.00
H415   H     0.93761   0.59560   0.27026   0.00000  Uiso   1.00
H416   H     0.96978   0.60138   0.31657   0.00000  Uiso   1.00
C417   C     0.89473   0.61528   0.35202   0.00000  Uiso   1.00
H418   H     0.89540   0.61309   0.39405   0.00000  Uiso   1.00
H419   H     0.89815   0.64874   0.33972   0.00000  Uiso   1.00
H420   H     0.85990   0.60303   0.35182   0.00000  Uiso   1.00
C421   C     0.94061   0.42376   0.39515   0.00000  Uiso   1.00
H422   H     0.93683   0.39972   0.36719   0.00000  Uiso   1.00
O423   O     0.98090   0.43312   0.39348   0.00000  Uiso   1.00
C424   C     0.68360   0.53312   0.03148   0.00000  Uiso   1.00
H425   H     0.99173   0.54085   0.01140   0.00000  Uiso   1.00
O426   O     0.67136   0.53844   0.08080   0.00000  Uiso   1.00
C427   C     0.16629   0.91322   0.25155   0.00000  Uiso   1.00
C428   C     0.14522   0.82456   0.49189   0.00000  Uiso   1.00
C429   C     0.15404   0.81268   0.43750   0.00000  Uiso   1.00
C430   C     0.18259   0.81948   0.01301   0.00000  Uiso   1.00
C431   C     0.22510   0.79636   0.48335   0.00000  Uiso   1.00
C432   C     0.23068   0.78018   0.43093   0.00000  Uiso   1.00
C433   C     0.19442   0.78734   0.40976   0.00000  Uiso   1.00
C434   C     0.17872   0.83757   0.06306   0.00000  Uiso   1.00
C435   C     0.25123   0.80288   0.06151   0.00000  Uiso   1.00
C436   C     0.12272   0.82738   0.41163   0.00000  Uiso   1.00
C437   C     0.20146   0.97774   0.21100   0.00000  Uiso   1.00
C438   C     0.13991   0.83106   0.35220   0.00000  Uiso   1.00
C439   C     0.20194   0.68746   0.20990   0.00000  Uiso   1.00
C440   C     0.16649   0.70948   0.25065   0.00000  Uiso   1.00
C441   C     0.13157   0.68971   0.29366   0.00000  Uiso   1.00
C442   C     0.13194   0.97973   0.29659   0.00000  Uiso   1.00
C443   C     0.16623   0.95751   0.25350   0.00000  Uiso   1.00
C444   C     0.32148   0.81139   0.21126   0.00000  Uiso   1.00
C445   C     0.03604   0.81189   0.21080   0.00000  Uiso   1.00
C446   C     0.01124   0.85428   0.29006   0.00000  Uiso   1.00
C447   C     0.29716   0.85627   0.28809   0.00000  Uiso   1.00
C448   C     0.16680   0.75349   0.24956   0.00000  Uiso   1.00
C449   C     0.19356   0.83303   0.14774   0.00000  Uiso   1.00
C450   C     0.25920   0.78852   0.00854   0.00000  Uiso   1.00
C451   C     0.21035   0.82681   0.08897   0.00000  Uiso   1.00
C452   C     0.07789   0.84439   0.44284   0.00000  Uiso   1.00
C453   C     0.06508   0.84960   0.49910   0.00000  Uiso   1.00
C454   C     0.09904   0.84057   0.02336   0.00000  Uiso   1.00
H455   H     0.27567   0.79359   0.08180   0.00000  Uiso   1.00
H456   H     0.22907   0.70358   0.17705   0.00000  Uiso   1.00
H457   H     0.10575   0.70826   0.32575   0.00000  Uiso   1.00
H458   H     0.31319   0.79368   0.18020   0.00000  Uiso   1.00
H459   H     0.06369   0.79462   0.17929   0.00000  Uiso   1.00
H460   H     0.29057   0.76913   0.48956   0.00000  Uiso   1.00
H461   H     0.14978   0.85894   0.08422   0.00000  Uiso   1.00
H462   H     0.05346   0.85475   0.42323   0.00000  Uiso   1.00
H463   H     0.08816   0.84507   0.06696   0.00000  Uiso   1.00
H464   H     0.19834   0.77313   0.37062   0.00000  Uiso   1.00
H465   H     0.22811   0.96014   0.17861   0.00000  Uiso   1.00
N466   N     0.04760   0.83334   0.25002   0.00000  Uiso   1.00
N467   N     0.28573   0.83331   0.25000   0.00000  Uiso   1.00
O468   O     0.12846   0.89442   0.25001   0.00000  Uiso   1.00
O469   O     0.20490   0.89441   0.25001   0.00000  Uiso   1.00
O470   O     0.10947   0.83333   0.32681   0.00000  Uiso   1.00
O471   O     0.18591   0.83332   0.32681   0.00000  Uiso   1.00
O472   O     0.12843   0.77226   0.25000   0.00000  Uiso   1.00
O473   O     0.20488   0.77225   0.24999   0.00000  Uiso   1.00
O474   O     0.14742   0.83335   0.17319   0.00000  Uiso   1.00
O475   O     0.22387   0.83334   0.17319   0.00000  Uiso   1.00
Zn476  Zn    0.11562   0.83334   0.25000   0.00000  Uiso   1.00
Zn477  Zn    0.21771   0.83333   0.25000   0.00000  Uiso   1.00
C478   C     0.09947   0.95867   0.34609   0.00000  Uiso   1.00
H479   H     0.10732   0.92703   0.35543   0.00000  Uiso   1.00
O480   O     0.06418   0.97672   0.37765   0.00000  Uiso   1.00
C481   C     0.02076   0.87449   0.33601   0.00000  Uiso   1.00
H482   H     0.05498   0.88848   0.32973   0.00000  Uiso   1.00
O483   O     0.32322   0.87614   0.38150   0.00000  Uiso   1.00
O484   O     0.26166   0.88003   0.32596   0.00000  Uiso   1.00
C485   C     0.26924   0.92305   0.31270   0.00000  Uiso   1.00
H486   H     0.27094   0.92894   0.27026   0.00000  Uiso   1.00
H487   H     0.30312   0.93471   0.31657   0.00000  Uiso   1.00
C488   C     0.22807   0.94862   0.35202   0.00000  Uiso   1.00
H489   H     0.22873   0.94643   0.39405   0.00000  Uiso   1.00
H490   H     0.23148   0.98208   0.33972   0.00000  Uiso   1.00
H491   H     0.19324   0.93637   0.35182   0.00000  Uiso   1.00
C492   C     0.27394   0.75709   0.39515   0.00000  Uiso   1.00
H493   H     0.27017   0.73306   0.36719   0.00000  Uiso   1.00
O494   O     0.31423   0.76645   0.39348   0.00000  Uiso   1.00
C495   C     0.01693   0.86645   0.03148   0.00000  Uiso   1.00
H496   H     0.32506   0.87419   0.01140   0.00000  Uiso   1.00
O497   O     0.00470   0.87178   0.08080   0.00000  Uiso   1.00
C498   C     0.49962   0.91322   0.25155   0.00000  Uiso   1.00
C499   C     0.47855   0.82456   0.49189   0.00000  Uiso   1.00
C500   C     0.48737   0.81268   0.43750   0.00000  Uiso   1.00
C501   C     0.51593   0.81948   0.01301   0.00000  Uiso   1.00
C502   C     0.55843   0.79636   0.48335   0.00000  Uiso   1.00
C503   C     0.56401   0.78018   0.43093   0.00000  Uiso   1.00
C504   C     0.52775   0.78734   0.40976   0.00000  Uiso   1.00
C505   C     0.51206   0.83757   0.06306   0.00000  Uiso   1.00
C506   C     0.58456   0.80288   0.06151   0.00000  Uiso   1.00
C507   C     0.45605   0.82738   0.41163   0.00000  Uiso   1.00
C508   C     0.53480   0.97774   0.21100   0.00000  Uiso   1.00
C509   C     0.47324   0.83106   0.35220   0.00000  Uiso   1.00
C510   C     0.53528   0.68746   0.20990   0.00000  Uiso   1.00
C511   C     0.49982   0.70948   0.25065   0.00000  Uiso   1.00
C512   C     0.46490   0.68971   0.29366   0.00000  Uiso   1.00
C513   C     0.46527   0.97973   0.29659   0.00000  Uiso   1.00
C514   C     0.49956   0.95751   0.25350   0.00000  Uiso   1.00
C515   C     0.65482   0.81139   0.21126   0.00000  Uiso   1.00
C516   C     0.36937   0.81189   0.21080   0.00000  Uiso   1.00
C517   C     0.34457   0.85428   0.29006   0.00000  Uiso   1.00
C518   C     0.63049   0.85627   0.28809   0.00000  Uiso   1.00
C519   C     0.50013   0.75349   0.24956   0.00000  Uiso   1.00
C520   C     0.52690   0.83303   0.14774   0.00000  Uiso   1.00
C521   C     0.59254   0.78852   0.00854   0.00000  Uiso   1.00
C522   C     0.54368   0.82681   0.08897   0.00000  Uiso   1.00
C523   C     0.41122   0.84439   0.44284   0.00000  Uiso   1.00
C524   C     0.39841   0.84960   0.49910   0.00000  Uiso   1.00
C525   C     0.43238   0.84057   0.02336   0.00000  Uiso   1.00
H526   H     0.60901   0.79359   0.08180   0.00000  Uiso   1.00
H527   H     0.56241   0.70358   0.17705   0.00000  Uiso   1.00
H528   H     0.43908   0.70826   0.32575   0.00000  Uiso   1.00
H529   H     0.64652   0.79368   0.18020   0.00000  Uiso   1.00
H530   H     0.39702   0.79462   0.17929   0.00000  Uiso   1.00
H531   H     0.62390   0.76913   0.48956   0.00000  Uiso   1.00
H532   H     0.48312   0.85894   0.08422   0.00000  Uiso   1.00
H533   H     0.38680   0.85475   0.42323   0.00000  Uiso   1.00
H534   H     0.42149   0.84507   0.06696   0.00000  Uiso   1.00
H535   H     0.53167   0.77313   0.37062   0.00000  Uiso   1.00
H536   H     0.56144   0.96014   0.17861   0.00000  Uiso   1.00
N537   N     0.38093   0.83334   0.25002   0.00000  Uiso   1.00
N538   N     0.61906   0.83331   0.25000   0.00000  Uiso   1.00
O539   O     0.46179   0.89442   0.25001   0.00000  Uiso   1.00
O540   O     0.53823   0.89441   0.25001   0.00000  Uiso   1.00
O541   O     0.44280   0.83333   0.32681   0.00000  Uiso   1.00
O542   O     0.51924   0.83332   0.32681   0.00000  Uiso   1.00
O543   O     0.46177   0.77226   0.25000   0.00000  Uiso   1.00
O544   O     0.53821   0.77225   0.24999   0.00000  Uiso   1.00
O545   O     0.48076   0.83335   0.17319   0.00000  Uiso   1.00
O546   O     0.55720   0.83334   0.17319   0.00000  Uiso   1.00
Zn547  Zn    0.44896   0.83334   0.25000   0.00000  Uiso   1.00
Zn548  Zn    0.55104   0.83333   0.25000   0.00000  Uiso   1.00
C549   C     0.43280   0.95867   0.34609   0.00000  Uiso   1.00
H550   H     0.44066   0.92703   0.35543   0.00000  Uiso   1.00
O551   O     0.39751   0.97672   0.37765   0.00000  Uiso   1.00
C552   C     0.35409   0.87449   0.33601   0.00000  Uiso   1.00
H553   H     0.38831   0.88848   0.32973   0.00000  Uiso   1.00
O554   O     0.65655   0.87614   0.38150   0.00000  Uiso   1.00
O555   O     0.59499   0.88003   0.32596   0.00000  Uiso   1.00
C556   C     0.60257   0.92305   0.31270   0.00000  Uiso   1.00
H557   H     0.60427   0.92894   0.27026   0.00000  Uiso   1.00
H558   H     0.63645   0.93471   0.31657   0.00000  Uiso   1.00
C559   C     0.56140   0.94862   0.35202   0.00000  Uiso   1.00
H560   H     0.56207   0.94643   0.39405   0.00000  Uiso   1.00
H561   H     0.56482   0.98208   0.33972   0.00000  Uiso   1.00
H562   H     0.52657   0.93637   0.35182   0.00000  Uiso   1.00
C563   C     0.60728   0.75709   0.39515   0.00000  Uiso   1.00
H564   H     0.60350   0.73306   0.36719   0.00000  Uiso   1.00
O565   O     0.64756   0.76645   0.39348   0.00000  Uiso   1.00
C566   C     0.35027   0.86645   0.03148   0.00000  Uiso   1.00
H567   H     0.65840   0.87419   0.01140   0.00000  Uiso   1.00
O568   O     0.33803   0.87178   0.08080   0.00000  Uiso   1.00
C569   C     0.83295   0.91322   0.25155   0.00000  Uiso   1.00
C570   C     0.81189   0.82456   0.49189   0.00000  Uiso   1.00
C571   C     0.82070   0.81268   0.43750   0.00000  Uiso   1.00
C572   C     0.84926   0.81948   0.01301   0.00000  Uiso   1.00
C573   C     0.89176   0.79636   0.48335   0.00000  Uiso   1.00
C574   C     0.89735   0.78018   0.43093   0.00000  Uiso   1.00
C575   C     0.86109   0.78734   0.40976   0.00000  Uiso   1.00
C576   C     0.84539   0.83757   0.06306   0.00000  Uiso   1.00
C577   C     0.91790   0.80288   0.06151   0.00000  Uiso   1.00
C578   C     0.78939   0.82738   0.41163   0.00000  Uiso   1.00
C579   C     0.86813   0.97774   0.21100   0.00000  Uiso   1.00
C580   C     0.80658   0.83106   0.35220   0.00000  Uiso   1.00
C581   C     0.86861   0.68746   0.20990   0.00000  Uiso   1.00
C582   C     0.83315   0.70948   0.25065   0.00000  Uiso   1.00
C583   C     0.79823   0.68971   0.29366   0.00000  Uiso   1.00
C584   C     0.79860   0.97973   0.29659   0.00000  Uiso   1.00
C585   C     0.83290   0.95751   0.25350   0.00000  Uiso   1.00
C586   C     0.98815   0.81139   0.21126   0.00000  Uiso   1.00
C587   C     0.70270   0.81189   0.21080   0.00000  Uiso   1.00
C588   C     0.67790   0.85428   0.29006   0.00000  Uiso   1.00
C589   C     0.96383   0.85627   0.28809   0.00000  Uiso   1.00
C590   C     0.83346   0.75349   0.24956   0.00000  Uiso   1.00
C591   C     0.86023   0.83303   0.14774   0.00000  Uiso   1.00
C592   C     0.92587   0.78852   0.00854   0.00000  Uiso   1.00
C593   C     0.87701   0.82681   0.08897   0.00000  Uiso   1.00
C594   C     0.74455   0.84439   0.44284   0.00000  Uiso   1.00
C595   C     0.73174   0.84960   0.49910   0.00000  Uiso   1.00
C596   C     0.76571   0.84057   0.02336   0.00000  Uiso   1.00
H597   H     0.94234   0.79359   0.08180   0.00000  Uiso   1.00
H598   H     0.89574   0.70358   0.17705   0.00000  Uiso   1.00
H599   H     0.77241   0.70826   0.32575   0.00000  Uiso   1.00
H600   H     0.97985   0.79368   0.18020   0.00000  Uiso   1.00
H601   H     0.73035   0.79462   0.17929   0.00000  Uiso   1.00
H602   H     0.95724   0.76913   0.48956   0.00000  Uiso   1.00
H603   H     0.81645   0.85894   0.08422   0.00000  Uiso   1.00
H604   H     0.72013   0.85475   0.42323   0.00000  Uiso   1.00
H605   H     0.75482   0.84507   0.06696   0.00000  Uiso   1.00
H606   H     0.86500   0.77313   0.37062   0.00000  Uiso   1.00
H607   H     0.89478   0.96014   0.17861   0.00000  Uiso   1.00
N608   N     0.71426   0.83334   0.25002   0.00000  Uiso   1.00
N609   N     0.95239   0.83331   0.25000   0.00000  Uiso   1.00
O610   O     0.79512   0.89442   0.25001   0.00000  Uiso   1.00
O611   O     0.87157   0.89441   0.25001   0.00000  Uiso   1.00
O612   O     0.77613   0.83333   0.32681   0.00000  Uiso   1.00
O613   O     0.85258   0.83332   0.32681   0.00000  Uiso   1.00
O614   O     0.79510   0.77226   0.25000   0.00000  Uiso   1.00
O615   O     0.87154   0.77225   0.24999   0.00000  Uiso   1.00
O616   O     0.81409   0.83335   0.17319   0.00000  Uiso   1.00
O617   O     0.89053   0.83334   0.17319   0.00000  Uiso   1.00
Zn618  Zn    0.78229   0.83334   0.25000   0.00000  Uiso   1.00
Zn619  Zn    0.88438   0.83333   0.25000   0.00000  Uiso   1.00
C620   C     0.76614   0.95867   0.34609   0.00000  Uiso   1.00
H621   H     0.77399   0.92703   0.35543   0.00000  Uiso   1.00
O622   O     0.73084   0.97672   0.37765   0.00000  Uiso   1.00
C623   C     0.68743   0.87449   0.33601   0.00000  Uiso   1.00
H624   H     0.72164   0.88848   0.32973   0.00000  Uiso   1.00
O625   O     0.98989   0.87614   0.38150   0.00000  Uiso   1.00
O626   O     0.92833   0.88003   0.32596   0.00000  Uiso   1.00
C627   C     0.93591   0.92305   0.31270   0.00000  Uiso   1.00
H628   H     0.93761   0.92894   0.27026   0.00000  Uiso   1.00
H629   H     0.96978   0.93471   0.31657   0.00000  Uiso   1.00
C630   C     0.89473   0.94862   0.35202   0.00000  Uiso   1.00
H631   H     0.89540   0.94643   0.39405   0.00000  Uiso   1.00
H632   H     0.89815   0.98208   0.33972   0.00000  Uiso   1.00
H633   H     0.85990   0.93637   0.35182   0.00000  Uiso   1.00
C634   C     0.94061   0.75709   0.39515   0.00000  Uiso   1.00
H635   H     0.93683   0.73306   0.36719   0.00000  Uiso   1.00
O636   O     0.98090   0.76645   0.39348   0.00000  Uiso   1.00
C637   C     0.68360   0.86645   0.03148   0.00000  Uiso   1.00
H638   H     0.99173   0.87419   0.01140   0.00000  Uiso   1.00
O639   O     0.67136   0.87178   0.08080   0.00000  Uiso   1.00
C640   C     0.16629   0.24656   0.75155   0.00000  Uiso   1.00
C641   C     0.14522   0.15790   0.99189   0.00000  Uiso   1.00
C642   C     0.15404   0.14602   0.93750   0.00000  Uiso   1.00
C643   C     0.18259   0.15281   0.51301   0.00000  Uiso   1.00
C644   C     0.22510   0.12970   0.98335   0.00000  Uiso   1.00
C645   C     0.23068   0.11351   0.93093   0.00000  Uiso   1.00
C646   C     0.19442   0.12067   0.90976   0.00000  Uiso   1.00
C647   C     0.17872   0.17090   0.56306   0.00000  Uiso   1.00
C648   C     0.25123   0.13621   0.56151   0.00000  Uiso   1.00
C649   C     0.12272   0.16072   0.91163   0.00000  Uiso   1.00
C650   C     0.20146   0.31108   0.71100   0.00000  Uiso   1.00
C651   C     0.13991   0.16439   0.85220   0.00000  Uiso   1.00
C652   C     0.20194   0.02080   0.70990   0.00000  Uiso   1.00
C653   C     0.16649   0.04281   0.75065   0.00000  Uiso   1.00
C654   C     0.13157   0.02304   0.79366   0.00000  Uiso   1.00
C655   C     0.13194   0.31306   0.79659   0.00000  Uiso   1.00
C656   C     0.16623   0.29085   0.75350   0.00000  Uiso   1.00
C657   C     0.32148   0.14472   0.71126   0.00000  Uiso   1.00
C658   C     0.03604   0.14522   0.71080   0.00000  Uiso   1.00
C659   C     0.01124   0.18762   0.79006   0.00000  Uiso   1.00
C660   C     0.29716   0.18961   0.78809   0.00000  Uiso   1.00
C661   C     0.16680   0.08683   0.74956   0.00000  Uiso   1.00
C662   C     0.19356   0.16636   0.64774   0.00000  Uiso   1.00
C663   C     0.25920   0.12185   0.50854   0.00000  Uiso   1.00
C664   C     0.21035   0.16014   0.58897   0.00000  Uiso   1.00
C665   C     0.07789   0.17773   0.94284   0.00000  Uiso   1.00
C666   C     0.06508   0.18293   0.99910   0.00000  Uiso   1.00
C667   C     0.09904   0.17391   0.52336   0.00000  Uiso   1.00
H668   H     0.27567   0.12693   0.58180   0.00000  Uiso   1.00
H669   H     0.22907   0.03691   0.67705   0.00000  Uiso   1.00
H670   H     0.10575   0.04159   0.82575   0.00000  Uiso   1.00
H671   H     0.31319   0.12702   0.68020   0.00000  Uiso   1.00
H672   H     0.06369   0.12796   0.67929   0.00000  Uiso   1.00
H673   H     0.29057   0.10247   0.98956   0.00000  Uiso   1.00
H674   H     0.14978   0.19228   0.58422   0.00000  Uiso   1.00
H675   H     0.05346   0.18809   0.92323   0.00000  Uiso   1.00
H676   H     0.08816   0.17840   0.56696   0.00000  Uiso   1.00
H677   H     0.19834   0.10646   0.87062   0.00000  Uiso   1.00
H678   H     0.22811   0.29348   0.67861   0.00000  Uiso   1.00
N679   N     0.04760   0.16668   0.75002   0.00000  Uiso   1.00
N680   N     0.28573   0.16665   0.75000   0.00000  Uiso   1.00
O681   O     0.12846   0.22775   0.75001   0.00000  Uiso   1.00
O682   O     0.20490   0.22774   0.75001   0.00000  Uiso   1.00
O683   O     0.10947   0.16666   0.82681   0.00000  Uiso   1.00
O684   O     0.18591   0.16665   0.82681   0.00000  Uiso   1.00
O685   O     0.12843   0.10559   0.75000   0.00000  Uiso   1.00
O686   O     0.20488   0.10558   0.74999   0.00000  Uiso   1.00
O687   O     0.14742   0.16668   0.67319   0.00000  Uiso   1.00
O688   O     0.22387   0.16667   0.67319   0.00000  Uiso   1.00
Zn689  Zn    0.11562   0.16667   0.75000   0.00000  Uiso   1.00
Zn690  Zn    0.21771   0.16666   0.75000   0.00000  Uiso   1.00
C691   C     0.09947   0.29201   0.84609   0.00000  Uiso   1.00
H692   H     0.10732   0.26036   0.85543   0.00000  Uiso   1.00
O693   O     0.06418   0.31006   0.87765   0.00000  Uiso   1.00
C694   C     0.02076   0.20783   0.83601   0.00000  Uiso   1.00
H695   H     0.05498   0.22181   0.82973   0.00000  Uiso   1.00
O696   O     0.32322   0.20947   0.88150   0.00000  Uiso   1.00
O697   O     0.26166   0.21336   0.82596   0.00000  Uiso   1.00
C698   C     0.26924   0.25639   0.81270   0.00000  Uiso   1.00
H699   H     0.27094   0.26227   0.77026   0.00000  Uiso   1.00
H700   H     0.30312   0.26804   0.81657   0.00000  Uiso   1.00
C701   C     0.22807   0.28195   0.85202   0.00000  Uiso   1.00
H702   H     0.22873   0.27976   0.89405   0.00000  Uiso   1.00
H703   H     0.23148   0.31541   0.83972   0.00000  Uiso   1.00
H704   H     0.19324   0.26970   0.85182   0.00000  Uiso   1.00
C705   C     0.27394   0.09043   0.89515   0.00000  Uiso   1.00
H706   H     0.27017   0.06639   0.86719   0.00000  Uiso   1.00
O707   O     0.31423   0.09978   0.89348   0.00000  Uiso   1.00
C708   C     0.01693   0.19979   0.53148   0.00000  Uiso   1.00
H709   H     0.32506   0.20752   0.51140   0.00000  Uiso   1.00
O710   O     0.00470   0.20511   0.58080   0.00000  Uiso   1.00
C711   C     0.49962   0.24656   0.75155   0.00000  Uiso   1.00
C712   C     0.47855   0.15790   0.99189   0.00000  Uiso   1.00
C713   C     0.48737   0.14602   0.93750   0.00000  Uiso   1.00
C714   C     0.51593   0.15281   0.51301   0.00000  Uiso   1.00
C715   C     0.55843   0.12970   0.98335   0.00000  Uiso   1.00
C716   C     0.56401   0.11351   0.93093   0.00000  Uiso   1.00
C717   C     0.52775   0.12067   0.90976   0.00000  Uiso   1.00
C718   C     0.51206   0.17090   0.56306   0.00000  Uiso   1.00
C719   C     0.58456   0.13621   0.56151   0.00000  Uiso   1.00
C720   C     0.45605   0.16072   0.91163   0.00000  Uiso   1.00
C721   C     0.53480   0.31108   0.71100   0.00000  Uiso   1.00
C722   C     0.47324   0.16439   0.85220   0.00000  Uiso   1.00
C723   C     0.53528   0.02080   0.70990   0.00000  Uiso   1.00
C724   C     0.49982   0.04281   0.75065   0.00000  Uiso   1.00
C725   C     0.46490   0.02304   0.79366   0.00000  Uiso   1.00
C726   C     0.46527   0.31306   0.79659   0.00000  Uiso   1.00
C727   C     0.49956   0.29085   0.75350   0.00000  Uiso   1.00
C728   C     0.65482   0.14472   0.71126   0.00000  Uiso   1.00
C729   C     0.36937   0.14522   0.71080   0.00000  Uiso   1.00
C730   C     0.34457   0.18762   0.79006   0.00000  Uiso   1.00
C731   C     0.63049   0.18961   0.78809   0.00000  Uiso   1.00
C732   C     0.50013   0.08683   0.74956   0.00000  Uiso   1.00
C733   C     0.52690   0.16636   0.64774   0.00000  Uiso   1.00
C734   C     0.59254   0.12185   0.50854   0.00000  Uiso   1.00
C735   C     0.54368   0.16014   0.58897   0.00000  Uiso   1.00
C736   C     0.41122   0.17773   0.94284   0.00000  Uiso   1.00
C737   C     0.39841   0.18293   0.99910   0.00000  Uiso   1.00
C738   C     0.43238   0.17391   0.52336   0.00000  Uiso   1.00
H739   H     0.60901   0.12693   0.58180   0.00000  Uiso   1.00
H740   H     0.56241   0.03691   0.67705   0.00000  Uiso   1.00
H741   H     0.43908   0.04159   0.82575   0.00000  Uiso   1.00
H742   H     0.64652   0.12702   0.68020   0.00000  Uiso   1.00
H743   H     0.39702   0.12796   0.67929   0.00000  Uiso   1.00
H744   H     0.62390   0.10247   0.98956   0.00000  Uiso   1.00
H745   H     0.48312   0.19228   0.58422   0.00000  Uiso   1.00
H746   H     0.38680   0.18809   0.92323   0.00000  Uiso   1.00
H747   H     0.42149   0.17840   0.56696   0.00000  Uiso   1.00
H748   H     0.53167   0.10646   0.87062   0.00000  Uiso   1.00
H749   H     0.56144   0.29348   0.67861   0.00000  Uiso   1.00
N750   N     0.38093   0.16668   0.75002   0.00000  Uiso   1.00
N751   N     0.61906   0.16665   0.75000   0.00000  Uiso   1.00
O752   O     0.46179   0.22775   0.75001   0.00000  Uiso   1.00
O753   O     0.53823   0.22774   0.75001   0.00000  Uiso   1.00
O754   O     0.44280   0.16666   0.82681   0.00000  Uiso   1.00
O755   O     0.51924   0.16665   0.82681   0.00000  Uiso   1.00
O756   O     0.46177   0.10559   0.75000   0.00000  Uiso   1.00
O757   O     0.53821   0.10558   0.74999   0.00000  Uiso   1.00
O758   O     0.48076   0.16668   0.67319   0.00000  Uiso   1.00
O759   O     0.55720   0.16667   0.67319   0.00000  Uiso   1.00
Zn760  Zn    0.44896   0.16667   0.75000   0.00000  Uiso   1.00
Zn761  Zn    0.55104   0.16666   0.75000   0.00000  Uiso   1.00
C762   C     0.43280   0.29201   0.84609   0.00000  Uiso   1.00
H763   H     0.44066   0.26036   0.85543   0.00000  Uiso   1.00
O764   O     0.39751   0.31006   0.87765   0.00000  Uiso   1.00
C765   C     0.35409   0.20783   0.83601   0.00000  Uiso   1.00
H766   H     0.38831   0.22181   0.82973   0.00000  Uiso   1.00
O767   O     0.65655   0.20947   0.88150   0.00000  Uiso   1.00
O768   O     0.59499   0.21336   0.82596   0.00000  Uiso   1.00
C769   C     0.60257   0.25639   0.81270   0.00000  Uiso   1.00
H770   H     0.60427   0.26227   0.77026   0.00000  Uiso   1.00
H771   H     0.63645   0.26804   0.81657   0.00000  Uiso   1.00
C772   C     0.56140   0.28195   0.85202   0.00000  Uiso   1.00
H773   H     0.56207   0.27976   0.89405   0.00000  Uiso   1.00
H774   H     0.56482   0.31541   0.83972   0.00000  Uiso   1.00
H775   H     0.52657   0.26970   0.85182   0.00000  Uiso   1.00
C776   C     0.60728   0.09043   0.89515   0.00000  Uiso   1.00
H777   H     0.60350   0.06639   0.86719   0.00000  Uiso   1.00
O778   O     0.64756   0.09978   0.89348   0.00000  Uiso   1.00
C779   C     0.35027   0.19979   0.53148   0.00000  Uiso   1.00
H780   H     0.65840   0.20752   0.51140   0.00000  Uiso   1.00
O781   O     0.33803   0.20511   0.58080   0.00000  Uiso   1.00
C782   C     0.83295   0.24656   0.75155   0.00000  Uiso   1.00
C783   C     0.81189   0.15790   0.99189   0.00000  Uiso   1.00
C784   C     0.82070   0.14602   0.93750   0.00000  Uiso   1.00
C785   C     0.84926   0.15281   0.51301   0.00000  Uiso   1.00
C786   C     0.89176   0.12970   0.98335   0.00000  Uiso   1.00
C787   C     0.89735   0.11351   0.93093   0.00000  Uiso   1.00
C788   C     0.86109   0.12067   0.90976   0.00000  Uiso   1.00
C789   C     0.84539   0.17090   0.56306   0.00000  Uiso   1.00
C790   C     0.91790   0.13621   0.56151   0.00000  Uiso   1.00
C791   C     0.78939   0.16072   0.91163   0.00000  Uiso   1.00
C792   C     0.86813   0.31108   0.71100   0.00000  Uiso   1.00
C793   C     0.80658   0.16439   0.85220   0.00000  Uiso   1.00
C794   C     0.86861   0.02080   0.70990   0.00000  Uiso   1.00
C795   C     0.83315   0.04281   0.75065   0.00000  Uiso   1.00
C796   C     0.79823   0.02304   0.79366   0.00000  Uiso   1.00
C797   C     0.79860   0.31306   0.79659   0.00000  Uiso   1.00
C798   C     0.83290   0.29085   0.75350   0.00000  Uiso   1.00
C799   C     0.98815   0.14472   0.71126   0.00000  Uiso   1.00
C800   C     0.70270   0.14522   0.71080   0.00000  Uiso   1.00
C801   C     0.67790   0.18762   0.79006   0.00000  Uiso   1.00
C802   C     0.96383   0.18961   0.78809   0.00000  Uiso   1.00
C803   C     0.83346   0.08683   0.74956   0.00000  Uiso   1.00
C804   C     0.86023   0.16636   0.64774   0.00000  Uiso   1.00
C805   C     0.92587   0.12185   0.50854   0.00000  Uiso   1.00
C806   C     0.87701   0.16014   0.58897   0.00000  Uiso   1.00
C807   C     0.74455   0.17773   0.94284   0.00000  Uiso   1.00
C808   C     0.73174   0.18293   0.99910   0.00000  Uiso   1.00
C809   C     0.76571   0.17391   0.52336   0.00000  Uiso   1.00
H810   H     0.94234   0.12693   0.58180   0.00000  Uiso   1.00
H811   H     0.89574   0.03691   0.67705   0.00000  Uiso   1.00
H812   H     0.77241   0.04159   0.82575   0.00000  Uiso   1.00
H813   H     0.97985   0.12702   0.68020   0.00000  Uiso   1.00
H814   H     0.73035   0.12796   0.67929   0.00000  Uiso   1.00
H815   H     0.95724   0.10247   0.98956   0.00000  Uiso   1.00
H816   H     0.81645   0.19228   0.58422   0.00000  Uiso   1.00
H817   H     0.72013   0.18809   0.92323   0.00000  Uiso   1.00
H818   H     0.75482   0.17840   0.56696   0.00000  Uiso   1.00
H819   H     0.86500   0.10646   0.87062   0.00000  Uiso   1.00
H820   H     0.89478   0.29348   0.67861   0.00000  Uiso   1.00
N821   N     0.71426   0.16668   0.75002   0.00000  Uiso   1.00
N822   N     0.95239   0.16665   0.75000   0.00000  Uiso   1.00
O823   O     0.79512   0.22775   0.75001   0.00000  Uiso   1.00
O824   O     0.87157   0.22774   0.75001   0.00000  Uiso   1.00
O825   O     0.77613   0.16666   0.82681   0.00000  Uiso   1.00
O826   O     0.85258   0.16665   0.82681   0.00000  Uiso   1.00
O827   O     0.79510   0.10559   0.75000   0.00000  Uiso   1.00
O828   O     0.87154   0.10558   0.74999   0.00000  Uiso   1.00
O829   O     0.81409   0.16668   0.67319   0.00000  Uiso   1.00
O830   O     0.89053   0.16667   0.67319   0.00000  Uiso   1.00
Zn831  Zn    0.78229   0.16667   0.75000   0.00000  Uiso   1.00
Zn832  Zn    0.88438   0.16666   0.75000   0.00000  Uiso   1.00
C833   C     0.76614   0.29201   0.84609   0.00000  Uiso   1.00
H834   H     0.77399   0.26036   0.85543   0.00000  Uiso   1.00
O835   O     0.73084   0.31006   0.87765   0.00000  Uiso   1.00
C836   C     0.68743   0.20783   0.83601   0.00000  Uiso   1.00
H837   H     0.72164   0.22181   0.82973   0.00000  Uiso   1.00
O838   O     0.98989   0.20947   0.88150   0.00000  Uiso   1.00
O839   O     0.92833   0.21336   0.82596   0.00000  Uiso   1.00
C840   C     0.93591   0.25639   0.81270   0.00000  Uiso   1.00
H841   H     0.93761   0.26227   0.77026   0.00000  Uiso   1.00
H842   H     0.96978   0.26804   0.81657   0.00000  Uiso   1.00
C843   C     0.89473   0.28195   0.85202   0.00000  Uiso   1.00
H844   H     0.89540   0.27976   0.89405   0.00000  Uiso   1.00
H845   H     0.89815   0.31541   0.83972   0.00000  Uiso   1.00
H846   H     0.85990   0.26970   0.85182   0.00000  Uiso   1.00
C847   C     0.94061   0.09043   0.89515   0.00000  Uiso   1.00
H848   H     0.93683   0.06639   0.86719   0.00000  Uiso   1.00
O849   O     0.98090   0.09978   0.89348   0.00000  Uiso   1.00
C850   C     0.68360   0.19979   0.53148   0.00000  Uiso   1.00
H851   H     0.99173   0.20752   0.51140   0.00000  Uiso   1.00
O852   O     0.67136   0.20511   0.58080   0.00000  Uiso   1.00
C853   C     0.16629   0.57989   0.75155   0.00000  Uiso   1.00
C854   C     0.14522   0.49123   0.99189   0.00000  Uiso   1.00
C855   C     0.15404   0.47935   0.93750   0.00000  Uiso   1.00
C856   C     0.18259   0.48615   0.51301   0.00000  Uiso   1.00
C857   C     0.22510   0.46303   0.98335   0.00000  Uiso   1.00
C858   C     0.23068   0.44685   0.93093   0.00000  Uiso   1.00
C859   C     0.19442   0.45401   0.90976   0.00000  Uiso   1.00
C860   C     0.17872   0.50424   0.56306   0.00000  Uiso   1.00
C861   C     0.25123   0.46954   0.56151   0.00000  Uiso   1.00
C862   C     0.12272   0.49405   0.91163   0.00000  Uiso   1.00
C863   C     0.20146   0.64441   0.71100   0.00000  Uiso   1.00
C864   C     0.13991   0.49772   0.85220   0.00000  Uiso   1.00
C865   C     0.20194   0.35413   0.70990   0.00000  Uiso   1.00
C866   C     0.16649   0.37615   0.75065   0.00000  Uiso   1.00
C867   C     0.13157   0.35638   0.79366   0.00000  Uiso   1.00
C868   C     0.13194   0.64640   0.79659   0.00000  Uiso   1.00
C869   C     0.16623   0.62418   0.75350   0.00000  Uiso   1.00
C870   C     0.32148   0.47805   0.71126   0.00000  Uiso   1.00
C871   C     0.03604   0.47855   0.71080   0.00000  Uiso   1.00
C872   C     0.01124   0.52095   0.79006   0.00000  Uiso   1.00
C873   C     0.29716   0.52294   0.78809   0.00000  Uiso   1.00
C874   C     0.16680   0.42016   0.74956   0.00000  Uiso   1.00
C875   C     0.19356   0.49970   0.64774   0.00000  Uiso   1.00
C876   C     0.25920   0.45519   0.50854   0.00000  Uiso   1.00
C877   C     0.21035   0.49347   0.58897   0.00000  Uiso   1.00
C878   C     0.07789   0.51106   0.94284   0.00000  Uiso   1.00
C879   C     0.06508   0.51626   0.99910   0.00000  Uiso   1.00
C880   C     0.09904   0.50724   0.52336   0.00000  Uiso   1.00
H881   H     0.27567   0.46026   0.58180   0.00000  Uiso   1.00
H882   H     0.22907   0.37025   0.67705   0.00000  Uiso   1.00
H883   H     0.10575   0.37492   0.82575   0.00000  Uiso   1.00
H884   H     0.31319   0.46035   0.68020   0.00000  Uiso   1.00
H885   H     0.06369   0.46129   0.67929   0.00000  Uiso   1.00
H886   H     0.29057   0.43580   0.98956   0.00000  Uiso   1.00
H887   H     0.14978   0.52561   0.58422   0.00000  Uiso   1.00
H888   H     0.05346   0.52142   0.92323   0.00000  Uiso   1.00
H889   H     0.08816   0.51173   0.56696   0.00000  Uiso   1.00
H890   H     0.19834   0.43980   0.87062   0.00000  Uiso   1.00
H891   H     0.22811   0.62681   0.67861   0.00000  Uiso   1.00
N892   N     0.04760   0.50001   0.75002   0.00000  Uiso   1.00
N893   N     0.28573   0.49998   0.75000   0.00000  Uiso   1.00
O894   O     0.12846   0.56108   0.75001   0.00000  Uiso   1.00
O895   O     0.20490   0.56107   0.75001   0.00000  Uiso   1.00
O896   O     0.10947   0.50000   0.82681   0.00000  Uiso   1.00
O897   O     0.18591   0.49999   0.82681   0.00000  Uiso   1.00
O898   O     0.12843   0.43893   0.75000   0.00000  Uiso   1.00
O899   O     0.20488   0.43892   0.74999   0.00000  Uiso   1.00
O900   O     0.14742   0.50001   0.67319   0.00000  Uiso   1.00
O901   O     0.22387   0.50000   0.67319   0.00000  Uiso   1.00
Zn902  Zn    0.11562   0.50001   0.75000   0.00000  Uiso   1.00
Zn903  Zn    0.21771   0.49999   0.75000   0.00000  Uiso   1.00
C904   C     0.09947   0.62534   0.84609   0.00000  Uiso   1.00
H905   H     0.10732   0.59369   0.85543   0.00000  Uiso   1.00
O906   O     0.06418   0.64339   0.87765   0.00000  Uiso   1.00
C907   C     0.02076   0.54116   0.83601   0.00000  Uiso   1.00
H908   H     0.05498   0.55515   0.82973   0.00000  Uiso   1.00
O909   O     0.32322   0.54281   0.88150   0.00000  Uiso   1.00
O910   O     0.26166   0.54669   0.82596   0.00000  Uiso   1.00
C911   C     0.26924   0.58972   0.81270   0.00000  Uiso   1.00
H912   H     0.27094   0.59560   0.77026   0.00000  Uiso   1.00
H913   H     0.30312   0.60138   0.81657   0.00000  Uiso   1.00
C914   C     0.22807   0.61528   0.85202   0.00000  Uiso   1.00
H915   H     0.22873   0.61309   0.89405   0.00000  Uiso   1.00
H916   H     0.23148   0.64874   0.83972   0.00000  Uiso   1.00
H917   H     0.19324   0.60303   0.85182   0.00000  Uiso   1.00
C918   C     0.27394   0.42376   0.89515   0.00000  Uiso   1.00
H919   H     0.27017   0.39972   0.86719   0.00000  Uiso   1.00
O920   O     0.31423   0.43312   0.89348   0.00000  Uiso   1.00
C921   C     0.01693   0.53312   0.53148   0.00000  Uiso   1.00
H922   H     0.32506   0.54085   0.51140   0.00000  Uiso   1.00
O923   O     0.00470   0.53844   0.58080   0.00000  Uiso   1.00
C924   C     0.49962   0.57989   0.75155   0.00000  Uiso   1.00
C925   C     0.47855   0.49123   0.99189   0.00000  Uiso   1.00
C926   C     0.48737   0.47935   0.93750   0.00000  Uiso   1.00
C927   C     0.51593   0.48615   0.51301   0.00000  Uiso   1.00
C928   C     0.55843   0.46303   0.98335   0.00000  Uiso   1.00
C929   C     0.56401   0.44685   0.93093   0.00000  Uiso   1.00
C930   C     0.52775   0.45401   0.90976   0.00000  Uiso   1.00
C931   C     0.51206   0.50424   0.56306   0.00000  Uiso   1.00
C932   C     0.58456   0.46954   0.56151   0.00000  Uiso   1.00
C933   C     0.45605   0.49405   0.91163   0.00000  Uiso   1.00
C934   C     0.53480   0.64441   0.71100   0.00000  Uiso   1.00
C935   C     0.47324   0.49772   0.85220   0.00000  Uiso   1.00
C936   C     0.53528   0.35413   0.70990   0.00000  Uiso   1.00
C937   C     0.49982   0.37615   0.75065   0.00000  Uiso   1.00
C938   C     0.46490   0.35638   0.79366   0.00000  Uiso   1.00
C939   C     0.46527   0.64640   0.79659   0.00000  Uiso   1.00
C940   C     0.49956   0.62418   0.75350   0.00000  Uiso   1.00
C941   C     0.65482   0.47805   0.71126   0.00000  Uiso   1.00
C942   C     0.36937   0.47855   0.71080   0.00000  Uiso   1.00
C943   C     0.34457   0.52095   0.79006   0.00000  Uiso   1.00
C944   C     0.63049   0.52294   0.78809   0.00000  Uiso   1.00
C945   C     0.50013   0.42016   0.74956   0.00000  Uiso   1.00
C946   C     0.52690   0.49970   0.64774   0.00000  Uiso   1.00
C947   C     0.59254   0.45519   0.50854   0.00000  Uiso   1.00
C948   C     0.54368   0.49347   0.58897   0.00000  Uiso   1.00
C949   C     0.41122   0.51106   0.94284   0.00000  Uiso   1.00
C950   C     0.39841   0.51626   0.99910   0.00000  Uiso   1.00
C951   C     0.43238   0.50724   0.52336   0.00000  Uiso   1.00
H952   H     0.60901   0.46026   0.58180   0.00000  Uiso   1.00
H953   H     0.56241   0.37025   0.67705   0.00000  Uiso   1.00
H954   H     0.43908   0.37492   0.82575   0.00000  Uiso   1.00
H955   H     0.64652   0.46035   0.68020   0.00000  Uiso   1.00
H956   H     0.39702   0.46129   0.67929   0.00000  Uiso   1.00
H957   H     0.62390   0.43580   0.98956   0.00000  Uiso   1.00
H958   H     0.48312   0.52561   0.58422   0.00000  Uiso   1.00
H959   H     0.38680   0.52142   0.92323   0.00000  Uiso   1.00
H960   H     0.42149   0.51173   0.56696   0.00000  Uiso   1.00
H961   H     0.53167   0.43980   0.87062   0.00000  Uiso   1.00
H962   H     0.56144   0.62681   0.67861   0.00000  Uiso   1.00
N963   N     0.38093   0.50001   0.75002   0.00000  Uiso   1.00
N964   N     0.61906   0.49998   0.75000   0.00000  Uiso   1.00
O965   O     0.46179   0.56108   0.75001   0.00000  Uiso   1.00
O966   O     0.53823   0.56107   0.75001   0.00000  Uiso   1.00
O967   O     0.44280   0.50000   0.82681   0.00000  Uiso   1.00
O968   O     0.51924   0.49999   0.82681   0.00000  Uiso   1.00
O969   O     0.46177   0.43893   0.75000   0.00000  Uiso   1.00
O970   O     0.53821   0.43892   0.74999   0.00000  Uiso   1.00
O971   O     0.48076   0.50001   0.67319   0.00000  Uiso   1.00
O972   O     0.55720   0.50000   0.67319   0.00000  Uiso   1.00
Zn973  Zn    0.44896   0.50001   0.75000   0.00000  Uiso   1.00
Zn974  Zn    0.55104   0.49999   0.75000   0.00000  Uiso   1.00
C975   C     0.43280   0.62534   0.84609   0.00000  Uiso   1.00
H976   H     0.44066   0.59369   0.85543   0.00000  Uiso   1.00
O977   O     0.39751   0.64339   0.87765   0.00000  Uiso   1.00
C978   C     0.35409   0.54116   0.83601   0.00000  Uiso   1.00
H979   H     0.38831   0.55515   0.82973   0.00000  Uiso   1.00
O980   O     0.65655   0.54281   0.88150   0.00000  Uiso   1.00
O981   O     0.59499   0.54669   0.82596   0.00000  Uiso   1.00
C982   C     0.60257   0.58972   0.81270   0.00000  Uiso   1.00
H983   H     0.60427   0.59560   0.77026   0.00000  Uiso   1.00
H984   H     0.63645   0.60138   0.81657   0.00000  Uiso   1.00
C985   C     0.56140   0.61528   0.85202   0.00000  Uiso   1.00
H986   H     0.56207   0.61309   0.89405   0.00000  Uiso   1.00
H987   H     0.56482   0.64874   0.83972   0.00000  Uiso   1.00
H988   H     0.52657   0.60303   0.85182   0.00000  Uiso   1.00
C989   C     0.60728   0.42376   0.89515   0.00000  Uiso   1.00
H990   H     0.60350   0.39972   0.86719   0.00000  Uiso   1.00
O991   O     0.64756   0.43312   0.89348   0.00000  Uiso   1.00
C992   C     0.35027   0.53312   0.53148   0.00000  Uiso   1.00
H993   H     0.65840   0.54085   0.51140   0.00000  Uiso   1.00
O994   O     0.33803   0.53844   0.58080   0.00000  Uiso   1.00
C995   C     0.83295   0.57989   0.75155   0.00000  Uiso   1.00
C996   C     0.81189   0.49123   0.99189   0.00000  Uiso   1.00
C997   C     0.82070   0.47935   0.93750   0.00000  Uiso   1.00
C998   C     0.84926   0.48615   0.51301   0.00000  Uiso   1.00
C999   C     0.89176   0.46303   0.98335   0.00000  Uiso   1.00
C1000  C     0.89735   0.44685   0.93093   0.00000  Uiso   1.00
C1001  C     0.86109   0.45401   0.90976   0.00000  Uiso   1.00
C1002  C     0.84539   0.50424   0.56306   0.00000  Uiso   1.00
C1003  C     0.91790   0.46954   0.56151   0.00000  Uiso   1.00
C1004  C     0.78939   0.49405   0.91163   0.00000  Uiso   1.00
C1005  C     0.86813   0.64441   0.71100   0.00000  Uiso   1.00
C1006  C     0.80658   0.49772   0.85220   0.00000  Uiso   1.00
C1007  C     0.86861   0.35413   0.70990   0.00000  Uiso   1.00
C1008  C     0.83315   0.37615   0.75065   0.00000  Uiso   1.00
C1009  C     0.79823   0.35638   0.79366   0.00000  Uiso   1.00
C1010  C     0.79860   0.64640   0.79659   0.00000  Uiso   1.00
C1011  C     0.83290   0.62418   0.75350   0.00000  Uiso   1.00
C1012  C     0.98815   0.47805   0.71126   0.00000  Uiso   1.00
C1013  C     0.70270   0.47855   0.71080   0.00000  Uiso   1.00
C1014  C     0.67790   0.52095   0.79006   0.00000  Uiso   1.00
C1015  C     0.96383   0.52294   0.78809   0.00000  Uiso   1.00
C1016  C     0.83346   0.42016   0.74956   0.00000  Uiso   1.00
C1017  C     0.86023   0.49970   0.64774   0.00000  Uiso   1.00
C1018  C     0.92587   0.45519   0.50854   0.00000  Uiso   1.00
C1019  C     0.87701   0.49347   0.58897   0.00000  Uiso   1.00
C1020  C     0.74455   0.51106   0.94284   0.00000  Uiso   1.00
C1021  C     0.73174   0.51626   0.99910   0.00000  Uiso   1.00
C1022  C     0.76571   0.50724   0.52336   0.00000  Uiso   1.00
H1023  H     0.94234   0.46026   0.58180   0.00000  Uiso   1.00
H1024  H     0.89574   0.37025   0.67705   0.00000  Uiso   1.00
H1025  H     0.77241   0.37492   0.82575   0.00000  Uiso   1.00
H1026  H     0.97985   0.46035   0.68020   0.00000  Uiso   1.00
H1027  H     0.73035   0.46129   0.67929   0.00000  Uiso   1.00
H1028  H     0.95724   0.43580   0.98956   0.00000  Uiso   1.00
H1029  H     0.81645   0.52561   0.58422   0.00000  Uiso   1.00
H1030  H     0.72013   0.52142   0.92323   0.00000  Uiso   1.00
H1031  H     0.75482   0.51173   0.56696   0.00000  Uiso   1.00
H1032  H     0.86500   0.43980   0.87062   0.00000  Uiso   1.00
H1033  H     0.89478   0.62681   0.67861   0.00000  Uiso   1.00
N1034  N     0.71426   0.50001   0.75002   0.00000  Uiso   1.00
N1035  N     0.95239   0.49998   0.75000   0.00000  Uiso   1.00
O1036  O     0.79512   0.56108   0.75001   0.00000  Uiso   1.00
O1037  O     0.87157   0.56107   0.75001   0.00000  Uiso   1.00
O1038  O     0.77613   0.50000   0.82681   0.00000  Uiso   1.00
O1039  O     0.85258   0.49999   0.82681   0.00000  Uiso   1.00
O1040  O     0.79510   0.43893   0.75000   0.00000  Uiso   1.00
O1041  O     0.87154   0.43892   0.74999   0.00000  Uiso   1.00
O1042  O     0.81409   0.50001   0.67319   0.00000  Uiso   1.00
O1043  O     0.89053   0.50000   0.67319   0.00000  Uiso   1.00
Zn1044 Zn    0.78229   0.50001   0.75000   0.00000  Uiso   1.00
Zn1045 Zn    0.88438   0.49999   0.75000   0.00000  Uiso   1.00
C1046  C     0.76614   0.62534   0.84609   0.00000  Uiso   1.00
H1047  H     0.77399   0.59369   0.85543   0.00000  Uiso   1.00
O1048  O     0.73084   0.64339   0.87765   0.00000  Uiso   1.00
C1049  C     0.68743   0.54116   0.83601   0.00000  Uiso   1.00
H1050  H     0.72164   0.55515   0.82973   0.00000  Uiso   1.00
O1051  O     0.98989   0.54281   0.88150   0.00000  Uiso   1.00
O1052  O     0.92833   0.54669   0.82596   0.00000  Uiso   1.00
C1053  C     0.93591   0.58972   0.81270   0.00000  Uiso   1.00
H1054  H     0.93761   0.59560   0.77026   0.00000  Uiso   1.00
H1055  H     0.96978   0.60138   0.81657   0.00000  Uiso   1.00
C1056  C     0.89473   0.61528   0.85202   0.00000  Uiso   1.00
H1057  H     0.89540   0.61309   0.89405   0.00000  Uiso   1.00
H1058  H     0.89815   0.64874   0.83972   0.00000  Uiso   1.00
H1059  H     0.85990   0.60303   0.85182   0.00000  Uiso   1.00
C1060  C     0.94061   0.42376   0.89515   0.00000  Uiso   1.00
H1061  H     0.93683   0.39972   0.86719   0.00000  Uiso   1.00
O1062  O     0.98090   0.43312   0.89348   0.00000  Uiso   1.00
C1063  C     0.68360   0.53312   0.53148   0.00000  Uiso   1.00
H1064  H     0.99173   0.54085   0.51140   0.00000  Uiso   1.00
O1065  O     0.67136   0.53844   0.58080   0.00000  Uiso   1.00
C1066  C     0.16629   0.91322   0.75155   0.00000  Uiso   1.00
C1067  C     0.14522   0.82456   0.99189   0.00000  Uiso   1.00
C1068  C     0.15404   0.81268   0.93750   0.00000  Uiso   1.00
C1069  C     0.18259   0.81948   0.51301   0.00000  Uiso   1.00
C1070  C     0.22510   0.79636   0.98335   0.00000  Uiso   1.00
C1071  C     0.23068   0.78018   0.93093   0.00000  Uiso   1.00
C1072  C     0.19442   0.78734   0.90976   0.00000  Uiso   1.00
C1073  C     0.17872   0.83757   0.56306   0.00000  Uiso   1.00
C1074  C     0.25123   0.80288   0.56151   0.00000  Uiso   1.00
C1075  C     0.12272   0.82738   0.91163   0.00000  Uiso   1.00
C1076  C     0.20146   0.97774   0.71100   0.00000  Uiso   1.00
C1077  C     0.13991   0.83106   0.85220   0.00000  Uiso   1.00
C1078  C     0.20194   0.68746   0.70990   0.00000  Uiso   1.00
C1079  C     0.16649   0.70948   0.75065   0.00000  Uiso   1.00
C1080  C     0.13157   0.68971   0.79366   0.00000  Uiso   1.00
C1081  C     0.13194   0.97973   0.79659   0.00000  Uiso   1.00
C1082  C     0.16623   0.95751   0.75350   0.00000  Uiso   1.00
C1083  C     0.32148   0.81139   0.71126   0.00000  Uiso   1.00
C1084  C     0.03604   0.81189   0.71080   0.00000  Uiso   1.00
C1085  C     0.01124   0.85428   0.79006   0.00000  Uiso   1.00
C1086  C     0.29716   0.85627   0.78809   0.00000  Uiso   1.00
C1087  C     0.16680   0.75349   0.74956   0.00000  Uiso   1.00
C1088  C     0.19356   0.83303   0.64774   0.00000  Uiso   1.00
C1089  C     0.25920   0.78852   0.50854   0.00000  Uiso   1.00
C1090  C     0.21035   0.82681   0.58897   0.00000  Uiso   1.00
C1091  C     0.07789   0.84439   0.94284   0.00000  Uiso   1.00
C1092  C     0.06508   0.84960   0.99910   0.00000  Uiso   1.00
C1093  C     0.09904   0.84057   0.52336   0.00000  Uiso   1.00
H1094  H     0.27567   0.79359   0.58180   0.00000  Uiso   1.00
H1095  H     0.22907   0.70358   0.67705   0.00000  Uiso   1.00
H1096  H     0.10575   0.70826   0.82575   0.00000  Uiso   1.00
H1097  H     0.31319   0.79368   0.68020   0.00000  Uiso   1.00
H1098  H     0.06369   0.79462   0.67929   0.00000  Uiso   1.00
H1099  H     0.29057   0.76913   0.98956   0.00000  Uiso   1.00
H1100  H     0.14978   0.85894   0.58422   0.00000  Uiso   1.00
H1101  H     0.05346   0.85475   0.92323   0.00000  Uiso   1.00
H1102  H     0.08816   0.84507   0.56696   0.00000  Uiso   1.00
H1103  H     0.19834   0.77313   0.87062   0.00000  Uiso   1.00
H1104  H     0.22811   0.96014   0.67861   0.00000  Uiso   1.00
N1105  N     0.04760   0.83334   0.75002   0.00000  Uiso   1.00
N1106  N     0.28573   0.83331   0.75000   0.00000  Uiso   1.00
O1107  O     0.12846   0.89442   0.75001   0.00000  Uiso   1.00
O1108  O     0.20490   0.89441   0.75001   0.00000  Uiso   1.00
O1109  O     0.10947   0.83333   0.82681   0.00000  Uiso   1.00
O1110  O     0.18591   0.83332   0.82681   0.00000  Uiso   1.00
O1111  O     0.12843   0.77226   0.75000   0.00000  Uiso   1.00
O1112  O     0.20488   0.77225   0.74999   0.00000  Uiso   1.00
O1113  O     0.14742   0.83335   0.67319   0.00000  Uiso   1.00
O1114  O     0.22387   0.83334   0.67319   0.00000  Uiso   1.00
Zn1115 Zn    0.11562   0.83334   0.75000   0.00000  Uiso   1.00
Zn1116 Zn    0.21771   0.83333   0.75000   0.00000  Uiso   1.00
C1117  C     0.09947   0.95867   0.84609   0.00000  Uiso   1.00
H1118  H     0.10732   0.92703   0.85543   0.00000  Uiso   1.00
O1119  O     0.06418   0.97672   0.87765   0.00000  Uiso   1.00
C1120  C     0.02076   0.87449   0.83601   0.00000  Uiso   1.00
H1121  H     0.05498   0.88848   0.82973   0.00000  Uiso   1.00
O1122  O     0.32322   0.87614   0.88150   0.00000  Uiso   1.00
O1123  O     0.26166   0.88003   0.82596   0.00000  Uiso   1.00
C1124  C     0.26924   0.92305   0.81270   0.00000  Uiso   1.00
H1125  H     0.27094   0.92894   0.77026   0.00000  Uiso   1.00
H1126  H     0.30312   0.93471   0.81657   0.00000  Uiso   1.00
C1127  C     0.22807   0.94862   0.85202   0.00000  Uiso   1.00
H1128  H     0.22873   0.94643   0.89405   0.00000  Uiso   1.00
H1129  H     0.23148   0.98208   0.83972   0.00000  Uiso   1.00
H1130  H     0.19324   0.93637   0.85182   0.00000  Uiso   1.00
C1131  C     0.27394   0.75709   0.89515   0.00000  Uiso   1.00
H1132  H     0.27017   0.73306   0.86719   0.00000  Uiso   1.00
O1133  O     0.31423   0.76645   0.89348   0.00000  Uiso   1.00
C1134  C     0.01693   0.86645   0.53148   0.00000  Uiso   1.00
H1135  H     0.32506   0.87419   0.51140   0.00000  Uiso   1.00
O1136  O     0.00470   0.87178   0.58080   0.00000  Uiso   1.00
C1137  C     0.49962   0.91322   0.75155   0.00000  Uiso   1.00
C1138  C     0.47855   0.82456   0.99189   0.00000  Uiso   1.00
C1139  C     0.48737   0.81268   0.93750   0.00000  Uiso   1.00
C1140  C     0.51593   0.81948   0.51301   0.00000  Uiso   1.00
C1141  C     0.55843   0.79636   0.98335   0.00000  Uiso   1.00
C1142  C     0.56401   0.78018   0.93093   0.00000  Uiso   1.00
C1143  C     0.52775   0.78734   0.90976   0.00000  Uiso   1.00
C1144  C     0.51206   0.83757   0.56306   0.00000  Uiso   1.00
C1145  C     0.58456   0.80288   0.56151   0.00000  Uiso   1.00
C1146  C     0.45605   0.82738   0.91163   0.00000  Uiso   1.00
C1147  C     0.53480   0.97774   0.71100   0.00000  Uiso   1.00
C1148  C     0.47324   0.83106   0.85220   0.00000  Uiso   1.00
C1149  C     0.53528   0.68746   0.70990   0.00000  Uiso   1.00
C1150  C     0.49982   0.70948   0.75065   0.00000  Uiso   1.00
C1151  C     0.46490   0.68971   0.79366   0.00000  Uiso   1.00
C1152  C     0.46527   0.97973   0.79659   0.00000  Uiso   1.00
C1153  C     0.49956   0.95751   0.75350   0.00000  Uiso   1.00
C1154  C     0.65482   0.81139   0.71126   0.00000  Uiso   1.00
C1155  C     0.36937   0.81189   0.71080   0.00000  Uiso   1.00
C1156  C     0.34457   0.85428   0.79006   0.00000  Uiso   1.00
C1157  C     0.63049   0.85627   0.78809   0.00000  Uiso   1.00
C1158  C     0.50013   0.75349   0.74956   0.00000  Uiso   1.00
C1159  C     0.52690   0.83303   0.64774   0.00000  Uiso   1.00
C1160  C     0.59254   0.78852   0.50854   0.00000  Uiso   1.00
C1161  C     0.54368   0.82681   0.58897   0.00000  Uiso   1.00
C1162  C     0.41122   0.84439   0.94284   0.00000  Uiso   1.00
C1163  C     0.39841   0.84960   0.99910   0.00000  Uiso   1.00
C1164  C     0.43238   0.84057   0.52336   0.00000  Uiso   1.00
H1165  H     0.60901   0.79359   0.58180   0.00000  Uiso   1.00
H1166  H     0.56241   0.70358   0.67705   0.00000  Uiso   1.00
H1167  H     0.43908   0.70826   0.82575   0.00000  Uiso   1.00
H1168  H     0.64652   0.79368   0.68020   0.00000  Uiso   1.00
H1169  H     0.39702   0.79462   0.67929   0.00000  Uiso   1.00
H1170  H     0.62390   0.76913   0.98956   0.00000  Uiso   1.00
H1171  H     0.48312   0.85894   0.58422   0.00000  Uiso   1.00
H1172  H     0.38680   0.85475   0.92323   0.00000  Uiso   1.00
H1173  H     0.42149   0.84507   0.56696   0.00000  Uiso   1.00
H1174  H     0.53167   0.77313   0.87062   0.00000  Uiso   1.00
H1175  H     0.56144   0.96014   0.67861   0.00000  Uiso   1.00
N1176  N     0.38093   0.83334   0.75002   0.00000  Uiso   1.00
N1177  N     0.61906   0.83331   0.75000   0.00000  Uiso   1.00
O1178  O     0.46179   0.89442   0.75001   0.00000  Uiso   1.00
O1179  O     0.53823   0.89441   0.75001   0.00000  Uiso   1.00
O1180  O     0.44280   0.83333   0.82681   0.00000  Uiso   1.00
O1181  O     0.51924   0.83332   0.82681   0.00000  Uiso   1.00
O1182  O     0.46177   0.77226   0.75000   0.00000  Uiso   1.00
O1183  O     0.53821   0.77225   0.74999   0.00000  Uiso   1.00
O1184  O     0.48076   0.83335   0.67319   0.00000  Uiso   1.00
O1185  O     0.55720   0.83334   0.67319   0.00000  Uiso   1.00
Zn1186 Zn    0.44896   0.83334   0.75000   0.00000  Uiso   1.00
Zn1187 Zn    0.55104   0.83333   0.75000   0.00000  Uiso   1.00
C1188  C     0.43280   0.95867   0.84609   0.00000  Uiso   1.00
H1189  H     0.44066   0.92703   0.85543   0.00000  Uiso   1.00
O1190  O     0.39751   0.97672   0.87765   0.00000  Uiso   1.00
C1191  C     0.35409   0.87449   0.83601   0.00000  Uiso   1.00
H1192  H     0.38831   0.88848   0.82973   0.00000  Uiso   1.00
O1193  O     0.65655   0.87614   0.88150   0.00000  Uiso   1.00
O1194  O     0.59499   0.88003   0.82596   0.00000  Uiso   1.00
C1195  C     0.60257   0.92305   0.81270   0.00000  Uiso   1.00
H1196  H     0.60427   0.92894   0.77026   0.00000  Uiso   1.00
H1197  H     0.63645   0.93471   0.81657   0.00000  Uiso   1.00
C1198  C     0.56140   0.94862   0.85202   0.00000  Uiso   1.00
H1199  H     0.56207   0.94643   0.89405   0.00000  Uiso   1.00
H1200  H     0.56482   0.98208   0.83972   0.00000  Uiso   1.00
H1201  H     0.52657   0.93637   0.85182   0.00000  Uiso   1.00
C1202  C     0.60728   0.75709   0.89515   0.00000  Uiso   1.00
H1203  H     0.60350   0.73306   0.86719   0.00000  Uiso   1.00
O1204  O     0.64756   0.76645   0.89348   0.00000  Uiso   1.00
C1205  C     0.35027   0.86645   0.53148   0.00000  Uiso   1.00
H1206  H     0.65840   0.87419   0.51140   0.00000  Uiso   1.00
O1207  O     0.33803   0.87178   0.58080   0.00000  Uiso   1.00
C1208  C     0.83295   0.91322   0.75155   0.00000  Uiso   1.00
C1209  C     0.81189   0.82456   0.99189   0.00000  Uiso   1.00
C1210  C     0.82070   0.81268   0.93750   0.00000  Uiso   1.00
C1211  C     0.84926   0.81948   0.51301   0.00000  Uiso   1.00
C1212  C     0.89176   0.79636   0.98335   0.00000  Uiso   1.00
C1213  C     0.89735   0.78018   0.93093   0.00000  Uiso   1.00
C1214  C     0.86109   0.78734   0.90976   0.00000  Uiso   1.00
C1215  C     0.84539   0.83757   0.56306   0.00000  Uiso   1.00
C1216  C     0.91790   0.80288   0.56151   0.00000  Uiso   1.00
C1217  C     0.78939   0.82738   0.91163   0.00000  Uiso   1.00
C1218  C     0.86813   0.97774   0.71100   0.00000  Uiso   1.00
C1219  C     0.80658   0.83106   0.85220   0.00000  Uiso   1.00
C1220  C     0.86861   0.68746   0.70990   0.00000  Uiso   1.00
C1221  C     0.83315   0.70948   0.75065   0.00000  Uiso   1.00
C1222  C     0.79823   0.68971   0.79366   0.00000  Uiso   1.00
C1223  C     0.79860   0.97973   0.79659   0.00000  Uiso   1.00
C1224  C     0.83290   0.95751   0.75350   0.00000  Uiso   1.00
C1225  C     0.98815   0.81139   0.71126   0.00000  Uiso   1.00
C1226  C     0.70270   0.81189   0.71080   0.00000  Uiso   1.00
C1227  C     0.67790   0.85428   0.79006   0.00000  Uiso   1.00
C1228  C     0.96383   0.85627   0.78809   0.00000  Uiso   1.00
C1229  C     0.83346   0.75349   0.74956   0.00000  Uiso   1.00
C1230  C     0.86023   0.83303   0.64774   0.00000  Uiso   1.00
C1231  C     0.92587   0.78852   0.50854   0.00000  Uiso   1.00
C1232  C     0.87701   0.82681   0.58897   0.00000  Uiso   1.00
C1233  C     0.74455   0.84439   0.94284   0.00000  Uiso   1.00
C1234  C     0.73174   0.84960   0.99910   0.00000  Uiso   1.00
C1235  C     0.76571   0.84057   0.52336   0.00000  Uiso   1.00
H1236  H     0.94234   0.79359   0.58180   0.00000  Uiso   1.00
H1237  H     0.89574   0.70358   0.67705   0.00000  Uiso   1.00
H1238  H     0.77241   0.70826   0.82575   0.00000  Uiso   1.00
H1239  H     0.97985   0.79368   0.68020   0.00000  Uiso   1.00
H1240  H     0.73035   0.79462   0.67929   0.00000  Uiso   1.00
H1241  H     0.95724   0.76913   0.98956   0.00000  Uiso   1.00
H1242  H     0.81645   0.85894   0.58422   0.00000  Uiso   1.00
H1243  H     0.72013   0.85475   0.92323   0.00000  Uiso   1.00
H1244  H     0.75482   0.84507   0.56696   0.00000  Uiso   1.00
H1245  H     0.86500   0.77313   0.87062   0.00000  Uiso   1.00
H1246  H     0.89478   0.96014   0.67861   0.00000  Uiso   1.00
N1247  N     0.71426   0.83334   0.75002   0.00000  Uiso   1.00
N1248  N     0.95239   0.83331   0.75000   0.00000  Uiso   1.00
O1249  O     0.79512   0.89442   0.75001   0.00000  Uiso   1.00
O1250  O     0.87157   0.89441   0.75001   0.00000  Uiso   1.00
O1251  O     0.77613   0.83333   0.82681   0.00000  Uiso   1.00
O1252  O     0.85258   0.83332   0.82681   0.00000  Uiso   1.00
O1253  O     0.79510   0.77226   0.75000   0.00000  Uiso   1.00
O1254  O     0.87154   0.77225   0.74999   0.00000  Uiso   1.00
O1255  O     0.81409   0.83335   0.67319   0.00000  Uiso   1.00
O1256  O     0.89053   0.83334   0.67319   0.00000  Uiso   1.00
Zn1257 Zn    0.78229   0.83334   0.75000   0.00000  Uiso   1.00
Zn1258 Zn    0.88438   0.83333   0.75000   0.00000  Uiso   1.00
C1259  C     0.76614   0.95867   0.84609   0.00000  Uiso   1.00
H1260  H     0.77399   0.92703   0.85543   0.00000  Uiso   1.00
O1261  O     0.73084   0.97672   0.87765   0.00000  Uiso   1.00
C1262  C     0.68743   0.87449   0.83601   0.00000  Uiso   1.00
H1263  H     0.72164   0.88848   0.82973   0.00000  Uiso   1.00
O1264  O     0.98989   0.87614   0.88150   0.00000  Uiso   1.00
O1265  O     0.92833   0.88003   0.82596   0.00000  Uiso   1.00
C1266  C     0.93591   0.92305   0.81270   0.00000  Uiso   1.00
H1267  H     0.93761   0.92894   0.77026   0.00000  Uiso   1.00
H1268  H     0.96978   0.93471   0.81657   0.00000  Uiso   1.00
C1269  C     0.89473   0.94862   0.85202   0.00000  Uiso   1.00
H1270  H     0.89540   0.94643   0.89405   0.00000  Uiso   1.00
H1271  H     0.89815   0.98208   0.83972   0.00000  Uiso   1.00
H1272  H     0.85990   0.93637   0.85182   0.00000  Uiso   1.00
C1273  C     0.94061   0.75709   0.89515   0.00000  Uiso   1.00
H1274  H     0.93683   0.73306   0.86719   0.00000  Uiso   1.00
O1275  O     0.98090   0.76645   0.89348   0.00000  Uiso   1.00
C1276  C     0.68360   0.86645   0.53148   0.00000  Uiso   1.00
H1277  H     0.99173   0.87419   0.51140   0.00000  Uiso   1.00
O1278  O     0.67136   0.87178   0.58080   0.00000  Uiso   1.00
loop_
_geom_bond_atom_site_label_1
_geom_bond_atom_site_label_2
_geom_bond_distance
_geom_bond_site_symmetry_2
_ccdc_geom_bond_type
C1     O42     1.287   .     A
C1     C17     1.410   .     S
C1     O43     1.283   .     A
C2     C3      1.401   .     A
C2     C643    1.415   .     S
C2     C667    1.420   .     S
C3     C10     1.413   .     A
C3     C7      1.411   .     A
C4     C8      1.392   .     A
C4     C641    1.415   1_554 S
C4     C644    1.427   1_554 S
C5     C6      1.414   .     A
C5     C643    1.427   .     S
C5     C663    1.415   .     S
C6     C7      1.395   .     A
C6     C66     1.485   .     S
C7     H38     1.083   .     S
C8     C25     1.385   .     A
C8     H35     1.080   .     S
C9     C24     1.393   .     A
C9     H29     1.083   .     S
C9     C25     1.395   .     A
C10    C26     1.400   .     A
C10    C12     1.463   .     S
C11    H39     1.085   .     S
C11    C17     1.395   .     A
C11    C226    1.371   .     S
C12    O44     1.301   .     A
C12    O45     1.296   .     A
C13    C14     1.389   .     A
C13    H30     1.084   .     S
C13    C437    1.371   1_545 S
C14    C22     1.402   .     S
C14    C15     1.391   .     A
C15    H31     1.085   .     S
C15    C442    1.382   1_545 S
C16    C17     1.408   .     A
C16    C52     1.483   .     S
C16    C228    1.382   .     S
C18    H32     1.082   .     S
C18    N41     1.367   .     A
C18    C90     1.420   .     S
C19    H33     1.082   .     S
C19    N40     1.368   .     A
C19    C160    1.420   1_455 S
C20    C55     1.471   .     S
C20    N40     1.377   .     A
C20    C163    1.430   1_455 S
C21    O58     1.383   .     S
C21    N41     1.366   .     A
C21    C91     1.430   .     S
C22    O46     1.284   .     A
C22    O47     1.284   .     A
C23    C25     1.452   .     S
C23    O49     1.296   .     A
C23    O48     1.297   .     A
C24    C644    1.415   1_554 S
C24    H673    1.079   1_554 S
C26    C27     1.393   .     A
C26    H36     1.080   .     S
C27    C667    1.401   .     S
C27    C708    1.480   .     S
C28    H37     1.079   .     S
C28    C641    1.420   1_554 S
C28    C666    1.401   1_554 S
H34    C663    1.079   .     S
N40    Zn50    2.023   .     S
N41    Zn51    2.023   .     S
O42    Zn50    1.982   .     S
O43    Zn51    1.981   .     S
O44    Zn50    1.954   .     S
O45    Zn51    1.897   .     S
O46    Zn50    1.981   .     S
O47    Zn51    1.982   .     S
O48    Zn50    1.897   .     S
O49    Zn51    1.954   .     S
C52    H53     1.084   .     S
C52    O54     1.221   .     D
C55    H56     1.070   .     S
C55    O199    1.222   1_455 S
O57    C126    1.222   .     S
O58    C59     1.416   .     S
C59    H60     1.113   .     S
C59    H61     1.111   .     S
C59    C62     1.521   .     S
C62    H64     1.111   .     S
C62    H63     1.111   .     S
C62    H65     1.109   .     S
C66    O68     1.221   .     D
C66    H67     1.086   .     S
C69    O71     1.221   .     D
C69    C666    1.480   1_554 S
C69    H212    1.086   1_455 S
H70    C140    1.086   .     S
C72    O113    1.287   .     A
C72    C88     1.410   .     S
C72    O114    1.283   .     A
C73    C74     1.401   .     A
C73    C714    1.415   .     S
C73    C738    1.420   .     S
C74    C81     1.413   .     A
C74    C78     1.411   .     A
C75    C79     1.392   .     A
C75    C712    1.415   1_554 S
C75    C715    1.427   1_554 S
C76    C77     1.414   .     A
C76    C714    1.427   .     S
C76    C734    1.415   .     S
C77    C78     1.395   .     A
C77    C137    1.485   .     S
C78    H109    1.083   .     S
C79    C96     1.385   .     A
C79    H106    1.080   .     S
C80    C95     1.393   .     A
C80    H100    1.083   .     S
C80    C96     1.395   .     A
C81    C97     1.400   .     A
C81    C83     1.463   .     S
C82    H110    1.085   .     S
C82    C88     1.395   .     A
C82    C297    1.371   .     S
C83    O115    1.301   .     A
C83    O116    1.296   .     A
C84    C85     1.389   .     A
C84    H101    1.084   .     S
C84    C508    1.371   1_545 S
C85    C93     1.402   .     S
C85    C86     1.391   .     A
C86    H102    1.085   .     S
C86    C513    1.382   1_545 S
C87    C88     1.408   .     A
C87    C123    1.483   .     S
C87    C299    1.382   .     S
C89    H103    1.082   .     S
C89    N112    1.367   .     A
C89    C161    1.420   .     S
C90    H104    1.082   .     S
C90    N111    1.368   .     A
C91    C126    1.471   .     S
C91    N111    1.377   .     A
C92    O129    1.383   .     S
C92    N112    1.366   .     A
C92    C162    1.430   .     S
C93    O117    1.284   .     A
C93    O118    1.284   .     A
C94    C96     1.452   .     S
C94    O120    1.296   .     A
C94    O119    1.297   .     A
C95    C715    1.415   1_554 S
C95    H744    1.079   1_554 S
C97    C98     1.393   .     A
C97    H107    1.080   .     S
C98    C738    1.401   .     S
C98    C779    1.480   .     S
C99    H108    1.079   .     S
C99    C712    1.420   1_554 S
C99    C737    1.401   1_554 S
H105   C734    1.079   .     S
N111   Zn121   2.023   .     S
N112   Zn122   2.023   .     S
O113   Zn121   1.982   .     S
O114   Zn122   1.981   .     S
O115   Zn121   1.954   .     S
O116   Zn122   1.897   .     S
O117   Zn121   1.981   .     S
O118   Zn122   1.982   .     S
O119   Zn121   1.897   .     S
O120   Zn122   1.954   .     S
C123   H124    1.084   .     S
C123   O125    1.221   .     D
C126   H127    1.070   .     S
O128   C197    1.222   .     S
O129   C130    1.416   .     S
C130   H131    1.113   .     S
C130   H132    1.111   .     S
C130   C133    1.521   .     S
C133   H135    1.111   .     S
C133   H134    1.111   .     S
C133   H136    1.109   .     S
C137   O139    1.221   .     D
C137   H138    1.086   .     S
C140   O142    1.221   .     D
C140   C737    1.480   1_554 S
H141   C211    1.086   .     S
C143   O184    1.287   .     A
C143   C159    1.410   .     S
C143   O185    1.283   .     A
C144   C145    1.401   .     A
C144   C785    1.415   .     S
C144   C809    1.420   .     S
C145   C152    1.413   .     A
C145   C149    1.411   .     A
C146   C150    1.392   .     A
C146   C783    1.415   1_554 S
C146   C786    1.427   1_554 S
C147   C148    1.414   .     A
C147   C785    1.427   .     S
C147   C805    1.415   .     S
C148   C149    1.395   .     A
C148   C208    1.485   .     S
C149   H180    1.083   .     S
C150   C167    1.385   .     A
C150   H177    1.080   .     S
C151   C166    1.393   .     A
C151   H171    1.083   .     S
C151   C167    1.395   .     A
C152   C168    1.400   .     A
C152   C154    1.463   .     S
C153   H181    1.085   .     S
C153   C159    1.395   .     A
C153   C368    1.371   .     S
C154   O186    1.301   .     A
C154   O187    1.296   .     A
C155   C156    1.389   .     A
C155   H172    1.084   .     S
C155   C579    1.371   1_545 S
C156   C164    1.402   .     S
C156   C157    1.391   .     A
C157   H173    1.085   .     S
C157   C584    1.382   1_545 S
C158   C159    1.408   .     A
C158   C194    1.483   .     S
C158   C370    1.382   .     S
C160   H174    1.082   .     S
C160   N183    1.367   .     A
C160   C19     1.420   1_655 S
C161   H175    1.082   .     S
C161   N182    1.368   .     A
C162   C197    1.471   .     S
C162   N182    1.377   .     A
C163   O200    1.383   .     S
C163   N183    1.366   .     A
C163   C20     1.430   1_655 S
C164   O188    1.284   .     A
C164   O189    1.284   .     A
C165   C167    1.452   .     S
C165   O191    1.296   .     A
C165   O190    1.297   .     A
C166   C786    1.415   1_554 S
C166   H815    1.079   1_554 S
C168   C169    1.393   .     A
C168   H178    1.080   .     S
C169   C809    1.401   .     S
C169   C850    1.480   .     S
C170   H179    1.079   .     S
C170   C783    1.420   1_554 S
C170   C808    1.401   1_554 S
H176   C805    1.079   .     S
N182   Zn192   2.023   .     S
N183   Zn193   2.023   .     S
O184   Zn192   1.982   .     S
O185   Zn193   1.981   .     S
O186   Zn192   1.954   .     S
O187   Zn193   1.897   .     S
O188   Zn192   1.981   .     S
O189   Zn193   1.982   .     S
O190   Zn192   1.897   .     S
O191   Zn193   1.954   .     S
C194   H195    1.084   .     S
C194   O196    1.221   .     D
C197   H198    1.070   .     S
O199   C55     1.222   1_655 S
O200   C201    1.416   .     S
C201   H202    1.113   .     S
C201   H203    1.111   .     S
C201   C204    1.521   .     S
C204   H206    1.111   .     S
C204   H205    1.111   .     S
C204   H207    1.109   .     S
C208   O210    1.221   .     D
C208   H209    1.086   .     S
C211   O213    1.221   .     D
C211   C808    1.480   1_554 S
H212   C69     1.086   1_655 S
C214   O255    1.287   .     A
C214   C230    1.410   .     S
C214   O256    1.283   .     A
C215   C216    1.401   .     A
C215   C856    1.415   .     S
C215   C880    1.420   .     S
C216   C223    1.413   .     A
C216   C220    1.411   .     A
C217   C221    1.392   .     A
C217   C854    1.415   1_554 S
C217   C857    1.427   1_554 S
C218   C219    1.414   .     A
C218   C856    1.427   .     S
C218   C876    1.415   .     S
C219   C220    1.395   .     A
C219   C279    1.485   .     S
C220   H251    1.083   .     S
C221   C238    1.385   .     A
C221   H248    1.080   .     S
C222   C237    1.393   .     A
C222   H242    1.083   .     S
C222   C238    1.395   .     A
C223   C239    1.400   .     A
C223   C225    1.463   .     S
C224   H252    1.085   .     S
C224   C230    1.395   .     A
C224   C439    1.371   .     S
C225   O257    1.301   .     A
C225   O258    1.296   .     A
C226   C227    1.389   .     A
C226   H243    1.084   .     S
C227   C235    1.402   .     S
C227   C228    1.391   .     A
C228   H244    1.085   .     S
C229   C230    1.408   .     A
C229   C265    1.483   .     S
C229   C441    1.382   .     S
C231   H245    1.082   .     S
C231   N254    1.367   .     A
C231   C303    1.420   .     S
C232   H246    1.082   .     S
C232   N253    1.368   .     A
C232   C373    1.420   1_455 S
C233   C268    1.471   .     S
C233   N253    1.377   .     A
C233   C376    1.430   1_455 S
C234   O271    1.383   .     S
C234   N254    1.366   .     A
C234   C304    1.430   .     S
C235   O259    1.284   .     A
C235   O260    1.284   .     A
C236   C238    1.452   .     S
C236   O262    1.296   .     A
C236   O261    1.297   .     A
C237   C857    1.415   1_554 S
C237   H886    1.079   1_554 S
C239   C240    1.393   .     A
C239   H249    1.080   .     S
C240   C880    1.401   .     S
C240   C921    1.480   .     S
C241   H250    1.079   .     S
C241   C854    1.420   1_554 S
C241   C879    1.401   1_554 S
H247   C876    1.079   .     S
N253   Zn263   2.023   .     S
N254   Zn264   2.023   .     S
O255   Zn263   1.982   .     S
O256   Zn264   1.981   .     S
O257   Zn263   1.954   .     S
O258   Zn264   1.897   .     S
O259   Zn263   1.981   .     S
O260   Zn264   1.982   .     S
O261   Zn263   1.897   .     S
O262   Zn264   1.954   .     S
C265   H266    1.084   .     S
C265   O267    1.221   .     D
C268   H269    1.070   .     S
C268   O412    1.222   1_455 S
O270   C339    1.222   .     S
O271   C272    1.416   .     S
C272   H273    1.113   .     S
C272   H274    1.111   .     S
C272   C275    1.521   .     S
C275   H277    1.111   .     S
C275   H276    1.111   .     S
C275   H278    1.109   .     S
C279   O281    1.221   .     D
C279   H280    1.086   .     S
C282   O284    1.221   .     D
C282   C879    1.480   1_554 S
C282   H425    1.086   1_455 S
H283   C353    1.086   .     S
C285   O326    1.287   .     A
C285   C301    1.410   .     S
C285   O327    1.283   .     A
C286   C287    1.401   .     A
C286   C927    1.415   .     S
C286   C951    1.420   .     S
C287   C294    1.413   .     A
C287   C291    1.411   .     A
C288   C292    1.392   .     A
C288   C925    1.415   1_554 S
C288   C928    1.427   1_554 S
C289   C290    1.414   .     A
C289   C927    1.427   .     S
C289   C947    1.415   .     S
C290   C291    1.395   .     A
C290   C350    1.485   .     S
C291   H322    1.083   .     S
C292   C309    1.385   .     A
C292   H319    1.080   .     S
C293   C308    1.393   .     A
C293   H313    1.083   .     S
C293   C309    1.395   .     A
C294   C310    1.400   .     A
C294   C296    1.463   .     S
C295   H323    1.085   .     S
C295   C301    1.395   .     A
C295   C510    1.371   .     S
C296   O328    1.301   .     A
C296   O329    1.296   .     A
C297   C298    1.389   .     A
C297   H314    1.084   .     S
C298   C306    1.402   .     S
C298   C299    1.391   .     A
C299   H315    1.085   .     S
C300   C301    1.408   .     A
C300   C336    1.483   .     S
C300   C512    1.382   .     S
C302   H316    1.082   .     S
C302   N325    1.367   .     A
C302   C374    1.420   .     S
C303   H317    1.082   .     S
C303   N324    1.368   .     A
C304   C339    1.471   .     S
C304   N324    1.377   .     A
C305   O342    1.383   .     S
C305   N325    1.366   .     A
C305   C375    1.430   .     S
C306   O330    1.284   .     A
C306   O331    1.284   .     A
C307   C309    1.452   .     S
C307   O333    1.296   .     A
C307   O332    1.297   .     A
C308   C928    1.415   1_554 S
C308   H957    1.079   1_554 S
C310   C311    1.393   .     A
C310   H320    1.080   .     S
C311   C951    1.401   .     S
C311   C992    1.480   .     S
C312   H321    1.079   .     S
C312   C925    1.420   1_554 S
C312   C950    1.401   1_554 S
H318   C947    1.079   .     S
N324   Zn334   2.023   .     S
N325   Zn335   2.023   .     S
O326   Zn334   1.982   .     S
O327   Zn335   1.981   .     S
O328   Zn334   1.954   .     S
O329   Zn335   1.897   .     S
O330   Zn334   1.981   .     S
O331   Zn335   1.982   .     S
O332   Zn334   1.897   .     S
O333   Zn335   1.954   .     S
C336   H337    1.084   .     S
C336   O338    1.221   .     D
C339   H340    1.070   .     S
O341   C410    1.222   .     S
O342   C343    1.416   .     S
C343   H344    1.113   .     S
C343   H345    1.111   .     S
C343   C346    1.521   .     S
C346   H348    1.111   .     S
C346   H347    1.111   .     S
C346   H349    1.109   .     S
C350   O352    1.221   .     D
C350   H351    1.086   .     S
C353   O355    1.221   .     D
C353   C950    1.480   1_554 S
H354   C424    1.086   .     S
C356   O397    1.287   .     A
C356   C372    1.410   .     S
C356   O398    1.283   .     A
C357   C358    1.401   .     A
C357   C998    1.415   .     S
C357   C1022   1.420   .     S
C358   C365    1.413   .     A
C358   C362    1.411   .     A
C359   C363    1.392   .     A
C359   C996    1.415   1_554 S
C359   C999    1.427   1_554 S
C360   C361    1.414   .     A
C360   C998    1.427   .     S
C360   C1018   1.415   .     S
C361   C362    1.395   .     A
C361   C421    1.485   .     S
C362   H393    1.083   .     S
C363   C380    1.385   .     A
C363   H390    1.080   .     S
C364   C379    1.393   .     A
C364   H384    1.083   .     S
C364   C380    1.395   .     A
C365   C381    1.400   .     A
C365   C367    1.463   .     S
C366   H394    1.085   .     S
C366   C372    1.395   .     A
C366   C581    1.371   .     S
C367   O399    1.301   .     A
C367   O400    1.296   .     A
C368   C369    1.389   .     A
C368   H385    1.084   .     S
C369   C377    1.402   .     S
C369   C370    1.391   .     A
C370   H386    1.085   .     S
C371   C372    1.408   .     A
C371   C407    1.483   .     S
C371   C583    1.382   .     S
C373   H387    1.082   .     S
C373   N396    1.367   .     A
C373   C232    1.420   1_655 S
C374   H388    1.082   .     S
C374   N395    1.368   .     A
C375   C410    1.471   .     S
C375   N395    1.377   .     A
C376   O413    1.383   .     S
C376   N396    1.366   .     A
C376   C233    1.430   1_655 S
C377   O401    1.284   .     A
C377   O402    1.284   .     A
C378   C380    1.452   .     S
C378   O404    1.296   .     A
C378   O403    1.297   .     A
C379   C999    1.415   1_554 S
C379   H1028   1.079   1_554 S
C381   C382    1.393   .     A
C381   H391    1.080   .     S
C382   C1022   1.401   .     S
C382   C1063   1.480   .     S
C383   H392    1.079   .     S
C383   C996    1.420   1_554 S
C383   C1021   1.401   1_554 S
H389   C1018   1.079   .     S
N395   Zn405   2.023   .     S
N396   Zn406   2.023   .     S
O397   Zn405   1.982   .     S
O398   Zn406   1.981   .     S
O399   Zn405   1.954   .     S
O400   Zn406   1.897   .     S
O401   Zn405   1.981   .     S
O402   Zn406   1.982   .     S
O403   Zn405   1.897   .     S
O404   Zn406   1.954   .     S
C407   H408    1.084   .     S
C407   O409    1.221   .     D
C410   H411    1.070   .     S
O412   C268    1.222   1_655 S
O413   C414    1.416   .     S
C414   H415    1.113   .     S
C414   H416    1.111   .     S
C414   C417    1.521   .     S
C417   H419    1.111   .     S
C417   H418    1.111   .     S
C417   H420    1.109   .     S
C421   O423    1.221   .     D
C421   H422    1.086   .     S
C424   O426    1.221   .     D
C424   C1021   1.480   1_554 S
H425   C282    1.086   1_655 S
C427   O468    1.287   .     A
C427   C443    1.410   .     S
C427   O469    1.283   .     A
C428   C429    1.401   .     A
C428   C1069   1.415   .     S
C428   C1093   1.420   .     S
C429   C436    1.413   .     A
C429   C433    1.411   .     A
C430   C434    1.392   .     A
C430   C1067   1.415   1_554 S
C430   C1070   1.427   1_554 S
C431   C432    1.414   .     A
C431   C1069   1.427   .     S
C431   C1089   1.415   .     S
C432   C433    1.395   .     A
C432   C492    1.485   .     S
C433   H464    1.083   .     S
C434   C451    1.385   .     A
C434   H461    1.080   .     S
C435   C450    1.393   .     A
C435   H455    1.083   .     S
C435   C451    1.395   .     A
C436   C452    1.400   .     A
C436   C438    1.463   .     S
C437   H465    1.085   .     S
C437   C443    1.395   .     A
C437   C13     1.371   1_565 S
C438   O470    1.301   .     A
C438   O471    1.296   .     A
C439   C440    1.389   .     A
C439   H456    1.084   .     S
C440   C448    1.402   .     S
C440   C441    1.391   .     A
C441   H457    1.085   .     S
C442   C443    1.408   .     A
C442   C478    1.483   .     S
C442   C15     1.382   1_565 S
C444   H458    1.082   .     S
C444   N467    1.367   .     A
C444   C516    1.420   .     S
C445   H459    1.082   .     S
C445   N466    1.368   .     A
C445   C586    1.420   1_455 S
C446   C481    1.471   .     S
C446   N466    1.377   .     A
C446   C589    1.430   1_455 S
C447   O484    1.383   .     S
C447   N467    1.366   .     A
C447   C517    1.430   .     S
C448   O472    1.284   .     A
C448   O473    1.284   .     A
C449   C451    1.452   .     S
C449   O475    1.296   .     A
C449   O474    1.297   .     A
C450   C1070   1.415   1_554 S
C450   H1099   1.079   1_554 S
C452   C453    1.393   .     A
C452   H462    1.080   .     S
C453   C1093   1.401   .     S
C453   C1134   1.480   .     S
C454   H463    1.079   .     S
C454   C1067   1.420   1_554 S
C454   C1092   1.401   1_554 S
H460   C1089   1.079   .     S
N466   Zn476   2.023   .     S
N467   Zn477   2.023   .     S
O468   Zn476   1.982   .     S
O469   Zn477   1.981   .     S
O470   Zn476   1.954   .     S
O471   Zn477   1.897   .     S
O472   Zn476   1.981   .     S
O473   Zn477   1.982   .     S
O474   Zn476   1.897   .     S
O475   Zn477   1.954   .     S
C478   H479    1.084   .     S
C478   O480    1.221   .     D
C481   H482    1.070   .     S
C481   O625    1.222   1_455 S
O483   C552    1.222   .     S
O484   C485    1.416   .     S
C485   H486    1.113   .     S
C485   H487    1.111   .     S
C485   C488    1.521   .     S
C488   H490    1.111   .     S
C488   H489    1.111   .     S
C488   H491    1.109   .     S
C492   O494    1.221   .     D
C492   H493    1.086   .     S
C495   O497    1.221   .     D
C495   C1092   1.480   1_554 S
C495   H638    1.086   1_455 S
H496   C566    1.086   .     S
C498   O539    1.287   .     A
C498   C514    1.410   .     S
C498   O540    1.283   .     A
C499   C500    1.401   .     A
C499   C1140   1.415   .     S
C499   C1164   1.420   .     S
C500   C507    1.413   .     A
C500   C504    1.411   .     A
C501   C505    1.392   .     A
C501   C1138   1.415   1_554 S
C501   C1141   1.427   1_554 S
C502   C503    1.414   .     A
C502   C1140   1.427   .     S
C502   C1160   1.415   .     S
C503   C504    1.395   .     A
C503   C563    1.485   .     S
C504   H535    1.083   .     S
C505   C522    1.385   .     A
C505   H532    1.080   .     S
C506   C521    1.393   .     A
C506   H526    1.083   .     S
C506   C522    1.395   .     A
C507   C523    1.400   .     A
C507   C509    1.463   .     S
C508   H536    1.085   .     S
C508   C514    1.395   .     A
C508   C84     1.371   1_565 S
C509   O541    1.301   .     A
C509   O542    1.296   .     A
C510   C511    1.389   .     A
C510   H527    1.084   .     S
C511   C519    1.402   .     S
C511   C512    1.391   .     A
C512   H528    1.085   .     S
C513   C514    1.408   .     A
C513   C549    1.483   .     S
C513   C86     1.382   1_565 S
C515   H529    1.082   .     S
C515   N538    1.367   .     A
C515   C587    1.420   .     S
C516   H530    1.082   .     S
C516   N537    1.368   .     A
C517   C552    1.471   .     S
C517   N537    1.377   .     A
C518   O555    1.383   .     S
C518   N538    1.366   .     A
C518   C588    1.430   .     S
C519   O543    1.284   .     A
C519   O544    1.284   .     A
C520   C522    1.452   .     S
C520   O546    1.296   .     A
C520   O545    1.297   .     A
C521   C1141   1.415   1_554 S
C521   H1170   1.079   1_554 S
C523   C524    1.393   .     A
C523   H533    1.080   .     S
C524   C1164   1.401   .     S
C524   C1205   1.480   .     S
C525   H534    1.079   .     S
C525   C1138   1.420   1_554 S
C525   C1163   1.401   1_554 S
H531   C1160   1.079   .     S
N537   Zn547   2.023   .     S
N538   Zn548   2.023   .     S
O539   Zn547   1.982   .     S
O540   Zn548   1.981   .     S
O541   Zn547   1.954   .     S
O542   Zn548   1.897   .     S
O543   Zn547   1.981   .     S
O544   Zn548   1.982   .     S
O545   Zn547   1.897   .     S
O546   Zn548   1.954   .     S
C549   H550    1.084   .     S
C549   O551    1.221   .     D
C552   H553    1.070   .     S
O554   C623    1.222   .     S
O555   C556    1.416   .     S
C556   H557    1.113   .     S
C556   H558    1.111   .     S
C556   C559    1.521   .     S
C559   H561    1.111   .     S
C559   H560    1.111   .     S
C559   H562    1.109   .     S
C563   O565    1.221   .     D
C563   H564    1.086   .     S
C566   O568    1.221   .     D
C566   C1163   1.480   1_554 S
H567   C637    1.086   .     S
C569   O610    1.287   .     A
C569   C585    1.410   .     S
C569   O611    1.283   .     A
C570   C571    1.401   .     A
C570   C1211   1.415   .     S
C570   C1235   1.420   .     S
C571   C578    1.413   .     A
C571   C575    1.411   .     A
C572   C576    1.392   .     A
C572   C1209   1.415   1_554 S
C572   C1212   1.427   1_554 S
C573   C574    1.414   .     A
C573   C1211   1.427   .     S
C573   C1231   1.415   .     S
C574   C575    1.395   .     A
C574   C634    1.485   .     S
C575   H606    1.083   .     S
C576   C593    1.385   .     A
C576   H603    1.080   .     S
C577   C592    1.393   .     A
C577   H597    1.083   .     S
C577   C593    1.395   .     A
C578   C594    1.400   .     A
C578   C580    1.463   .     S
C579   H607    1.085   .     S
C579   C585    1.395   .     A
C579   C155    1.371   1_565 S
C580   O612    1.301   .     A
C580   O613    1.296   .     A
C581   C582    1.389   .     A
C581   H598    1.084   .     S
C582   C590    1.402   .     S
C582   C583    1.391   .     A
C583   H599    1.085   .     S
C584   C585    1.408   .     A
C584   C620    1.483   .     S
C584   C157    1.382   1_565 S
C586   H600    1.082   .     S
C586   N609    1.367   .     A
C586   C445    1.420   1_655 S
C587   H601    1.082   .     S
C587   N608    1.368   .     A
C588   C623    1.471   .     S
C588   N608    1.377   .     A
C589   O626    1.383   .     S
C589   N609    1.366   .     A
C589   C446    1.430   1_655 S
C590   O614    1.284   .     A
C590   O615    1.284   .     A
C591   C593    1.452   .     S
C591   O617    1.296   .     A
C591   O616    1.297   .     A
C592   C1212   1.415   1_554 S
C592   H1241   1.079   1_554 S
C594   C595    1.393   .     A
C594   H604    1.080   .     S
C595   C1235   1.401   .     S
C595   C1276   1.480   .     S
C596   H605    1.079   .     S
C596   C1209   1.420   1_554 S
C596   C1234   1.401   1_554 S
H602   C1231   1.079   .     S
N608   Zn618   2.023   .     S
N609   Zn619   2.023   .     S
O610   Zn618   1.982   .     S
O611   Zn619   1.981   .     S
O612   Zn618   1.954   .     S
O613   Zn619   1.897   .     S
O614   Zn618   1.981   .     S
O615   Zn619   1.982   .     S
O616   Zn618   1.897   .     S
O617   Zn619   1.954   .     S
C620   H621    1.084   .     S
C620   O622    1.221   .     D
C623   H624    1.070   .     S
O625   C481    1.222   1_655 S
O626   C627    1.416   .     S
C627   H628    1.113   .     S
C627   H629    1.111   .     S
C627   C630    1.521   .     S
C630   H632    1.111   .     S
C630   H631    1.111   .     S
C630   H633    1.109   .     S
C634   O636    1.221   .     D
C634   H635    1.086   .     S
C637   O639    1.221   .     D
C637   C1234   1.480   1_554 S
H638   C495    1.086   1_655 S
C640   O681    1.287   .     A
C640   C656    1.410   .     S
C640   O682    1.283   .     A
C641   C642    1.401   .     A
C641   C4      1.415   1_556 S
C641   C28     1.420   1_556 S
C642   C649    1.413   .     A
C642   C646    1.411   .     A
C643   C647    1.392   .     A
C644   C645    1.414   .     A
C644   C4      1.427   1_556 S
C644   C24     1.415   1_556 S
C645   C646    1.395   .     A
C645   C705    1.485   .     S
C646   H677    1.083   .     S
C647   C664    1.385   .     A
C647   H674    1.080   .     S
C648   C663    1.393   .     A
C648   H668    1.083   .     S
C648   C664    1.395   .     A
C649   C665    1.400   .     A
C649   C651    1.463   .     S
C650   H678    1.085   .     S
C650   C656    1.395   .     A
C650   C865    1.371   .     S
C651   O683    1.301   .     A
C651   O684    1.296   .     A
C652   C653    1.389   .     A
C652   H669    1.084   .     S
C652   C1076   1.371   1_545 S
C653   C661    1.402   .     S
C653   C654    1.391   .     A
C654   H670    1.085   .     S
C654   C1081   1.382   1_545 S
C655   C656    1.408   .     A
C655   C691    1.483   .     S
C655   C867    1.382   .     S
C657   H671    1.082   .     S
C657   N680    1.367   .     A
C657   C729    1.420   .     S
C658   H672    1.082   .     S
C658   N679    1.368   .     A
C658   C799    1.420   1_455 S
C659   C694    1.471   .     S
C659   N679    1.377   .     A
C659   C802    1.430   1_455 S
C660   O697    1.383   .     S
C660   N680    1.366   .     A
C660   C730    1.430   .     S
C661   O685    1.284   .     A
C661   O686    1.284   .     A
C662   C664    1.452   .     S
C662   O688    1.296   .     A
C662   O687    1.297   .     A
C665   C666    1.393   .     A
C665   H675    1.080   .     S
C666   C28     1.401   1_556 S
C666   C69     1.480   1_556 S
C667   H676    1.079   .     S
H673   C24     1.079   1_556 S
N679   Zn689   2.023   .     S
N680   Zn690   2.023   .     S
O681   Zn689   1.982   .     S
O682   Zn690   1.981   .     S
O683   Zn689   1.954   .     S
O684   Zn690   1.897   .     S
O685   Zn689   1.981   .     S
O686   Zn690   1.982   .     S
O687   Zn689   1.897   .     S
O688   Zn690   1.954   .     S
C691   H692    1.084   .     S
C691   O693    1.221   .     D
C694   H695    1.070   .     S
C694   O838    1.222   1_455 S
O696   C765    1.222   .     S
O697   C698    1.416   .     S
C698   H699    1.113   .     S
C698   H700    1.111   .     S
C698   C701    1.521   .     S
C701   H703    1.111   .     S
C701   H702    1.111   .     S
C701   H704    1.109   .     S
C705   O707    1.221   .     D
C705   H706    1.086   .     S
C708   O710    1.221   .     D
C708   H851    1.086   1_455 S
H709   C779    1.086   .     S
C711   O752    1.287   .     A
C711   C727    1.410   .     S
C711   O753    1.283   .     A
C712   C713    1.401   .     A
C712   C75     1.415   1_556 S
C712   C99     1.420   1_556 S
C713   C720    1.413   .     A
C713   C717    1.411   .     A
C714   C718    1.392   .     A
C715   C716    1.414   .     A
C715   C75     1.427   1_556 S
C715   C95     1.415   1_556 S
C716   C717    1.395   .     A
C716   C776    1.485   .     S
C717   H748    1.083   .     S
C718   C735    1.385   .     A
C718   H745    1.080   .     S
C719   C734    1.393   .     A
C719   H739    1.083   .     S
C719   C735    1.395   .     A
C720   C736    1.400   .     A
C720   C722    1.463   .     S
C721   H749    1.085   .     S
C721   C727    1.395   .     A
C721   C936    1.371   .     S
C722   O754    1.301   .     A
C722   O755    1.296   .     A
C723   C724    1.389   .     A
C723   H740    1.084   .     S
C723   C1147   1.371   1_545 S
C724   C732    1.402   .     S
C724   C725    1.391   .     A
C725   H741    1.085   .     S
C725   C1152   1.382   1_545 S
C726   C727    1.408   .     A
C726   C762    1.483   .     S
C726   C938    1.382   .     S
C728   H742    1.082   .     S
C728   N751    1.367   .     A
C728   C800    1.420   .     S
C729   H743    1.082   .     S
C729   N750    1.368   .     A
C730   C765    1.471   .     S
C730   N750    1.377   .     A
C731   O768    1.383   .     S
C731   N751    1.366   .     A
C731   C801    1.430   .     S
C732   O756    1.284   .     A
C732   O757    1.284   .     A
C733   C735    1.452   .     S
C733   O759    1.296   .     A
C733   O758    1.297   .     A
C736   C737    1.393   .     A
C736   H746    1.080   .     S
C737   C99     1.401   1_556 S
C737   C140    1.480   1_556 S
C738   H747    1.079   .     S
H744   C95     1.079   1_556 S
N750   Zn760   2.023   .     S
N751   Zn761   2.023   .     S
O752   Zn760   1.982   .     S
O753   Zn761   1.981   .     S
O754   Zn760   1.954   .     S
O755   Zn761   1.897   .     S
O756   Zn760   1.981   .     S
O757   Zn761   1.982   .     S
O758   Zn760   1.897   .     S
O759   Zn761   1.954   .     S
C762   H763    1.084   .     S
C762   O764    1.221   .     D
C765   H766    1.070   .     S
O767   C836    1.222   .     S
O768   C769    1.416   .     S
C769   H770    1.113   .     S
C769   H771    1.111   .     S
C769   C772    1.521   .     S
C772   H774    1.111   .     S
C772   H773    1.111   .     S
C772   H775    1.109   .     S
C776   O778    1.221   .     D
C776   H777    1.086   .     S
C779   O781    1.221   .     D
H780   C850    1.086   .     S
C782   O823    1.287   .     A
C782   C798    1.410   .     S
C782   O824    1.283   .     A
C783   C784    1.401   .     A
C783   C146    1.415   1_556 S
C783   C170    1.420   1_556 S
C784   C791    1.413   .     A
C784   C788    1.411   .     A
C785   C789    1.392   .     A
C786   C787    1.414   .     A
C786   C146    1.427   1_556 S
C786   C166    1.415   1_556 S
C787   C788    1.395   .     A
C787   C847    1.485   .     S
C788   H819    1.083   .     S
C789   C806    1.385   .     A
C789   H816    1.080   .     S
C790   C805    1.393   .     A
C790   H810    1.083   .     S
C790   C806    1.395   .     A
C791   C807    1.400   .     A
C791   C793    1.463   .     S
C792   H820    1.085   .     S
C792   C798    1.395   .     A
C792   C1007   1.371   .     S
C793   O825    1.301   .     A
C793   O826    1.296   .     A
C794   C795    1.389   .     A
C794   H811    1.084   .     S
C794   C1218   1.371   1_545 S
C795   C803    1.402   .     S
C795   C796    1.391   .     A
C796   H812    1.085   .     S
C796   C1223   1.382   1_545 S
C797   C798    1.408   .     A
C797   C833    1.483   .     S
C797   C1009   1.382   .     S
C799   H813    1.082   .     S
C799   N822    1.367   .     A
C799   C658    1.420   1_655 S
C800   H814    1.082   .     S
C800   N821    1.368   .     A
C801   C836    1.471   .     S
C801   N821    1.377   .     A
C802   O839    1.383   .     S
C802   N822    1.366   .     A
C802   C659    1.430   1_655 S
C803   O827    1.284   .     A
C803   O828    1.284   .     A
C804   C806    1.452   .     S
C804   O830    1.296   .     A
C804   O829    1.297   .     A
C807   C808    1.393   .     A
C807   H817    1.080   .     S
C808   C170    1.401   1_556 S
C808   C211    1.480   1_556 S
C809   H818    1.079   .     S
H815   C166    1.079   1_556 S
N821   Zn831   2.023   .     S
N822   Zn832   2.023   .     S
O823   Zn831   1.982   .     S
O824   Zn832   1.981   .     S
O825   Zn831   1.954   .     S
O826   Zn832   1.897   .     S
O827   Zn831   1.981   .     S
O828   Zn832   1.982   .     S
O829   Zn831   1.897   .     S
O830   Zn832   1.954   .     S
C833   H834    1.084   .     S
C833   O835    1.221   .     D
C836   H837    1.070   .     S
O838   C694    1.222   1_655 S
O839   C840    1.416   .     S
C840   H841    1.113   .     S
C840   H842    1.111   .     S
C840   C843    1.521   .     S
C843   H845    1.111   .     S
C843   H844    1.111   .     S
C843   H846    1.109   .     S
C847   O849    1.221   .     D
C847   H848    1.086   .     S
C850   O852    1.221   .     D
H851   C708    1.086   1_655 S
C853   O894    1.287   .     A
C853   C869    1.410   .     S
C853   O895    1.283   .     A
C854   C855    1.401   .     A
C854   C217    1.415   1_556 S
C854   C241    1.420   1_556 S
C855   C862    1.413   .     A
C855   C859    1.411   .     A
C856   C860    1.392   .     A
C857   C858    1.414   .     A
C857   C217    1.427   1_556 S
C857   C237    1.415   1_556 S
C858   C859    1.395   .     A
C858   C918    1.485   .     S
C859   H890    1.083   .     S
C860   C877    1.385   .     A
C860   H887    1.080   .     S
C861   C876    1.393   .     A
C861   H881    1.083   .     S
C861   C877    1.395   .     A
C862   C878    1.400   .     A
C862   C864    1.463   .     S
C863   H891    1.085   .     S
C863   C869    1.395   .     A
C863   C1078   1.371   .     S
C864   O896    1.301   .     A
C864   O897    1.296   .     A
C865   C866    1.389   .     A
C865   H882    1.084   .     S
C866   C874    1.402   .     S
C866   C867    1.391   .     A
C867   H883    1.085   .     S
C868   C869    1.408   .     A
C868   C904    1.483   .     S
C868   C1080   1.382   .     S
C870   H884    1.082   .     S
C870   N893    1.367   .     A
C870   C942    1.420   .     S
C871   H885    1.082   .     S
C871   N892    1.368   .     A
C871   C1012   1.420   1_455 S
C872   C907    1.471   .     S
C872   N892    1.377   .     A
C872   C1015   1.430   1_455 S
C873   O910    1.383   .     S
C873   N893    1.366   .     A
C873   C943    1.430   .     S
C874   O898    1.284   .     A
C874   O899    1.284   .     A
C875   C877    1.452   .     S
C875   O901    1.296   .     A
C875   O900    1.297   .     A
C878   C879    1.393   .     A
C878   H888    1.080   .     S
C879   C241    1.401   1_556 S
C879   C282    1.480   1_556 S
C880   H889    1.079   .     S
H886   C237    1.079   1_556 S
N892   Zn902   2.023   .     S
N893   Zn903   2.023   .     S
O894   Zn902   1.982   .     S
O895   Zn903   1.981   .     S
O896   Zn902   1.954   .     S
O897   Zn903   1.897   .     S
O898   Zn902   1.981   .     S
O899   Zn903   1.982   .     S
O900   Zn902   1.897   .     S
O901   Zn903   1.954   .     S
C904   H905    1.084   .     S
C904   O906    1.221   .     D
C907   H908    1.070   .     S
C907   O1051   1.222   1_455 S
O909   C978    1.222   .     S
O910   C911    1.416   .     S
C911   H912    1.113   .     S
C911   H913    1.111   .     S
C911   C914    1.521   .     S
C914   H916    1.111   .     S
C914   H915    1.111   .     S
C914   H917    1.109   .     S
C918   O920    1.221   .     D
C918   H919    1.086   .     S
C921   O923    1.221   .     D
C921   H1064   1.086   1_455 S
H922   C992    1.086   .     S
C924   O965    1.287   .     A
C924   C940    1.410   .     S
C924   O966    1.283   .     A
C925   C926    1.401   .     A
C925   C288    1.415   1_556 S
C925   C312    1.420   1_556 S
C926   C933    1.413   .     A
C926   C930    1.411   .     A
C927   C931    1.392   .     A
C928   C929    1.414   .     A
C928   C288    1.427   1_556 S
C928   C308    1.415   1_556 S
C929   C930    1.395   .     A
C929   C989    1.485   .     S
C930   H961    1.083   .     S
C931   C948    1.385   .     A
C931   H958    1.080   .     S
C932   C947    1.393   .     A
C932   H952    1.083   .     S
C932   C948    1.395   .     A
C933   C949    1.400   .     A
C933   C935    1.463   .     S
C934   H962    1.085   .     S
C934   C940    1.395   .     A
C934   C1149   1.371   .     S
C935   O967    1.301   .     A
C935   O968    1.296   .     A
C936   C937    1.389   .     A
C936   H953    1.084   .     S
C937   C945    1.402   .     S
C937   C938    1.391   .     A
C938   H954    1.085   .     S
C939   C940    1.408   .     A
C939   C975    1.483   .     S
C939   C1151   1.382   .     S
C941   H955    1.082   .     S
C941   N964    1.367   .     A
C941   C1013   1.420   .     S
C942   H956    1.082   .     S
C942   N963    1.368   .     A
C943   C978    1.471   .     S
C943   N963    1.377   .     A
C944   O981    1.383   .     S
C944   N964    1.366   .     A
C944   C1014   1.430   .     S
C945   O969    1.284   .     A
C945   O970    1.284   .     A
C946   C948    1.452   .     S
C946   O972    1.296   .     A
C946   O971    1.297   .     A
C949   C950    1.393   .     A
C949   H959    1.080   .     S
C950   C312    1.401   1_556 S
C950   C353    1.480   1_556 S
C951   H960    1.079   .     S
H957   C308    1.079   1_556 S
N963   Zn973   2.023   .     S
N964   Zn974   2.023   .     S
O965   Zn973   1.982   .     S
O966   Zn974   1.981   .     S
O967   Zn973   1.954   .     S
O968   Zn974   1.897   .     S
O969   Zn973   1.981   .     S
O970   Zn974   1.982   .     S
O971   Zn973   1.897   .     S
O972   Zn974   1.954   .     S
C975   H976    1.084   .     S
C975   O977    1.221   .     D
C978   H979    1.070   .     S
O980   C1049   1.222   .     S
O981   C982    1.416   .     S
C982   H983    1.113   .     S
C982   H984    1.111   .     S
C982   C985    1.521   .     S
C985   H987    1.111   .     S
C985   H986    1.111   .     S
C985   H988    1.109   .     S
C989   O991    1.221   .     D
C989   H990    1.086   .     S
C992   O994    1.221   .     D
H993   C1063   1.086   .     S
C995   O1036   1.287   .     A
C995   C1011   1.410   .     S
C995   O1037   1.283   .     A
C996   C997    1.401   .     A
C996   C359    1.415   1_556 S
C996   C383    1.420   1_556 S
C997   C1004   1.413   .     A
C997   C1001   1.411   .     A
C998   C1002   1.392   .     A
C999   C1000   1.414   .     A
C999   C359    1.427   1_556 S
C999   C379    1.415   1_556 S
C1000  C1001   1.395   .     A
C1000  C1060   1.485   .     S
C1001  H1032   1.083   .     S
C1002  C1019   1.385   .     A
C1002  H1029   1.080   .     S
C1003  C1018   1.393   .     A
C1003  H1023   1.083   .     S
C1003  C1019   1.395   .     A
C1004  C1020   1.400   .     A
C1004  C1006   1.463   .     S
C1005  H1033   1.085   .     S
C1005  C1011   1.395   .     A
C1005  C1220   1.371   .     S
C1006  O1038   1.301   .     A
C1006  O1039   1.296   .     A
C1007  C1008   1.389   .     A
C1007  H1024   1.084   .     S
C1008  C1016   1.402   .     S
C1008  C1009   1.391   .     A
C1009  H1025   1.085   .     S
C1010  C1011   1.408   .     A
C1010  C1046   1.483   .     S
C1010  C1222   1.382   .     S
C1012  H1026   1.082   .     S
C1012  N1035   1.367   .     A
C1012  C871    1.420   1_655 S
C1013  H1027   1.082   .     S
C1013  N1034   1.368   .     A
C1014  C1049   1.471   .     S
C1014  N1034   1.377   .     A
C1015  O1052   1.383   .     S
C1015  N1035   1.366   .     A
C1015  C872    1.430   1_655 S
C1016  O1040   1.284   .     A
C1016  O1041   1.284   .     A
C1017  C1019   1.452   .     S
C1017  O1043   1.296   .     A
C1017  O1042   1.297   .     A
C1020  C1021   1.393   .     A
C1020  H1030   1.080   .     S
C1021  C383    1.401   1_556 S
C1021  C424    1.480   1_556 S
C1022  H1031   1.079   .     S
H1028  C379    1.079   1_556 S
N1034  Zn1044  2.023   .     S
N1035  Zn1045  2.023   .     S
O1036  Zn1044  1.982   .     S
O1037  Zn1045  1.981   .     S
O1038  Zn1044  1.954   .     S
O1039  Zn1045  1.897   .     S
O1040  Zn1044  1.981   .     S
O1041  Zn1045  1.982   .     S
O1042  Zn1044  1.897   .     S
O1043  Zn1045  1.954   .     S
C1046  H1047   1.084   .     S
C1046  O1048   1.221   .     D
C1049  H1050   1.070   .     S
O1051  C907    1.222   1_655 S
O1052  C1053   1.416   .     S
C1053  H1054   1.113   .     S
C1053  H1055   1.111   .     S
C1053  C1056   1.521   .     S
C1056  H1058   1.111   .     S
C1056  H1057   1.111   .     S
C1056  H1059   1.109   .     S
C1060  O1062   1.221   .     D
C1060  H1061   1.086   .     S
C1063  O1065   1.221   .     D
H1064  C921    1.086   1_655 S
C1066  O1107   1.287   .     A
C1066  C1082   1.410   .     S
C1066  O1108   1.283   .     A
C1067  C1068   1.401   .     A
C1067  C430    1.415   1_556 S
C1067  C454    1.420   1_556 S
C1068  C1075   1.413   .     A
C1068  C1072   1.411   .     A
C1069  C1073   1.392   .     A
C1070  C1071   1.414   .     A
C1070  C430    1.427   1_556 S
C1070  C450    1.415   1_556 S
C1071  C1072   1.395   .     A
C1071  C1131   1.485   .     S
C1072  H1103   1.083   .     S
C1073  C1090   1.385   .     A
C1073  H1100   1.080   .     S
C1074  C1089   1.393   .     A
C1074  H1094   1.083   .     S
C1074  C1090   1.395   .     A
C1075  C1091   1.400   .     A
C1075  C1077   1.463   .     S
C1076  H1104   1.085   .     S
C1076  C1082   1.395   .     A
C1076  C652    1.371   1_565 S
C1077  O1109   1.301   .     A
C1077  O1110   1.296   .     A
C1078  C1079   1.389   .     A
C1078  H1095   1.084   .     S
C1079  C1087   1.402   .     S
C1079  C1080   1.391   .     A
C1080  H1096   1.085   .     S
C1081  C1082   1.408   .     A
C1081  C1117   1.483   .     S
C1081  C654    1.382   1_565 S
C1083  H1097   1.082   .     S
C1083  N1106   1.367   .     A
C1083  C1155   1.420   .     S
C1084  H1098   1.082   .     S
C1084  N1105   1.368   .     A
C1084  C1225   1.420   1_455 S
C1085  C1120   1.471   .     S
C1085  N1105   1.377   .     A
C1085  C1228   1.430   1_455 S
C1086  O1123   1.383   .     S
C1086  N1106   1.366   .     A
C1086  C1156   1.430   .     S
C1087  O1111   1.284   .     A
C1087  O1112   1.284   .     A
C1088  C1090   1.452   .     S
C1088  O1114   1.296   .     A
C1088  O1113   1.297   .     A
C1091  C1092   1.393   .     A
C1091  H1101   1.080   .     S
C1092  C454    1.401   1_556 S
C1092  C495    1.480   1_556 S
C1093  H1102   1.079   .     S
H1099  C450    1.079   1_556 S
N1105  Zn1115  2.023   .     S
N1106  Zn1116  2.023   .     S
O1107  Zn1115  1.982   .     S
O1108  Zn1116  1.981   .     S
O1109  Zn1115  1.954   .     S
O1110  Zn1116  1.897   .     S
O1111  Zn1115  1.981   .     S
O1112  Zn1116  1.982   .     S
O1113  Zn1115  1.897   .     S
O1114  Zn1116  1.954   .     S
C1117  H1118   1.084   .     S
C1117  O1119   1.221   .     D
C1120  H1121   1.070   .     S
C1120  O1264   1.222   1_455 S
O1122  C1191   1.222   .     S
O1123  C1124   1.416   .     S
C1124  H1125   1.113   .     S
C1124  H1126   1.111   .     S
C1124  C1127   1.521   .     S
C1127  H1129   1.111   .     S
C1127  H1128   1.111   .     S
C1127  H1130   1.109   .     S
C1131  O1133   1.221   .     D
C1131  H1132   1.086   .     S
C1134  O1136   1.221   .     D
C1134  H1277   1.086   1_455 S
H1135  C1205   1.086   .     S
C1137  O1178   1.287   .     A
C1137  C1153   1.410   .     S
C1137  O1179   1.283   .     A
C1138  C1139   1.401   .     A
C1138  C501    1.415   1_556 S
C1138  C525    1.420   1_556 S
C1139  C1146   1.413   .     A
C1139  C1143   1.411   .     A
C1140  C1144   1.392   .     A
C1141  C1142   1.414   .     A
C1141  C501    1.427   1_556 S
C1141  C521    1.415   1_556 S
C1142  C1143   1.395   .     A
C1142  C1202   1.485   .     S
C1143  H1174   1.083   .     S
C1144  C1161   1.385   .     A
C1144  H1171   1.080   .     S
C1145  C1160   1.393   .     A
C1145  H1165   1.083   .     S
C1145  C1161   1.395   .     A
C1146  C1162   1.400   .     A
C1146  C1148   1.463   .     S
C1147  H1175   1.085   .     S
C1147  C1153   1.395   .     A
C1147  C723    1.371   1_565 S
C1148  O1180   1.301   .     A
C1148  O1181   1.296   .     A
C1149  C1150   1.389   .     A
C1149  H1166   1.084   .     S
C1150  C1158   1.402   .     S
C1150  C1151   1.391   .     A
C1151  H1167   1.085   .     S
C1152  C1153   1.408   .     A
C1152  C1188   1.483   .     S
C1152  C725    1.382   1_565 S
C1154  H1168   1.082   .     S
C1154  N1177   1.367   .     A
C1154  C1226   1.420   .     S
C1155  H1169   1.082   .     S
C1155  N1176   1.368   .     A
C1156  C1191   1.471   .     S
C1156  N1176   1.377   .     A
C1157  O1194   1.383   .     S
C1157  N1177   1.366   .     A
C1157  C1227   1.430   .     S
C1158  O1182   1.284   .     A
C1158  O1183   1.284   .     A
C1159  C1161   1.452   .     S
C1159  O1185   1.296   .     A
C1159  O1184   1.297   .     A
C1162  C1163   1.393   .     A
C1162  H1172   1.080   .     S
C1163  C525    1.401   1_556 S
C1163  C566    1.480   1_556 S
C1164  H1173   1.079   .     S
H1170  C521    1.079   1_556 S
N1176  Zn1186  2.023   .     S
N1177  Zn1187  2.023   .     S
O1178  Zn1186  1.982   .     S
O1179  Zn1187  1.981   .     S
O1180  Zn1186  1.954   .     S
O1181  Zn1187  1.897   .     S
O1182  Zn1186  1.981   .     S
O1183  Zn1187  1.982   .     S
O1184  Zn1186  1.897   .     S
O1185  Zn1187  1.954   .     S
C1188  H1189   1.084   .     S
C1188  O1190   1.221   .     D
C1191  H1192   1.070   .     S
O1193  C1262   1.222   .     S
O1194  C1195   1.416   .     S
C1195  H1196   1.113   .     S
C1195  H1197   1.111   .     S
C1195  C1198   1.521   .     S
C1198  H1200   1.111   .     S
C1198  H1199   1.111   .     S
C1198  H1201   1.109   .     S
C1202  O1204   1.221   .     D
C1202  H1203   1.086   .     S
C1205  O1207   1.221   .     D
H1206  C1276   1.086   .     S
C1208  O1249   1.287   .     A
C1208  C1224   1.410   .     S
C1208  O1250   1.283   .     A
C1209  C1210   1.401   .     A
C1209  C572    1.415   1_556 S
C1209  C596    1.420   1_556 S
C1210  C1217   1.413   .     A
C1210  C1214   1.411   .     A
C1211  C1215   1.392   .     A
C1212  C1213   1.414   .     A
C1212  C572    1.427   1_556 S
C1212  C592    1.415   1_556 S
C1213  C1214   1.395   .     A
C1213  C1273   1.485   .     S
C1214  H1245   1.083   .     S
C1215  C1232   1.385   .     A
C1215  H1242   1.080   .     S
C1216  C1231   1.393   .     A
C1216  H1236   1.083   .     S
C1216  C1232   1.395   .     A
C1217  C1233   1.400   .     A
C1217  C1219   1.463   .     S
C1218  H1246   1.085   .     S
C1218  C1224   1.395   .     A
C1218  C794    1.371   1_565 S
C1219  O1251   1.301   .     A
C1219  O1252   1.296   .     A
C1220  C1221   1.389   .     A
C1220  H1237   1.084   .     S
C1221  C1229   1.402   .     S
C1221  C1222   1.391   .     A
C1222  H1238   1.085   .     S
C1223  C1224   1.408   .     A
C1223  C1259   1.483   .     S
C1223  C796    1.382   1_565 S
C1225  H1239   1.082   .     S
C1225  N1248   1.367   .     A
C1225  C1084   1.420   1_655 S
C1226  H1240   1.082   .     S
C1226  N1247   1.368   .     A
C1227  C1262   1.471   .     S
C1227  N1247   1.377   .     A
C1228  O1265   1.383   .     S
C1228  N1248   1.366   .     A
C1228  C1085   1.430   1_655 S
C1229  O1253   1.284   .     A
C1229  O1254   1.284   .     A
C1230  C1232   1.452   .     S
C1230  O1256   1.296   .     A
C1230  O1255   1.297   .     A
C1233  C1234   1.393   .     A
C1233  H1243   1.080   .     S
C1234  C596    1.401   1_556 S
C1234  C637    1.480   1_556 S
C1235  H1244   1.079   .     S
H1241  C592    1.079   1_556 S
N1247  Zn1257  2.023   .     S
N1248  Zn1258  2.023   .     S
O1249  Zn1257  1.982   .     S
O1250  Zn1258  1.981   .     S
O1251  Zn1257  1.954   .     S
O1252  Zn1258  1.897   .     S
O1253  Zn1257  1.981   .     S
O1254  Zn1258  1.982   .     S
O1255  Zn1257  1.897   .     S
O1256  Zn1258  1.954   .     S
C1259  H1260   1.084   .     S
C1259  O1261   1.221   .     D
C1262  H1263   1.070   .     S
O1264  C1120   1.222   1_655 S
O1265  C1266   1.416   .     S
C1266  H1267   1.113   .     S
C1266  H1268   1.111   .     S
C1266  C1269   1.521   .     S
C1269  H1271   1.111   .     S
C1269  H1270   1.111   .     S
C1269  H1272   1.109   .     S
C1273  O1275   1.221   .     D
C1273  H1274   1.086   .     S
C1276  O1278   1.221   .     D
H1277  C1134   1.086   1_655 S
