data_str_m2_o1_o17_pcu_sym.122
_audit_creation_date              2020-01-03
_audit_creation_method            'Materials Studio'
_symmetry_space_group_name_H-M    'P1'
_symmetry_Int_Tables_number       1
_symmetry_cell_setting            triclinic
loop_
_symmetry_equiv_pos_as_xyz
  x,y,z
_cell_length_a                    32.4298
_cell_length_b                    28.6416
_cell_length_c                    30.1486
_cell_angle_alpha                 90.0000
_cell_angle_beta                  87.4682
_cell_angle_gamma                 89.9999
loop_
_atom_site_label
_atom_site_type_symbol
_atom_site_fract_x
_atom_site_fract_y
_atom_site_fract_z
_atom_site_U_iso_or_equiv
_atom_site_adp_type
_atom_site_occupancy
C1     C     0.08756   0.16667   0.24577   0.00000  Uiso   1.00
C2     C     0.24578   0.16667   0.25423   0.00000  Uiso   1.00
C3     C     0.16646   0.25177   0.02313   0.00000  Uiso   1.00
C4     C     0.16687   0.08156   0.47687   0.00000  Uiso   1.00
C5     C     0.02058   0.12390   0.24184   0.00000  Uiso   1.00
C6     C     0.31276   0.20944   0.25816   0.00000  Uiso   1.00
C7     C     0.31276   0.12390   0.25816   0.00000  Uiso   1.00
C8     C     0.02058   0.20944   0.24184   0.00000  Uiso   1.00
C9     C     0.29079   0.16667   0.25898   0.00000  Uiso   1.00
C10    C     0.04255   0.16667   0.24102   0.00000  Uiso   1.00
C11    C     0.19227   0.02474   0.22102   0.00000  Uiso   1.00
C12    C     0.14106   0.30859   0.27898   0.00000  Uiso   1.00
C13    C     0.14106   0.02474   0.27898   0.00000  Uiso   1.00
C14    C     0.19227   0.30859   0.22102   0.00000  Uiso   1.00
C15    C     0.16653   0.16667   0.16431   0.00000  Uiso   1.00
C16    C     0.16680   0.16667   0.33569   0.00000  Uiso   1.00
C17    C     0.16729   0.12419   0.40730   0.00000  Uiso   1.00
C18    C     0.16604   0.20914   0.09270   0.00000  Uiso   1.00
C19    C     0.16718   0.16667   0.38411   0.00000  Uiso   1.00
C20    C     0.16615   0.16667   0.11589   0.00000  Uiso   1.00
C21    C     0.16729   0.20914   0.40730   0.00000  Uiso   1.00
C22    C     0.16604   0.12419   0.09270   0.00000  Uiso   1.00
C23    C     0.16705   0.20944   0.45352   0.00000  Uiso   1.00
C24    C     0.16628   0.12389   0.04648   0.00000  Uiso   1.00
C25    C     0.16686   0.16667   0.47675   0.00000  Uiso   1.00
C26    C     0.16647   0.16667   0.02325   0.00000  Uiso   1.00
C27    C     0.16705   0.12389   0.45352   0.00000  Uiso   1.00
C28    C     0.16628   0.20944   0.04649   0.00000  Uiso   1.00
C29    C     0.16687   0.25177   0.47687   0.00000  Uiso   1.00
C30    C     0.16646   0.08156   0.02313   0.00000  Uiso   1.00
Cu31   Cu    0.16667   0.21355   0.25000   0.00000  Uiso   1.00
Cu32   Cu    0.16667   0.11978   0.25000   0.00000  Uiso   1.00
H33    H     0.16745   0.09131   0.38949   0.00000  Uiso   1.00
H34    H     0.16588   0.24203   0.11051   0.00000  Uiso   1.00
H35    H     0.16746   0.24203   0.38949   0.00000  Uiso   1.00
H36    H     0.16588   0.09131   0.11051   0.00000  Uiso   1.00
H37    H     0.16700   0.28483   0.45937   0.00000  Uiso   1.00
H38    H     0.16633   0.04850   0.04063   0.00000  Uiso   1.00
H39    H     0.16633   0.28483   0.04063   0.00000  Uiso   1.00
H40    H     0.16700   0.04850   0.45937   0.00000  Uiso   1.00
N41    N     0.16667   0.28402   0.25000   0.00000  Uiso   1.00
N42    N     0.16667   0.04931   0.25000   0.00000  Uiso   1.00
O43    O     0.10655   0.20625   0.25000   0.00000  Uiso   1.00
O44    O     0.22679   0.12709   0.25000   0.00000  Uiso   1.00
O45    O     0.22679   0.20625   0.25001   0.00000  Uiso   1.00
O46    O     0.10655   0.12709   0.25000   0.00000  Uiso   1.00
O47    O     0.16666   0.20627   0.18513   0.00000  Uiso   1.00
O48    O     0.16668   0.12707   0.31487   0.00000  Uiso   1.00
O49    O     0.16668   0.20627   0.31487   0.00000  Uiso   1.00
O50    O     0.16666   0.12707   0.18513   0.00000  Uiso   1.00
C51    C     0.03798   0.07984   0.21910   0.00000  Uiso   1.00
C52    C     0.05400   0.08931   0.17141   0.00000  Uiso   1.00
H53    H     0.02908   0.10466   0.15189   0.00000  Uiso   1.00
H54    H     0.08072   0.11345   0.17035   0.00000  Uiso   1.00
H55    H     0.06409   0.05598   0.15554   0.00000  Uiso   1.00
H56    H     0.01362   0.05295   0.21604   0.00000  Uiso   1.00
H57    H     0.06216   0.06329   0.23851   0.00000  Uiso   1.00
C58    C     0.29535   0.25349   0.28090   0.00000  Uiso   1.00
C59    C     0.27934   0.24402   0.32859   0.00000  Uiso   1.00
H60    H     0.25261   0.21988   0.32965   0.00000  Uiso   1.00
H61    H     0.30425   0.22868   0.34811   0.00000  Uiso   1.00
H62    H     0.26925   0.27736   0.34446   0.00000  Uiso   1.00
H63    H     0.31972   0.28039   0.28396   0.00000  Uiso   1.00
H64    H     0.27118   0.27004   0.26149   0.00000  Uiso   1.00
C65    C     0.29535   0.07984   0.28090   0.00000  Uiso   1.00
C66    C     0.27934   0.08931   0.32859   0.00000  Uiso   1.00
H67    H     0.26925   0.05598   0.34446   0.00000  Uiso   1.00
H68    H     0.30425   0.10466   0.34811   0.00000  Uiso   1.00
H69    H     0.25261   0.11345   0.32965   0.00000  Uiso   1.00
H70    H     0.31972   0.05295   0.28396   0.00000  Uiso   1.00
H71    H     0.27118   0.06329   0.26149   0.00000  Uiso   1.00
C72    C     0.03798   0.25349   0.21910   0.00000  Uiso   1.00
C73    C     0.05400   0.24402   0.17141   0.00000  Uiso   1.00
H74    H     0.08072   0.21988   0.17035   0.00000  Uiso   1.00
H75    H     0.02908   0.22868   0.15189   0.00000  Uiso   1.00
H76    H     0.06409   0.27736   0.15554   0.00000  Uiso   1.00
H77    H     0.01362   0.28039   0.21604   0.00000  Uiso   1.00
H78    H     0.06216   0.27004   0.23851   0.00000  Uiso   1.00
Cl79   Cl    0.22597   0.05412   0.18292   0.00000  Uiso   1.00
Cl80   Cl    0.10736   0.27922   0.31708   0.00000  Uiso   1.00
Cl81   Cl    0.10736   0.05412   0.31708   0.00000  Uiso   1.00
Cl82   Cl    0.22597   0.27921   0.18293   0.00000  Uiso   1.00
C83    C     0.42089   0.16667   0.24577   0.00000  Uiso   1.00
C84    C     0.57911   0.16667   0.25423   0.00000  Uiso   1.00
C85    C     0.49980   0.25177   0.02313   0.00000  Uiso   1.00
C86    C     0.50020   0.08156   0.47687   0.00000  Uiso   1.00
C87    C     0.35391   0.12390   0.24184   0.00000  Uiso   1.00
C88    C     0.64609   0.20944   0.25816   0.00000  Uiso   1.00
C89    C     0.64609   0.12390   0.25816   0.00000  Uiso   1.00
C90    C     0.35391   0.20944   0.24184   0.00000  Uiso   1.00
C91    C     0.62412   0.16667   0.25898   0.00000  Uiso   1.00
C92    C     0.37588   0.16667   0.24102   0.00000  Uiso   1.00
C93    C     0.52560   0.02474   0.22102   0.00000  Uiso   1.00
C94    C     0.47440   0.30859   0.27898   0.00000  Uiso   1.00
C95    C     0.47440   0.02474   0.27898   0.00000  Uiso   1.00
C96    C     0.52560   0.30859   0.22102   0.00000  Uiso   1.00
C97    C     0.49986   0.16667   0.16431   0.00000  Uiso   1.00
C98    C     0.50013   0.16667   0.33569   0.00000  Uiso   1.00
C99    C     0.50063   0.12419   0.40730   0.00000  Uiso   1.00
C100   C     0.49937   0.20914   0.09270   0.00000  Uiso   1.00
C101   C     0.50051   0.16667   0.38411   0.00000  Uiso   1.00
C102   C     0.49949   0.16667   0.11589   0.00000  Uiso   1.00
C103   C     0.50063   0.20914   0.40730   0.00000  Uiso   1.00
C104   C     0.49937   0.12419   0.09270   0.00000  Uiso   1.00
C105   C     0.50038   0.20944   0.45352   0.00000  Uiso   1.00
C106   C     0.49961   0.12389   0.04648   0.00000  Uiso   1.00
C107   C     0.50019   0.16667   0.47675   0.00000  Uiso   1.00
C108   C     0.49981   0.16667   0.02325   0.00000  Uiso   1.00
C109   C     0.50038   0.12389   0.45352   0.00000  Uiso   1.00
C110   C     0.49962   0.20944   0.04649   0.00000  Uiso   1.00
C111   C     0.50020   0.25177   0.47687   0.00000  Uiso   1.00
C112   C     0.49980   0.08156   0.02313   0.00000  Uiso   1.00
Cu113  Cu    0.50000   0.21355   0.25000   0.00000  Uiso   1.00
Cu114  Cu    0.50000   0.11978   0.25000   0.00000  Uiso   1.00
H115   H     0.50079   0.09131   0.38949   0.00000  Uiso   1.00
H116   H     0.49921   0.24203   0.11051   0.00000  Uiso   1.00
H117   H     0.50079   0.24203   0.38949   0.00000  Uiso   1.00
H118   H     0.49921   0.09131   0.11051   0.00000  Uiso   1.00
H119   H     0.50033   0.28483   0.45937   0.00000  Uiso   1.00
H120   H     0.49967   0.04850   0.04063   0.00000  Uiso   1.00
H121   H     0.49967   0.28483   0.04063   0.00000  Uiso   1.00
H122   H     0.50033   0.04850   0.45937   0.00000  Uiso   1.00
N123   N     0.50000   0.28402   0.25000   0.00000  Uiso   1.00
N124   N     0.50000   0.04931   0.25000   0.00000  Uiso   1.00
O125   O     0.43988   0.20625   0.25000   0.00000  Uiso   1.00
O126   O     0.56012   0.12709   0.25000   0.00000  Uiso   1.00
O127   O     0.56012   0.20625   0.25001   0.00000  Uiso   1.00
O128   O     0.43988   0.12709   0.25000   0.00000  Uiso   1.00
O129   O     0.49999   0.20627   0.18513   0.00000  Uiso   1.00
O130   O     0.50001   0.12707   0.31487   0.00000  Uiso   1.00
O131   O     0.50001   0.20627   0.31487   0.00000  Uiso   1.00
O132   O     0.49999   0.12707   0.18513   0.00000  Uiso   1.00
C133   C     0.37132   0.07984   0.21910   0.00000  Uiso   1.00
C134   C     0.38733   0.08931   0.17141   0.00000  Uiso   1.00
H135   H     0.36242   0.10466   0.15189   0.00000  Uiso   1.00
H136   H     0.41405   0.11345   0.17035   0.00000  Uiso   1.00
H137   H     0.39742   0.05598   0.15554   0.00000  Uiso   1.00
H138   H     0.34695   0.05295   0.21604   0.00000  Uiso   1.00
H139   H     0.39549   0.06329   0.23851   0.00000  Uiso   1.00
C140   C     0.62868   0.25349   0.28090   0.00000  Uiso   1.00
C141   C     0.61267   0.24402   0.32859   0.00000  Uiso   1.00
H142   H     0.58594   0.21988   0.32965   0.00000  Uiso   1.00
H143   H     0.63758   0.22868   0.34811   0.00000  Uiso   1.00
H144   H     0.60258   0.27736   0.34446   0.00000  Uiso   1.00
H145   H     0.65305   0.28039   0.28396   0.00000  Uiso   1.00
H146   H     0.60451   0.27004   0.26149   0.00000  Uiso   1.00
C147   C     0.62868   0.07984   0.28090   0.00000  Uiso   1.00
C148   C     0.61267   0.08931   0.32859   0.00000  Uiso   1.00
H149   H     0.60258   0.05598   0.34446   0.00000  Uiso   1.00
H150   H     0.63758   0.10466   0.34811   0.00000  Uiso   1.00
H151   H     0.58595   0.11345   0.32965   0.00000  Uiso   1.00
H152   H     0.65305   0.05295   0.28396   0.00000  Uiso   1.00
H153   H     0.60451   0.06329   0.26149   0.00000  Uiso   1.00
C154   C     0.37132   0.25349   0.21910   0.00000  Uiso   1.00
C155   C     0.38733   0.24402   0.17141   0.00000  Uiso   1.00
H156   H     0.41405   0.21988   0.17035   0.00000  Uiso   1.00
H157   H     0.36242   0.22868   0.15189   0.00000  Uiso   1.00
H158   H     0.39742   0.27736   0.15554   0.00000  Uiso   1.00
H159   H     0.34695   0.28039   0.21604   0.00000  Uiso   1.00
H160   H     0.39549   0.27004   0.23851   0.00000  Uiso   1.00
Cl161  Cl    0.55930   0.05412   0.18292   0.00000  Uiso   1.00
Cl162  Cl    0.44070   0.27922   0.31708   0.00000  Uiso   1.00
Cl163  Cl    0.44070   0.05412   0.31708   0.00000  Uiso   1.00
Cl164  Cl    0.55930   0.27921   0.18293   0.00000  Uiso   1.00
C165   C     0.75422   0.16667   0.24577   0.00000  Uiso   1.00
C166   C     0.91244   0.16667   0.25423   0.00000  Uiso   1.00
C167   C     0.83313   0.25177   0.02313   0.00000  Uiso   1.00
C168   C     0.83353   0.08156   0.47687   0.00000  Uiso   1.00
C169   C     0.68724   0.12390   0.24184   0.00000  Uiso   1.00
C170   C     0.97942   0.20944   0.25816   0.00000  Uiso   1.00
C171   C     0.97942   0.12390   0.25816   0.00000  Uiso   1.00
C172   C     0.68724   0.20944   0.24184   0.00000  Uiso   1.00
C173   C     0.95745   0.16667   0.25898   0.00000  Uiso   1.00
C174   C     0.70921   0.16667   0.24102   0.00000  Uiso   1.00
C175   C     0.85893   0.02474   0.22102   0.00000  Uiso   1.00
C176   C     0.80773   0.30859   0.27898   0.00000  Uiso   1.00
C177   C     0.80773   0.02474   0.27898   0.00000  Uiso   1.00
C178   C     0.85893   0.30859   0.22102   0.00000  Uiso   1.00
C179   C     0.83320   0.16667   0.16431   0.00000  Uiso   1.00
C180   C     0.83347   0.16667   0.33569   0.00000  Uiso   1.00
C181   C     0.83396   0.12419   0.40730   0.00000  Uiso   1.00
C182   C     0.83271   0.20914   0.09270   0.00000  Uiso   1.00
C183   C     0.83385   0.16667   0.38411   0.00000  Uiso   1.00
C184   C     0.83282   0.16667   0.11589   0.00000  Uiso   1.00
C185   C     0.83396   0.20914   0.40730   0.00000  Uiso   1.00
C186   C     0.83271   0.12419   0.09270   0.00000  Uiso   1.00
C187   C     0.83372   0.20944   0.45352   0.00000  Uiso   1.00
C188   C     0.83295   0.12389   0.04648   0.00000  Uiso   1.00
C189   C     0.83353   0.16667   0.47675   0.00000  Uiso   1.00
C190   C     0.83314   0.16667   0.02325   0.00000  Uiso   1.00
C191   C     0.83372   0.12389   0.45352   0.00000  Uiso   1.00
C192   C     0.83295   0.20944   0.04649   0.00000  Uiso   1.00
C193   C     0.83354   0.25177   0.47687   0.00000  Uiso   1.00
C194   C     0.83313   0.08156   0.02313   0.00000  Uiso   1.00
Cu195  Cu    0.83333   0.21355   0.25000   0.00000  Uiso   1.00
Cu196  Cu    0.83333   0.11978   0.25000   0.00000  Uiso   1.00
H197   H     0.83412   0.09131   0.38949   0.00000  Uiso   1.00
H198   H     0.83255   0.24203   0.11051   0.00000  Uiso   1.00
H199   H     0.83412   0.24203   0.38949   0.00000  Uiso   1.00
H200   H     0.83254   0.09131   0.11051   0.00000  Uiso   1.00
H201   H     0.83367   0.28483   0.45937   0.00000  Uiso   1.00
H202   H     0.83300   0.04850   0.04063   0.00000  Uiso   1.00
H203   H     0.83300   0.28483   0.04063   0.00000  Uiso   1.00
H204   H     0.83367   0.04850   0.45937   0.00000  Uiso   1.00
N205   N     0.83333   0.28402   0.25000   0.00000  Uiso   1.00
N206   N     0.83333   0.04931   0.25000   0.00000  Uiso   1.00
O207   O     0.77321   0.20625   0.25000   0.00000  Uiso   1.00
O208   O     0.89345   0.12709   0.25000   0.00000  Uiso   1.00
O209   O     0.89345   0.20625   0.25001   0.00000  Uiso   1.00
O210   O     0.77321   0.12709   0.25000   0.00000  Uiso   1.00
O211   O     0.83332   0.20627   0.18513   0.00000  Uiso   1.00
O212   O     0.83334   0.12707   0.31487   0.00000  Uiso   1.00
O213   O     0.83334   0.20627   0.31487   0.00000  Uiso   1.00
O214   O     0.83332   0.12707   0.18513   0.00000  Uiso   1.00
C215   C     0.70465   0.07984   0.21910   0.00000  Uiso   1.00
C216   C     0.72066   0.08931   0.17141   0.00000  Uiso   1.00
H217   H     0.69575   0.10466   0.15189   0.00000  Uiso   1.00
H218   H     0.74739   0.11345   0.17035   0.00000  Uiso   1.00
H219   H     0.73075   0.05598   0.15554   0.00000  Uiso   1.00
H220   H     0.68028   0.05295   0.21604   0.00000  Uiso   1.00
H221   H     0.72882   0.06329   0.23851   0.00000  Uiso   1.00
C222   C     0.96202   0.25349   0.28090   0.00000  Uiso   1.00
C223   C     0.94600   0.24402   0.32859   0.00000  Uiso   1.00
H224   H     0.91928   0.21988   0.32965   0.00000  Uiso   1.00
H225   H     0.97092   0.22868   0.34811   0.00000  Uiso   1.00
H226   H     0.93591   0.27736   0.34446   0.00000  Uiso   1.00
H227   H     0.98638   0.28039   0.28396   0.00000  Uiso   1.00
H228   H     0.93784   0.27004   0.26149   0.00000  Uiso   1.00
C229   C     0.96202   0.07984   0.28090   0.00000  Uiso   1.00
C230   C     0.94600   0.08931   0.32859   0.00000  Uiso   1.00
H231   H     0.93591   0.05598   0.34446   0.00000  Uiso   1.00
H232   H     0.97092   0.10466   0.34811   0.00000  Uiso   1.00
H233   H     0.91928   0.11345   0.32965   0.00000  Uiso   1.00
H234   H     0.98638   0.05295   0.28396   0.00000  Uiso   1.00
H235   H     0.93784   0.06329   0.26149   0.00000  Uiso   1.00
C236   C     0.70465   0.25349   0.21910   0.00000  Uiso   1.00
C237   C     0.72066   0.24402   0.17141   0.00000  Uiso   1.00
H238   H     0.74739   0.21988   0.17035   0.00000  Uiso   1.00
H239   H     0.69575   0.22868   0.15189   0.00000  Uiso   1.00
H240   H     0.73075   0.27736   0.15554   0.00000  Uiso   1.00
H241   H     0.68028   0.28039   0.21604   0.00000  Uiso   1.00
H242   H     0.72882   0.27004   0.23851   0.00000  Uiso   1.00
Cl243  Cl    0.89264   0.05412   0.18292   0.00000  Uiso   1.00
Cl244  Cl    0.77403   0.27922   0.31708   0.00000  Uiso   1.00
Cl245  Cl    0.77403   0.05412   0.31708   0.00000  Uiso   1.00
Cl246  Cl    0.89264   0.27921   0.18293   0.00000  Uiso   1.00
C247   C     0.08756   0.50000   0.24577   0.00000  Uiso   1.00
C248   C     0.24578   0.50000   0.25423   0.00000  Uiso   1.00
C249   C     0.16646   0.58511   0.02313   0.00000  Uiso   1.00
C250   C     0.16687   0.41489   0.47687   0.00000  Uiso   1.00
C251   C     0.02058   0.45723   0.24184   0.00000  Uiso   1.00
C252   C     0.31276   0.54277   0.25816   0.00000  Uiso   1.00
C253   C     0.31276   0.45723   0.25816   0.00000  Uiso   1.00
C254   C     0.02058   0.54277   0.24184   0.00000  Uiso   1.00
C255   C     0.29079   0.50000   0.25898   0.00000  Uiso   1.00
C256   C     0.04255   0.50000   0.24102   0.00000  Uiso   1.00
C257   C     0.19227   0.35808   0.22102   0.00000  Uiso   1.00
C258   C     0.14106   0.64192   0.27898   0.00000  Uiso   1.00
C259   C     0.14106   0.35808   0.27898   0.00000  Uiso   1.00
C260   C     0.19227   0.64192   0.22102   0.00000  Uiso   1.00
C261   C     0.16653   0.50000   0.16431   0.00000  Uiso   1.00
C262   C     0.16680   0.50000   0.33569   0.00000  Uiso   1.00
C263   C     0.16729   0.45753   0.40730   0.00000  Uiso   1.00
C264   C     0.16604   0.54247   0.09270   0.00000  Uiso   1.00
C265   C     0.16718   0.50000   0.38411   0.00000  Uiso   1.00
C266   C     0.16615   0.50000   0.11589   0.00000  Uiso   1.00
C267   C     0.16729   0.54247   0.40730   0.00000  Uiso   1.00
C268   C     0.16604   0.45753   0.09270   0.00000  Uiso   1.00
C269   C     0.16705   0.54278   0.45352   0.00000  Uiso   1.00
C270   C     0.16628   0.45722   0.04648   0.00000  Uiso   1.00
C271   C     0.16686   0.50000   0.47675   0.00000  Uiso   1.00
C272   C     0.16647   0.50000   0.02325   0.00000  Uiso   1.00
C273   C     0.16705   0.45722   0.45352   0.00000  Uiso   1.00
C274   C     0.16628   0.54278   0.04649   0.00000  Uiso   1.00
C275   C     0.16687   0.58511   0.47687   0.00000  Uiso   1.00
C276   C     0.16646   0.41489   0.02313   0.00000  Uiso   1.00
Cu277  Cu    0.16667   0.54689   0.25000   0.00000  Uiso   1.00
Cu278  Cu    0.16667   0.45311   0.25000   0.00000  Uiso   1.00
H279   H     0.16745   0.42464   0.38949   0.00000  Uiso   1.00
H280   H     0.16588   0.57536   0.11051   0.00000  Uiso   1.00
H281   H     0.16746   0.57536   0.38949   0.00000  Uiso   1.00
H282   H     0.16588   0.42464   0.11051   0.00000  Uiso   1.00
H283   H     0.16700   0.61816   0.45937   0.00000  Uiso   1.00
H284   H     0.16633   0.38184   0.04063   0.00000  Uiso   1.00
H285   H     0.16633   0.61816   0.04063   0.00000  Uiso   1.00
H286   H     0.16700   0.38184   0.45937   0.00000  Uiso   1.00
N287   N     0.16667   0.61736   0.25000   0.00000  Uiso   1.00
N288   N     0.16667   0.38264   0.25000   0.00000  Uiso   1.00
O289   O     0.10655   0.53958   0.25000   0.00000  Uiso   1.00
O290   O     0.22679   0.46042   0.25000   0.00000  Uiso   1.00
O291   O     0.22679   0.53958   0.25001   0.00000  Uiso   1.00
O292   O     0.10655   0.46042   0.25000   0.00000  Uiso   1.00
O293   O     0.16666   0.53960   0.18513   0.00000  Uiso   1.00
O294   O     0.16668   0.46040   0.31487   0.00000  Uiso   1.00
O295   O     0.16668   0.53960   0.31487   0.00000  Uiso   1.00
O296   O     0.16666   0.46040   0.18513   0.00000  Uiso   1.00
C297   C     0.03798   0.41317   0.21910   0.00000  Uiso   1.00
C298   C     0.05400   0.42264   0.17141   0.00000  Uiso   1.00
H299   H     0.02908   0.43799   0.15189   0.00000  Uiso   1.00
H300   H     0.08072   0.44679   0.17035   0.00000  Uiso   1.00
H301   H     0.06409   0.38931   0.15554   0.00000  Uiso   1.00
H302   H     0.01362   0.38628   0.21604   0.00000  Uiso   1.00
H303   H     0.06216   0.39663   0.23851   0.00000  Uiso   1.00
C304   C     0.29535   0.58683   0.28090   0.00000  Uiso   1.00
C305   C     0.27934   0.57736   0.32859   0.00000  Uiso   1.00
H306   H     0.25261   0.55321   0.32965   0.00000  Uiso   1.00
H307   H     0.30425   0.56201   0.34811   0.00000  Uiso   1.00
H308   H     0.26925   0.61069   0.34446   0.00000  Uiso   1.00
H309   H     0.31972   0.61372   0.28396   0.00000  Uiso   1.00
H310   H     0.27118   0.60337   0.26149   0.00000  Uiso   1.00
C311   C     0.29535   0.41317   0.28090   0.00000  Uiso   1.00
C312   C     0.27934   0.42264   0.32859   0.00000  Uiso   1.00
H313   H     0.26925   0.38931   0.34446   0.00000  Uiso   1.00
H314   H     0.30425   0.43799   0.34811   0.00000  Uiso   1.00
H315   H     0.25261   0.44678   0.32965   0.00000  Uiso   1.00
H316   H     0.31972   0.38628   0.28396   0.00000  Uiso   1.00
H317   H     0.27118   0.39663   0.26149   0.00000  Uiso   1.00
C318   C     0.03798   0.58683   0.21910   0.00000  Uiso   1.00
C319   C     0.05400   0.57736   0.17141   0.00000  Uiso   1.00
H320   H     0.08072   0.55322   0.17035   0.00000  Uiso   1.00
H321   H     0.02908   0.56201   0.15189   0.00000  Uiso   1.00
H322   H     0.06409   0.61069   0.15554   0.00000  Uiso   1.00
H323   H     0.01362   0.61372   0.21604   0.00000  Uiso   1.00
H324   H     0.06216   0.60337   0.23851   0.00000  Uiso   1.00
Cl325  Cl    0.22597   0.38745   0.18292   0.00000  Uiso   1.00
Cl326  Cl    0.10736   0.61255   0.31708   0.00000  Uiso   1.00
Cl327  Cl    0.10736   0.38745   0.31708   0.00000  Uiso   1.00
Cl328  Cl    0.22597   0.61255   0.18293   0.00000  Uiso   1.00
C329   C     0.42089   0.50000   0.24577   0.00000  Uiso   1.00
C330   C     0.57911   0.50000   0.25423   0.00000  Uiso   1.00
C331   C     0.49980   0.58511   0.02313   0.00000  Uiso   1.00
C332   C     0.50020   0.41489   0.47687   0.00000  Uiso   1.00
C333   C     0.35391   0.45723   0.24184   0.00000  Uiso   1.00
C334   C     0.64609   0.54277   0.25816   0.00000  Uiso   1.00
C335   C     0.64609   0.45723   0.25816   0.00000  Uiso   1.00
C336   C     0.35391   0.54277   0.24184   0.00000  Uiso   1.00
C337   C     0.62412   0.50000   0.25898   0.00000  Uiso   1.00
C338   C     0.37588   0.50000   0.24102   0.00000  Uiso   1.00
C339   C     0.52560   0.35808   0.22102   0.00000  Uiso   1.00
C340   C     0.47440   0.64192   0.27898   0.00000  Uiso   1.00
C341   C     0.47440   0.35808   0.27898   0.00000  Uiso   1.00
C342   C     0.52560   0.64192   0.22102   0.00000  Uiso   1.00
C343   C     0.49986   0.50000   0.16431   0.00000  Uiso   1.00
C344   C     0.50013   0.50000   0.33569   0.00000  Uiso   1.00
C345   C     0.50063   0.45753   0.40730   0.00000  Uiso   1.00
C346   C     0.49937   0.54247   0.09270   0.00000  Uiso   1.00
C347   C     0.50051   0.50000   0.38411   0.00000  Uiso   1.00
C348   C     0.49949   0.50000   0.11589   0.00000  Uiso   1.00
C349   C     0.50063   0.54247   0.40730   0.00000  Uiso   1.00
C350   C     0.49937   0.45753   0.09270   0.00000  Uiso   1.00
C351   C     0.50038   0.54278   0.45352   0.00000  Uiso   1.00
C352   C     0.49961   0.45722   0.04648   0.00000  Uiso   1.00
C353   C     0.50019   0.50000   0.47675   0.00000  Uiso   1.00
C354   C     0.49981   0.50000   0.02325   0.00000  Uiso   1.00
C355   C     0.50038   0.45722   0.45352   0.00000  Uiso   1.00
C356   C     0.49962   0.54278   0.04649   0.00000  Uiso   1.00
C357   C     0.50020   0.58511   0.47687   0.00000  Uiso   1.00
C358   C     0.49980   0.41489   0.02313   0.00000  Uiso   1.00
Cu359  Cu    0.50000   0.54689   0.25000   0.00000  Uiso   1.00
Cu360  Cu    0.50000   0.45311   0.25000   0.00000  Uiso   1.00
H361   H     0.50079   0.42464   0.38949   0.00000  Uiso   1.00
H362   H     0.49921   0.57536   0.11051   0.00000  Uiso   1.00
H363   H     0.50079   0.57536   0.38949   0.00000  Uiso   1.00
H364   H     0.49921   0.42464   0.11051   0.00000  Uiso   1.00
H365   H     0.50033   0.61816   0.45937   0.00000  Uiso   1.00
H366   H     0.49967   0.38184   0.04063   0.00000  Uiso   1.00
H367   H     0.49967   0.61816   0.04063   0.00000  Uiso   1.00
H368   H     0.50033   0.38184   0.45937   0.00000  Uiso   1.00
N369   N     0.50000   0.61736   0.25000   0.00000  Uiso   1.00
N370   N     0.50000   0.38264   0.25000   0.00000  Uiso   1.00
O371   O     0.43988   0.53958   0.25000   0.00000  Uiso   1.00
O372   O     0.56012   0.46042   0.25000   0.00000  Uiso   1.00
O373   O     0.56012   0.53958   0.25001   0.00000  Uiso   1.00
O374   O     0.43988   0.46042   0.25000   0.00000  Uiso   1.00
O375   O     0.49999   0.53960   0.18513   0.00000  Uiso   1.00
O376   O     0.50001   0.46040   0.31487   0.00000  Uiso   1.00
O377   O     0.50001   0.53960   0.31487   0.00000  Uiso   1.00
O378   O     0.49999   0.46040   0.18513   0.00000  Uiso   1.00
C379   C     0.37132   0.41317   0.21910   0.00000  Uiso   1.00
C380   C     0.38733   0.42264   0.17141   0.00000  Uiso   1.00
H381   H     0.36242   0.43799   0.15189   0.00000  Uiso   1.00
H382   H     0.41405   0.44679   0.17035   0.00000  Uiso   1.00
H383   H     0.39742   0.38931   0.15554   0.00000  Uiso   1.00
H384   H     0.34695   0.38628   0.21604   0.00000  Uiso   1.00
H385   H     0.39549   0.39663   0.23851   0.00000  Uiso   1.00
C386   C     0.62868   0.58683   0.28090   0.00000  Uiso   1.00
C387   C     0.61267   0.57736   0.32859   0.00000  Uiso   1.00
H388   H     0.58594   0.55321   0.32965   0.00000  Uiso   1.00
H389   H     0.63758   0.56201   0.34811   0.00000  Uiso   1.00
H390   H     0.60258   0.61069   0.34446   0.00000  Uiso   1.00
H391   H     0.65305   0.61372   0.28396   0.00000  Uiso   1.00
H392   H     0.60451   0.60337   0.26149   0.00000  Uiso   1.00
C393   C     0.62868   0.41317   0.28090   0.00000  Uiso   1.00
C394   C     0.61267   0.42264   0.32859   0.00000  Uiso   1.00
H395   H     0.60258   0.38931   0.34446   0.00000  Uiso   1.00
H396   H     0.63758   0.43799   0.34811   0.00000  Uiso   1.00
H397   H     0.58595   0.44678   0.32965   0.00000  Uiso   1.00
H398   H     0.65305   0.38628   0.28396   0.00000  Uiso   1.00
H399   H     0.60451   0.39663   0.26149   0.00000  Uiso   1.00
C400   C     0.37132   0.58683   0.21910   0.00000  Uiso   1.00
C401   C     0.38733   0.57736   0.17141   0.00000  Uiso   1.00
H402   H     0.41405   0.55322   0.17035   0.00000  Uiso   1.00
H403   H     0.36242   0.56201   0.15189   0.00000  Uiso   1.00
H404   H     0.39742   0.61069   0.15554   0.00000  Uiso   1.00
H405   H     0.34695   0.61372   0.21604   0.00000  Uiso   1.00
H406   H     0.39549   0.60337   0.23851   0.00000  Uiso   1.00
Cl407  Cl    0.55930   0.38745   0.18292   0.00000  Uiso   1.00
Cl408  Cl    0.44070   0.61255   0.31708   0.00000  Uiso   1.00
Cl409  Cl    0.44070   0.38745   0.31708   0.00000  Uiso   1.00
Cl410  Cl    0.55930   0.61255   0.18293   0.00000  Uiso   1.00
C411   C     0.75422   0.50000   0.24577   0.00000  Uiso   1.00
C412   C     0.91244   0.50000   0.25423   0.00000  Uiso   1.00
C413   C     0.83313   0.58511   0.02313   0.00000  Uiso   1.00
C414   C     0.83353   0.41489   0.47687   0.00000  Uiso   1.00
C415   C     0.68724   0.45723   0.24184   0.00000  Uiso   1.00
C416   C     0.97942   0.54277   0.25816   0.00000  Uiso   1.00
C417   C     0.97942   0.45723   0.25816   0.00000  Uiso   1.00
C418   C     0.68724   0.54277   0.24184   0.00000  Uiso   1.00
C419   C     0.95745   0.50000   0.25898   0.00000  Uiso   1.00
C420   C     0.70921   0.50000   0.24102   0.00000  Uiso   1.00
C421   C     0.85893   0.35808   0.22102   0.00000  Uiso   1.00
C422   C     0.80773   0.64192   0.27898   0.00000  Uiso   1.00
C423   C     0.80773   0.35808   0.27898   0.00000  Uiso   1.00
C424   C     0.85893   0.64192   0.22102   0.00000  Uiso   1.00
C425   C     0.83320   0.50000   0.16431   0.00000  Uiso   1.00
C426   C     0.83347   0.50000   0.33569   0.00000  Uiso   1.00
C427   C     0.83396   0.45753   0.40730   0.00000  Uiso   1.00
C428   C     0.83271   0.54247   0.09270   0.00000  Uiso   1.00
C429   C     0.83385   0.50000   0.38411   0.00000  Uiso   1.00
C430   C     0.83282   0.50000   0.11589   0.00000  Uiso   1.00
C431   C     0.83396   0.54247   0.40730   0.00000  Uiso   1.00
C432   C     0.83271   0.45753   0.09270   0.00000  Uiso   1.00
C433   C     0.83372   0.54278   0.45352   0.00000  Uiso   1.00
C434   C     0.83295   0.45722   0.04648   0.00000  Uiso   1.00
C435   C     0.83353   0.50000   0.47675   0.00000  Uiso   1.00
C436   C     0.83314   0.50000   0.02325   0.00000  Uiso   1.00
C437   C     0.83372   0.45722   0.45352   0.00000  Uiso   1.00
C438   C     0.83295   0.54278   0.04649   0.00000  Uiso   1.00
C439   C     0.83354   0.58511   0.47687   0.00000  Uiso   1.00
C440   C     0.83313   0.41489   0.02313   0.00000  Uiso   1.00
Cu441  Cu    0.83333   0.54689   0.25000   0.00000  Uiso   1.00
Cu442  Cu    0.83333   0.45311   0.25000   0.00000  Uiso   1.00
H443   H     0.83412   0.42464   0.38949   0.00000  Uiso   1.00
H444   H     0.83255   0.57536   0.11051   0.00000  Uiso   1.00
H445   H     0.83412   0.57536   0.38949   0.00000  Uiso   1.00
H446   H     0.83254   0.42464   0.11051   0.00000  Uiso   1.00
H447   H     0.83367   0.61816   0.45937   0.00000  Uiso   1.00
H448   H     0.83300   0.38184   0.04063   0.00000  Uiso   1.00
H449   H     0.83300   0.61816   0.04063   0.00000  Uiso   1.00
H450   H     0.83367   0.38184   0.45937   0.00000  Uiso   1.00
N451   N     0.83333   0.61736   0.25000   0.00000  Uiso   1.00
N452   N     0.83333   0.38264   0.25000   0.00000  Uiso   1.00
O453   O     0.77321   0.53958   0.25000   0.00000  Uiso   1.00
O454   O     0.89345   0.46042   0.25000   0.00000  Uiso   1.00
O455   O     0.89345   0.53958   0.25001   0.00000  Uiso   1.00
O456   O     0.77321   0.46042   0.25000   0.00000  Uiso   1.00
O457   O     0.83332   0.53960   0.18513   0.00000  Uiso   1.00
O458   O     0.83334   0.46040   0.31487   0.00000  Uiso   1.00
O459   O     0.83334   0.53960   0.31487   0.00000  Uiso   1.00
O460   O     0.83332   0.46040   0.18513   0.00000  Uiso   1.00
C461   C     0.70465   0.41317   0.21910   0.00000  Uiso   1.00
C462   C     0.72066   0.42264   0.17141   0.00000  Uiso   1.00
H463   H     0.69575   0.43799   0.15189   0.00000  Uiso   1.00
H464   H     0.74739   0.44679   0.17035   0.00000  Uiso   1.00
H465   H     0.73075   0.38931   0.15554   0.00000  Uiso   1.00
H466   H     0.68028   0.38628   0.21604   0.00000  Uiso   1.00
H467   H     0.72882   0.39663   0.23851   0.00000  Uiso   1.00
C468   C     0.96202   0.58683   0.28090   0.00000  Uiso   1.00
C469   C     0.94600   0.57736   0.32859   0.00000  Uiso   1.00
H470   H     0.91928   0.55321   0.32965   0.00000  Uiso   1.00
H471   H     0.97092   0.56201   0.34811   0.00000  Uiso   1.00
H472   H     0.93591   0.61069   0.34446   0.00000  Uiso   1.00
H473   H     0.98638   0.61372   0.28396   0.00000  Uiso   1.00
H474   H     0.93784   0.60337   0.26149   0.00000  Uiso   1.00
C475   C     0.96202   0.41317   0.28090   0.00000  Uiso   1.00
C476   C     0.94600   0.42264   0.32859   0.00000  Uiso   1.00
H477   H     0.93591   0.38931   0.34446   0.00000  Uiso   1.00
H478   H     0.97092   0.43799   0.34811   0.00000  Uiso   1.00
H479   H     0.91928   0.44678   0.32965   0.00000  Uiso   1.00
H480   H     0.98638   0.38628   0.28396   0.00000  Uiso   1.00
H481   H     0.93784   0.39663   0.26149   0.00000  Uiso   1.00
C482   C     0.70465   0.58683   0.21910   0.00000  Uiso   1.00
C483   C     0.72066   0.57736   0.17141   0.00000  Uiso   1.00
H484   H     0.74739   0.55322   0.17035   0.00000  Uiso   1.00
H485   H     0.69575   0.56201   0.15189   0.00000  Uiso   1.00
H486   H     0.73075   0.61069   0.15554   0.00000  Uiso   1.00
H487   H     0.68028   0.61372   0.21604   0.00000  Uiso   1.00
H488   H     0.72882   0.60337   0.23851   0.00000  Uiso   1.00
Cl489  Cl    0.89264   0.38745   0.18292   0.00000  Uiso   1.00
Cl490  Cl    0.77403   0.61255   0.31708   0.00000  Uiso   1.00
Cl491  Cl    0.77403   0.38745   0.31708   0.00000  Uiso   1.00
Cl492  Cl    0.89264   0.61255   0.18293   0.00000  Uiso   1.00
C493   C     0.08756   0.83333   0.24577   0.00000  Uiso   1.00
C494   C     0.24578   0.83333   0.25423   0.00000  Uiso   1.00
C495   C     0.16646   0.91844   0.02313   0.00000  Uiso   1.00
C496   C     0.16687   0.74823   0.47687   0.00000  Uiso   1.00
C497   C     0.02058   0.79056   0.24184   0.00000  Uiso   1.00
C498   C     0.31276   0.87610   0.25816   0.00000  Uiso   1.00
C499   C     0.31276   0.79056   0.25816   0.00000  Uiso   1.00
C500   C     0.02058   0.87610   0.24184   0.00000  Uiso   1.00
C501   C     0.29079   0.83333   0.25898   0.00000  Uiso   1.00
C502   C     0.04255   0.83333   0.24102   0.00000  Uiso   1.00
C503   C     0.19227   0.69141   0.22102   0.00000  Uiso   1.00
C504   C     0.14106   0.97526   0.27898   0.00000  Uiso   1.00
C505   C     0.14106   0.69141   0.27898   0.00000  Uiso   1.00
C506   C     0.19227   0.97526   0.22102   0.00000  Uiso   1.00
C507   C     0.16653   0.83333   0.16431   0.00000  Uiso   1.00
C508   C     0.16680   0.83333   0.33569   0.00000  Uiso   1.00
C509   C     0.16729   0.79086   0.40730   0.00000  Uiso   1.00
C510   C     0.16604   0.87581   0.09270   0.00000  Uiso   1.00
C511   C     0.16718   0.83333   0.38411   0.00000  Uiso   1.00
C512   C     0.16615   0.83333   0.11589   0.00000  Uiso   1.00
C513   C     0.16729   0.87581   0.40730   0.00000  Uiso   1.00
C514   C     0.16604   0.79086   0.09270   0.00000  Uiso   1.00
C515   C     0.16705   0.87611   0.45352   0.00000  Uiso   1.00
C516   C     0.16628   0.79056   0.04648   0.00000  Uiso   1.00
C517   C     0.16686   0.83333   0.47675   0.00000  Uiso   1.00
C518   C     0.16647   0.83333   0.02325   0.00000  Uiso   1.00
C519   C     0.16705   0.79056   0.45352   0.00000  Uiso   1.00
C520   C     0.16628   0.87611   0.04649   0.00000  Uiso   1.00
C521   C     0.16687   0.91844   0.47687   0.00000  Uiso   1.00
C522   C     0.16646   0.74823   0.02313   0.00000  Uiso   1.00
Cu523  Cu    0.16667   0.88022   0.25000   0.00000  Uiso   1.00
Cu524  Cu    0.16667   0.78645   0.25000   0.00000  Uiso   1.00
H525   H     0.16745   0.75797   0.38949   0.00000  Uiso   1.00
H526   H     0.16588   0.90869   0.11051   0.00000  Uiso   1.00
H527   H     0.16746   0.90869   0.38949   0.00000  Uiso   1.00
H528   H     0.16588   0.75797   0.11051   0.00000  Uiso   1.00
H529   H     0.16700   0.95150   0.45937   0.00000  Uiso   1.00
H530   H     0.16633   0.71517   0.04063   0.00000  Uiso   1.00
H531   H     0.16633   0.95150   0.04063   0.00000  Uiso   1.00
H532   H     0.16700   0.71517   0.45937   0.00000  Uiso   1.00
N533   N     0.16667   0.95069   0.25000   0.00000  Uiso   1.00
N534   N     0.16667   0.71598   0.25000   0.00000  Uiso   1.00
O535   O     0.10655   0.87291   0.25000   0.00000  Uiso   1.00
O536   O     0.22679   0.79375   0.25000   0.00000  Uiso   1.00
O537   O     0.22679   0.87291   0.25001   0.00000  Uiso   1.00
O538   O     0.10655   0.79375   0.25000   0.00000  Uiso   1.00
O539   O     0.16666   0.87293   0.18513   0.00000  Uiso   1.00
O540   O     0.16668   0.79373   0.31487   0.00000  Uiso   1.00
O541   O     0.16668   0.87293   0.31487   0.00000  Uiso   1.00
O542   O     0.16666   0.79373   0.18513   0.00000  Uiso   1.00
C543   C     0.03798   0.74651   0.21910   0.00000  Uiso   1.00
C544   C     0.05400   0.75598   0.17141   0.00000  Uiso   1.00
H545   H     0.02908   0.77132   0.15189   0.00000  Uiso   1.00
H546   H     0.08072   0.78012   0.17035   0.00000  Uiso   1.00
H547   H     0.06409   0.72264   0.15554   0.00000  Uiso   1.00
H548   H     0.01362   0.71961   0.21604   0.00000  Uiso   1.00
H549   H     0.06216   0.72996   0.23851   0.00000  Uiso   1.00
C550   C     0.29535   0.92016   0.28090   0.00000  Uiso   1.00
C551   C     0.27934   0.91069   0.32859   0.00000  Uiso   1.00
H552   H     0.25261   0.88655   0.32965   0.00000  Uiso   1.00
H553   H     0.30425   0.89534   0.34811   0.00000  Uiso   1.00
H554   H     0.26925   0.94402   0.34446   0.00000  Uiso   1.00
H555   H     0.31972   0.94705   0.28396   0.00000  Uiso   1.00
H556   H     0.27118   0.93671   0.26149   0.00000  Uiso   1.00
C557   C     0.29535   0.74651   0.28090   0.00000  Uiso   1.00
C558   C     0.27934   0.75598   0.32859   0.00000  Uiso   1.00
H559   H     0.26925   0.72264   0.34446   0.00000  Uiso   1.00
H560   H     0.30425   0.77132   0.34811   0.00000  Uiso   1.00
H561   H     0.25261   0.78012   0.32965   0.00000  Uiso   1.00
H562   H     0.31972   0.71961   0.28396   0.00000  Uiso   1.00
H563   H     0.27118   0.72996   0.26149   0.00000  Uiso   1.00
C564   C     0.03798   0.92016   0.21910   0.00000  Uiso   1.00
C565   C     0.05400   0.91069   0.17141   0.00000  Uiso   1.00
H566   H     0.08072   0.88655   0.17035   0.00000  Uiso   1.00
H567   H     0.02908   0.89534   0.15189   0.00000  Uiso   1.00
H568   H     0.06409   0.94402   0.15554   0.00000  Uiso   1.00
H569   H     0.01362   0.94705   0.21604   0.00000  Uiso   1.00
H570   H     0.06216   0.93671   0.23851   0.00000  Uiso   1.00
Cl571  Cl    0.22597   0.72079   0.18292   0.00000  Uiso   1.00
Cl572  Cl    0.10736   0.94588   0.31708   0.00000  Uiso   1.00
Cl573  Cl    0.10736   0.72079   0.31708   0.00000  Uiso   1.00
Cl574  Cl    0.22597   0.94588   0.18293   0.00000  Uiso   1.00
C575   C     0.42089   0.83333   0.24577   0.00000  Uiso   1.00
C576   C     0.57911   0.83333   0.25423   0.00000  Uiso   1.00
C577   C     0.49980   0.91844   0.02313   0.00000  Uiso   1.00
C578   C     0.50020   0.74823   0.47687   0.00000  Uiso   1.00
C579   C     0.35391   0.79056   0.24184   0.00000  Uiso   1.00
C580   C     0.64609   0.87610   0.25816   0.00000  Uiso   1.00
C581   C     0.64609   0.79056   0.25816   0.00000  Uiso   1.00
C582   C     0.35391   0.87610   0.24184   0.00000  Uiso   1.00
C583   C     0.62412   0.83333   0.25898   0.00000  Uiso   1.00
C584   C     0.37588   0.83333   0.24102   0.00000  Uiso   1.00
C585   C     0.52560   0.69141   0.22102   0.00000  Uiso   1.00
C586   C     0.47440   0.97526   0.27898   0.00000  Uiso   1.00
C587   C     0.47440   0.69141   0.27898   0.00000  Uiso   1.00
C588   C     0.52560   0.97526   0.22102   0.00000  Uiso   1.00
C589   C     0.49986   0.83333   0.16431   0.00000  Uiso   1.00
C590   C     0.50013   0.83333   0.33569   0.00000  Uiso   1.00
C591   C     0.50063   0.79086   0.40730   0.00000  Uiso   1.00
C592   C     0.49937   0.87581   0.09270   0.00000  Uiso   1.00
C593   C     0.50051   0.83333   0.38411   0.00000  Uiso   1.00
C594   C     0.49949   0.83333   0.11589   0.00000  Uiso   1.00
C595   C     0.50063   0.87581   0.40730   0.00000  Uiso   1.00
C596   C     0.49937   0.79086   0.09270   0.00000  Uiso   1.00
C597   C     0.50038   0.87611   0.45352   0.00000  Uiso   1.00
C598   C     0.49961   0.79056   0.04648   0.00000  Uiso   1.00
C599   C     0.50019   0.83333   0.47675   0.00000  Uiso   1.00
C600   C     0.49981   0.83333   0.02325   0.00000  Uiso   1.00
C601   C     0.50038   0.79056   0.45352   0.00000  Uiso   1.00
C602   C     0.49962   0.87611   0.04649   0.00000  Uiso   1.00
C603   C     0.50020   0.91844   0.47687   0.00000  Uiso   1.00
C604   C     0.49980   0.74823   0.02313   0.00000  Uiso   1.00
Cu605  Cu    0.50000   0.88022   0.25000   0.00000  Uiso   1.00
Cu606  Cu    0.50000   0.78645   0.25000   0.00000  Uiso   1.00
H607   H     0.50079   0.75797   0.38949   0.00000  Uiso   1.00
H608   H     0.49921   0.90869   0.11051   0.00000  Uiso   1.00
H609   H     0.50079   0.90869   0.38949   0.00000  Uiso   1.00
H610   H     0.49921   0.75797   0.11051   0.00000  Uiso   1.00
H611   H     0.50033   0.95150   0.45937   0.00000  Uiso   1.00
H612   H     0.49967   0.71517   0.04063   0.00000  Uiso   1.00
H613   H     0.49967   0.95150   0.04063   0.00000  Uiso   1.00
H614   H     0.50033   0.71517   0.45937   0.00000  Uiso   1.00
N615   N     0.50000   0.95069   0.25000   0.00000  Uiso   1.00
N616   N     0.50000   0.71598   0.25000   0.00000  Uiso   1.00
O617   O     0.43988   0.87291   0.25000   0.00000  Uiso   1.00
O618   O     0.56012   0.79375   0.25000   0.00000  Uiso   1.00
O619   O     0.56012   0.87291   0.25001   0.00000  Uiso   1.00
O620   O     0.43988   0.79375   0.25000   0.00000  Uiso   1.00
O621   O     0.49999   0.87293   0.18513   0.00000  Uiso   1.00
O622   O     0.50001   0.79373   0.31487   0.00000  Uiso   1.00
O623   O     0.50001   0.87293   0.31487   0.00000  Uiso   1.00
O624   O     0.49999   0.79373   0.18513   0.00000  Uiso   1.00
C625   C     0.37132   0.74651   0.21910   0.00000  Uiso   1.00
C626   C     0.38733   0.75598   0.17141   0.00000  Uiso   1.00
H627   H     0.36242   0.77132   0.15189   0.00000  Uiso   1.00
H628   H     0.41405   0.78012   0.17035   0.00000  Uiso   1.00
H629   H     0.39742   0.72264   0.15554   0.00000  Uiso   1.00
H630   H     0.34695   0.71961   0.21604   0.00000  Uiso   1.00
H631   H     0.39549   0.72996   0.23851   0.00000  Uiso   1.00
C632   C     0.62868   0.92016   0.28090   0.00000  Uiso   1.00
C633   C     0.61267   0.91069   0.32859   0.00000  Uiso   1.00
H634   H     0.58594   0.88655   0.32965   0.00000  Uiso   1.00
H635   H     0.63758   0.89534   0.34811   0.00000  Uiso   1.00
H636   H     0.60258   0.94402   0.34446   0.00000  Uiso   1.00
H637   H     0.65305   0.94705   0.28396   0.00000  Uiso   1.00
H638   H     0.60451   0.93671   0.26149   0.00000  Uiso   1.00
C639   C     0.62868   0.74651   0.28090   0.00000  Uiso   1.00
C640   C     0.61267   0.75598   0.32859   0.00000  Uiso   1.00
H641   H     0.60258   0.72264   0.34446   0.00000  Uiso   1.00
H642   H     0.63758   0.77132   0.34811   0.00000  Uiso   1.00
H643   H     0.58595   0.78012   0.32965   0.00000  Uiso   1.00
H644   H     0.65305   0.71961   0.28396   0.00000  Uiso   1.00
H645   H     0.60451   0.72996   0.26149   0.00000  Uiso   1.00
C646   C     0.37132   0.92016   0.21910   0.00000  Uiso   1.00
C647   C     0.38733   0.91069   0.17141   0.00000  Uiso   1.00
H648   H     0.41405   0.88655   0.17035   0.00000  Uiso   1.00
H649   H     0.36242   0.89534   0.15189   0.00000  Uiso   1.00
H650   H     0.39742   0.94402   0.15554   0.00000  Uiso   1.00
H651   H     0.34695   0.94705   0.21604   0.00000  Uiso   1.00
H652   H     0.39549   0.93671   0.23851   0.00000  Uiso   1.00
Cl653  Cl    0.55930   0.72079   0.18292   0.00000  Uiso   1.00
Cl654  Cl    0.44070   0.94588   0.31708   0.00000  Uiso   1.00
Cl655  Cl    0.44070   0.72079   0.31708   0.00000  Uiso   1.00
Cl656  Cl    0.55930   0.94588   0.18293   0.00000  Uiso   1.00
C657   C     0.75422   0.83333   0.24577   0.00000  Uiso   1.00
C658   C     0.91244   0.83333   0.25423   0.00000  Uiso   1.00
C659   C     0.83313   0.91844   0.02313   0.00000  Uiso   1.00
C660   C     0.83353   0.74823   0.47687   0.00000  Uiso   1.00
C661   C     0.68724   0.79056   0.24184   0.00000  Uiso   1.00
C662   C     0.97942   0.87610   0.25816   0.00000  Uiso   1.00
C663   C     0.97942   0.79056   0.25816   0.00000  Uiso   1.00
C664   C     0.68724   0.87610   0.24184   0.00000  Uiso   1.00
C665   C     0.95745   0.83333   0.25898   0.00000  Uiso   1.00
C666   C     0.70921   0.83333   0.24102   0.00000  Uiso   1.00
C667   C     0.85893   0.69141   0.22102   0.00000  Uiso   1.00
C668   C     0.80773   0.97526   0.27898   0.00000  Uiso   1.00
C669   C     0.80773   0.69141   0.27898   0.00000  Uiso   1.00
C670   C     0.85893   0.97526   0.22102   0.00000  Uiso   1.00
C671   C     0.83320   0.83333   0.16431   0.00000  Uiso   1.00
C672   C     0.83347   0.83333   0.33569   0.00000  Uiso   1.00
C673   C     0.83396   0.79086   0.40730   0.00000  Uiso   1.00
C674   C     0.83271   0.87581   0.09270   0.00000  Uiso   1.00
C675   C     0.83385   0.83333   0.38411   0.00000  Uiso   1.00
C676   C     0.83282   0.83333   0.11589   0.00000  Uiso   1.00
C677   C     0.83396   0.87581   0.40730   0.00000  Uiso   1.00
C678   C     0.83271   0.79086   0.09270   0.00000  Uiso   1.00
C679   C     0.83372   0.87611   0.45352   0.00000  Uiso   1.00
C680   C     0.83295   0.79056   0.04648   0.00000  Uiso   1.00
C681   C     0.83353   0.83333   0.47675   0.00000  Uiso   1.00
C682   C     0.83314   0.83333   0.02325   0.00000  Uiso   1.00
C683   C     0.83372   0.79056   0.45352   0.00000  Uiso   1.00
C684   C     0.83295   0.87611   0.04649   0.00000  Uiso   1.00
C685   C     0.83354   0.91844   0.47687   0.00000  Uiso   1.00
C686   C     0.83313   0.74823   0.02313   0.00000  Uiso   1.00
Cu687  Cu    0.83333   0.88022   0.25000   0.00000  Uiso   1.00
Cu688  Cu    0.83333   0.78645   0.25000   0.00000  Uiso   1.00
H689   H     0.83412   0.75797   0.38949   0.00000  Uiso   1.00
H690   H     0.83255   0.90869   0.11051   0.00000  Uiso   1.00
H691   H     0.83412   0.90869   0.38949   0.00000  Uiso   1.00
H692   H     0.83254   0.75797   0.11051   0.00000  Uiso   1.00
H693   H     0.83367   0.95150   0.45937   0.00000  Uiso   1.00
H694   H     0.83300   0.71517   0.04063   0.00000  Uiso   1.00
H695   H     0.83300   0.95150   0.04063   0.00000  Uiso   1.00
H696   H     0.83367   0.71517   0.45937   0.00000  Uiso   1.00
N697   N     0.83333   0.95069   0.25000   0.00000  Uiso   1.00
N698   N     0.83333   0.71598   0.25000   0.00000  Uiso   1.00
O699   O     0.77321   0.87291   0.25000   0.00000  Uiso   1.00
O700   O     0.89345   0.79375   0.25000   0.00000  Uiso   1.00
O701   O     0.89345   0.87291   0.25001   0.00000  Uiso   1.00
O702   O     0.77321   0.79375   0.25000   0.00000  Uiso   1.00
O703   O     0.83332   0.87293   0.18513   0.00000  Uiso   1.00
O704   O     0.83334   0.79373   0.31487   0.00000  Uiso   1.00
O705   O     0.83334   0.87293   0.31487   0.00000  Uiso   1.00
O706   O     0.83332   0.79373   0.18513   0.00000  Uiso   1.00
C707   C     0.70465   0.74651   0.21910   0.00000  Uiso   1.00
C708   C     0.72066   0.75598   0.17141   0.00000  Uiso   1.00
H709   H     0.69575   0.77132   0.15189   0.00000  Uiso   1.00
H710   H     0.74739   0.78012   0.17035   0.00000  Uiso   1.00
H711   H     0.73075   0.72264   0.15554   0.00000  Uiso   1.00
H712   H     0.68028   0.71961   0.21604   0.00000  Uiso   1.00
H713   H     0.72882   0.72996   0.23851   0.00000  Uiso   1.00
C714   C     0.96202   0.92016   0.28090   0.00000  Uiso   1.00
C715   C     0.94600   0.91069   0.32859   0.00000  Uiso   1.00
H716   H     0.91928   0.88655   0.32965   0.00000  Uiso   1.00
H717   H     0.97092   0.89534   0.34811   0.00000  Uiso   1.00
H718   H     0.93591   0.94402   0.34446   0.00000  Uiso   1.00
H719   H     0.98638   0.94705   0.28396   0.00000  Uiso   1.00
H720   H     0.93784   0.93671   0.26149   0.00000  Uiso   1.00
C721   C     0.96202   0.74651   0.28090   0.00000  Uiso   1.00
C722   C     0.94600   0.75598   0.32859   0.00000  Uiso   1.00
H723   H     0.93591   0.72264   0.34446   0.00000  Uiso   1.00
H724   H     0.97092   0.77132   0.34811   0.00000  Uiso   1.00
H725   H     0.91928   0.78012   0.32965   0.00000  Uiso   1.00
H726   H     0.98638   0.71961   0.28396   0.00000  Uiso   1.00
H727   H     0.93784   0.72996   0.26149   0.00000  Uiso   1.00
C728   C     0.70465   0.92016   0.21910   0.00000  Uiso   1.00
C729   C     0.72066   0.91069   0.17141   0.00000  Uiso   1.00
H730   H     0.74739   0.88655   0.17035   0.00000  Uiso   1.00
H731   H     0.69575   0.89534   0.15189   0.00000  Uiso   1.00
H732   H     0.73075   0.94402   0.15554   0.00000  Uiso   1.00
H733   H     0.68028   0.94705   0.21604   0.00000  Uiso   1.00
H734   H     0.72882   0.93671   0.23851   0.00000  Uiso   1.00
Cl735  Cl    0.89264   0.72079   0.18292   0.00000  Uiso   1.00
Cl736  Cl    0.77403   0.94588   0.31708   0.00000  Uiso   1.00
Cl737  Cl    0.77403   0.72079   0.31708   0.00000  Uiso   1.00
Cl738  Cl    0.89264   0.94588   0.18293   0.00000  Uiso   1.00
C739   C     0.08756   0.16667   0.74577   0.00000  Uiso   1.00
C740   C     0.24578   0.16667   0.75423   0.00000  Uiso   1.00
C741   C     0.16646   0.25177   0.52313   0.00000  Uiso   1.00
C742   C     0.16687   0.08156   0.97687   0.00000  Uiso   1.00
C743   C     0.02058   0.12390   0.74184   0.00000  Uiso   1.00
C744   C     0.31276   0.20944   0.75816   0.00000  Uiso   1.00
C745   C     0.31276   0.12390   0.75816   0.00000  Uiso   1.00
C746   C     0.02058   0.20944   0.74184   0.00000  Uiso   1.00
C747   C     0.29079   0.16667   0.75898   0.00000  Uiso   1.00
C748   C     0.04255   0.16667   0.74102   0.00000  Uiso   1.00
C749   C     0.19227   0.02474   0.72102   0.00000  Uiso   1.00
C750   C     0.14106   0.30859   0.77898   0.00000  Uiso   1.00
C751   C     0.14106   0.02474   0.77898   0.00000  Uiso   1.00
C752   C     0.19227   0.30859   0.72102   0.00000  Uiso   1.00
C753   C     0.16653   0.16667   0.66431   0.00000  Uiso   1.00
C754   C     0.16680   0.16667   0.83569   0.00000  Uiso   1.00
C755   C     0.16729   0.12419   0.90730   0.00000  Uiso   1.00
C756   C     0.16604   0.20914   0.59270   0.00000  Uiso   1.00
C757   C     0.16718   0.16667   0.88411   0.00000  Uiso   1.00
C758   C     0.16615   0.16667   0.61589   0.00000  Uiso   1.00
C759   C     0.16729   0.20914   0.90730   0.00000  Uiso   1.00
C760   C     0.16604   0.12419   0.59270   0.00000  Uiso   1.00
C761   C     0.16705   0.20944   0.95352   0.00000  Uiso   1.00
C762   C     0.16628   0.12389   0.54648   0.00000  Uiso   1.00
C763   C     0.16686   0.16667   0.97675   0.00000  Uiso   1.00
C764   C     0.16647   0.16667   0.52325   0.00000  Uiso   1.00
C765   C     0.16705   0.12389   0.95352   0.00000  Uiso   1.00
C766   C     0.16628   0.20944   0.54649   0.00000  Uiso   1.00
C767   C     0.16687   0.25177   0.97687   0.00000  Uiso   1.00
C768   C     0.16646   0.08156   0.52313   0.00000  Uiso   1.00
Cu769  Cu    0.16667   0.21355   0.75000   0.00000  Uiso   1.00
Cu770  Cu    0.16667   0.11978   0.75000   0.00000  Uiso   1.00
H771   H     0.16745   0.09131   0.88949   0.00000  Uiso   1.00
H772   H     0.16588   0.24203   0.61051   0.00000  Uiso   1.00
H773   H     0.16746   0.24203   0.88949   0.00000  Uiso   1.00
H774   H     0.16588   0.09131   0.61051   0.00000  Uiso   1.00
H775   H     0.16700   0.28483   0.95937   0.00000  Uiso   1.00
H776   H     0.16633   0.04850   0.54063   0.00000  Uiso   1.00
H777   H     0.16633   0.28483   0.54063   0.00000  Uiso   1.00
H778   H     0.16700   0.04850   0.95937   0.00000  Uiso   1.00
N779   N     0.16667   0.28402   0.75000   0.00000  Uiso   1.00
N780   N     0.16667   0.04931   0.75000   0.00000  Uiso   1.00
O781   O     0.10655   0.20625   0.75000   0.00000  Uiso   1.00
O782   O     0.22679   0.12709   0.75000   0.00000  Uiso   1.00
O783   O     0.22679   0.20625   0.75001   0.00000  Uiso   1.00
O784   O     0.10655   0.12709   0.75000   0.00000  Uiso   1.00
O785   O     0.16666   0.20627   0.68513   0.00000  Uiso   1.00
O786   O     0.16668   0.12707   0.81487   0.00000  Uiso   1.00
O787   O     0.16668   0.20627   0.81487   0.00000  Uiso   1.00
O788   O     0.16666   0.12707   0.68513   0.00000  Uiso   1.00
C789   C     0.03798   0.07984   0.71910   0.00000  Uiso   1.00
C790   C     0.05400   0.08931   0.67141   0.00000  Uiso   1.00
H791   H     0.02908   0.10466   0.65189   0.00000  Uiso   1.00
H792   H     0.08072   0.11345   0.67035   0.00000  Uiso   1.00
H793   H     0.06409   0.05598   0.65554   0.00000  Uiso   1.00
H794   H     0.01362   0.05295   0.71604   0.00000  Uiso   1.00
H795   H     0.06216   0.06329   0.73851   0.00000  Uiso   1.00
C796   C     0.29535   0.25349   0.78090   0.00000  Uiso   1.00
C797   C     0.27934   0.24402   0.82859   0.00000  Uiso   1.00
H798   H     0.25261   0.21988   0.82965   0.00000  Uiso   1.00
H799   H     0.30425   0.22868   0.84811   0.00000  Uiso   1.00
H800   H     0.26925   0.27736   0.84446   0.00000  Uiso   1.00
H801   H     0.31972   0.28039   0.78396   0.00000  Uiso   1.00
H802   H     0.27118   0.27004   0.76149   0.00000  Uiso   1.00
C803   C     0.29535   0.07984   0.78090   0.00000  Uiso   1.00
C804   C     0.27934   0.08931   0.82859   0.00000  Uiso   1.00
H805   H     0.26925   0.05598   0.84446   0.00000  Uiso   1.00
H806   H     0.30425   0.10466   0.84811   0.00000  Uiso   1.00
H807   H     0.25261   0.11345   0.82965   0.00000  Uiso   1.00
H808   H     0.31972   0.05295   0.78396   0.00000  Uiso   1.00
H809   H     0.27118   0.06329   0.76149   0.00000  Uiso   1.00
C810   C     0.03798   0.25349   0.71910   0.00000  Uiso   1.00
C811   C     0.05400   0.24402   0.67141   0.00000  Uiso   1.00
H812   H     0.08072   0.21988   0.67035   0.00000  Uiso   1.00
H813   H     0.02908   0.22868   0.65189   0.00000  Uiso   1.00
H814   H     0.06409   0.27736   0.65554   0.00000  Uiso   1.00
H815   H     0.01362   0.28039   0.71604   0.00000  Uiso   1.00
H816   H     0.06216   0.27004   0.73851   0.00000  Uiso   1.00
Cl817  Cl    0.22597   0.05412   0.68292   0.00000  Uiso   1.00
Cl818  Cl    0.10736   0.27922   0.81708   0.00000  Uiso   1.00
Cl819  Cl    0.10736   0.05412   0.81708   0.00000  Uiso   1.00
Cl820  Cl    0.22597   0.27921   0.68293   0.00000  Uiso   1.00
C821   C     0.42089   0.16667   0.74577   0.00000  Uiso   1.00
C822   C     0.57911   0.16667   0.75423   0.00000  Uiso   1.00
C823   C     0.49980   0.25177   0.52313   0.00000  Uiso   1.00
C824   C     0.50020   0.08156   0.97687   0.00000  Uiso   1.00
C825   C     0.35391   0.12390   0.74184   0.00000  Uiso   1.00
C826   C     0.64609   0.20944   0.75816   0.00000  Uiso   1.00
C827   C     0.64609   0.12390   0.75816   0.00000  Uiso   1.00
C828   C     0.35391   0.20944   0.74184   0.00000  Uiso   1.00
C829   C     0.62412   0.16667   0.75898   0.00000  Uiso   1.00
C830   C     0.37588   0.16667   0.74102   0.00000  Uiso   1.00
C831   C     0.52560   0.02474   0.72102   0.00000  Uiso   1.00
C832   C     0.47440   0.30859   0.77898   0.00000  Uiso   1.00
C833   C     0.47440   0.02474   0.77898   0.00000  Uiso   1.00
C834   C     0.52560   0.30859   0.72102   0.00000  Uiso   1.00
C835   C     0.49986   0.16667   0.66431   0.00000  Uiso   1.00
C836   C     0.50013   0.16667   0.83569   0.00000  Uiso   1.00
C837   C     0.50063   0.12419   0.90730   0.00000  Uiso   1.00
C838   C     0.49937   0.20914   0.59270   0.00000  Uiso   1.00
C839   C     0.50051   0.16667   0.88411   0.00000  Uiso   1.00
C840   C     0.49949   0.16667   0.61589   0.00000  Uiso   1.00
C841   C     0.50063   0.20914   0.90730   0.00000  Uiso   1.00
C842   C     0.49937   0.12419   0.59270   0.00000  Uiso   1.00
C843   C     0.50038   0.20944   0.95352   0.00000  Uiso   1.00
C844   C     0.49961   0.12389   0.54648   0.00000  Uiso   1.00
C845   C     0.50019   0.16667   0.97675   0.00000  Uiso   1.00
C846   C     0.49981   0.16667   0.52325   0.00000  Uiso   1.00
C847   C     0.50038   0.12389   0.95352   0.00000  Uiso   1.00
C848   C     0.49962   0.20944   0.54649   0.00000  Uiso   1.00
C849   C     0.50020   0.25177   0.97687   0.00000  Uiso   1.00
C850   C     0.49980   0.08156   0.52313   0.00000  Uiso   1.00
Cu851  Cu    0.50000   0.21355   0.75000   0.00000  Uiso   1.00
Cu852  Cu    0.50000   0.11978   0.75000   0.00000  Uiso   1.00
H853   H     0.50079   0.09131   0.88949   0.00000  Uiso   1.00
H854   H     0.49921   0.24203   0.61051   0.00000  Uiso   1.00
H855   H     0.50079   0.24203   0.88949   0.00000  Uiso   1.00
H856   H     0.49921   0.09131   0.61051   0.00000  Uiso   1.00
H857   H     0.50033   0.28483   0.95937   0.00000  Uiso   1.00
H858   H     0.49967   0.04850   0.54063   0.00000  Uiso   1.00
H859   H     0.49967   0.28483   0.54063   0.00000  Uiso   1.00
H860   H     0.50033   0.04850   0.95937   0.00000  Uiso   1.00
N861   N     0.50000   0.28402   0.75000   0.00000  Uiso   1.00
N862   N     0.50000   0.04931   0.75000   0.00000  Uiso   1.00
O863   O     0.43988   0.20625   0.75000   0.00000  Uiso   1.00
O864   O     0.56012   0.12709   0.75000   0.00000  Uiso   1.00
O865   O     0.56012   0.20625   0.75001   0.00000  Uiso   1.00
O866   O     0.43988   0.12709   0.75000   0.00000  Uiso   1.00
O867   O     0.49999   0.20627   0.68513   0.00000  Uiso   1.00
O868   O     0.50001   0.12707   0.81487   0.00000  Uiso   1.00
O869   O     0.50001   0.20627   0.81487   0.00000  Uiso   1.00
O870   O     0.49999   0.12707   0.68513   0.00000  Uiso   1.00
C871   C     0.37132   0.07984   0.71910   0.00000  Uiso   1.00
C872   C     0.38733   0.08931   0.67141   0.00000  Uiso   1.00
H873   H     0.36242   0.10466   0.65189   0.00000  Uiso   1.00
H874   H     0.41405   0.11345   0.67035   0.00000  Uiso   1.00
H875   H     0.39742   0.05598   0.65554   0.00000  Uiso   1.00
H876   H     0.34695   0.05295   0.71604   0.00000  Uiso   1.00
H877   H     0.39549   0.06329   0.73851   0.00000  Uiso   1.00
C878   C     0.62868   0.25349   0.78090   0.00000  Uiso   1.00
C879   C     0.61267   0.24402   0.82859   0.00000  Uiso   1.00
H880   H     0.58594   0.21988   0.82965   0.00000  Uiso   1.00
H881   H     0.63758   0.22868   0.84811   0.00000  Uiso   1.00
H882   H     0.60258   0.27736   0.84446   0.00000  Uiso   1.00
H883   H     0.65305   0.28039   0.78396   0.00000  Uiso   1.00
H884   H     0.60451   0.27004   0.76149   0.00000  Uiso   1.00
C885   C     0.62868   0.07984   0.78090   0.00000  Uiso   1.00
C886   C     0.61267   0.08931   0.82859   0.00000  Uiso   1.00
H887   H     0.60258   0.05598   0.84446   0.00000  Uiso   1.00
H888   H     0.63758   0.10466   0.84811   0.00000  Uiso   1.00
H889   H     0.58595   0.11345   0.82965   0.00000  Uiso   1.00
H890   H     0.65305   0.05295   0.78396   0.00000  Uiso   1.00
H891   H     0.60451   0.06329   0.76149   0.00000  Uiso   1.00
C892   C     0.37132   0.25349   0.71910   0.00000  Uiso   1.00
C893   C     0.38733   0.24402   0.67141   0.00000  Uiso   1.00
H894   H     0.41405   0.21988   0.67035   0.00000  Uiso   1.00
H895   H     0.36242   0.22868   0.65189   0.00000  Uiso   1.00
H896   H     0.39742   0.27736   0.65554   0.00000  Uiso   1.00
H897   H     0.34695   0.28039   0.71604   0.00000  Uiso   1.00
H898   H     0.39549   0.27004   0.73851   0.00000  Uiso   1.00
Cl899  Cl    0.55930   0.05412   0.68292   0.00000  Uiso   1.00
Cl900  Cl    0.44070   0.27922   0.81708   0.00000  Uiso   1.00
Cl901  Cl    0.44070   0.05412   0.81708   0.00000  Uiso   1.00
Cl902  Cl    0.55930   0.27921   0.68293   0.00000  Uiso   1.00
C903   C     0.75422   0.16667   0.74577   0.00000  Uiso   1.00
C904   C     0.91244   0.16667   0.75423   0.00000  Uiso   1.00
C905   C     0.83313   0.25177   0.52313   0.00000  Uiso   1.00
C906   C     0.83353   0.08156   0.97687   0.00000  Uiso   1.00
C907   C     0.68724   0.12390   0.74184   0.00000  Uiso   1.00
C908   C     0.97942   0.20944   0.75816   0.00000  Uiso   1.00
C909   C     0.97942   0.12390   0.75816   0.00000  Uiso   1.00
C910   C     0.68724   0.20944   0.74184   0.00000  Uiso   1.00
C911   C     0.95745   0.16667   0.75898   0.00000  Uiso   1.00
C912   C     0.70921   0.16667   0.74102   0.00000  Uiso   1.00
C913   C     0.85893   0.02474   0.72102   0.00000  Uiso   1.00
C914   C     0.80773   0.30859   0.77898   0.00000  Uiso   1.00
C915   C     0.80773   0.02474   0.77898   0.00000  Uiso   1.00
C916   C     0.85893   0.30859   0.72102   0.00000  Uiso   1.00
C917   C     0.83320   0.16667   0.66431   0.00000  Uiso   1.00
C918   C     0.83347   0.16667   0.83569   0.00000  Uiso   1.00
C919   C     0.83396   0.12419   0.90730   0.00000  Uiso   1.00
C920   C     0.83271   0.20914   0.59270   0.00000  Uiso   1.00
C921   C     0.83385   0.16667   0.88411   0.00000  Uiso   1.00
C922   C     0.83282   0.16667   0.61589   0.00000  Uiso   1.00
C923   C     0.83396   0.20914   0.90730   0.00000  Uiso   1.00
C924   C     0.83271   0.12419   0.59270   0.00000  Uiso   1.00
C925   C     0.83372   0.20944   0.95352   0.00000  Uiso   1.00
C926   C     0.83295   0.12389   0.54648   0.00000  Uiso   1.00
C927   C     0.83353   0.16667   0.97675   0.00000  Uiso   1.00
C928   C     0.83314   0.16667   0.52325   0.00000  Uiso   1.00
C929   C     0.83372   0.12389   0.95352   0.00000  Uiso   1.00
C930   C     0.83295   0.20944   0.54649   0.00000  Uiso   1.00
C931   C     0.83354   0.25177   0.97687   0.00000  Uiso   1.00
C932   C     0.83313   0.08156   0.52313   0.00000  Uiso   1.00
Cu933  Cu    0.83333   0.21355   0.75000   0.00000  Uiso   1.00
Cu934  Cu    0.83333   0.11978   0.75000   0.00000  Uiso   1.00
H935   H     0.83412   0.09131   0.88949   0.00000  Uiso   1.00
H936   H     0.83255   0.24203   0.61051   0.00000  Uiso   1.00
H937   H     0.83412   0.24203   0.88949   0.00000  Uiso   1.00
H938   H     0.83254   0.09131   0.61051   0.00000  Uiso   1.00
H939   H     0.83367   0.28483   0.95937   0.00000  Uiso   1.00
H940   H     0.83300   0.04850   0.54063   0.00000  Uiso   1.00
H941   H     0.83300   0.28483   0.54063   0.00000  Uiso   1.00
H942   H     0.83367   0.04850   0.95937   0.00000  Uiso   1.00
N943   N     0.83333   0.28402   0.75000   0.00000  Uiso   1.00
N944   N     0.83333   0.04931   0.75000   0.00000  Uiso   1.00
O945   O     0.77321   0.20625   0.75000   0.00000  Uiso   1.00
O946   O     0.89345   0.12709   0.75000   0.00000  Uiso   1.00
O947   O     0.89345   0.20625   0.75001   0.00000  Uiso   1.00
O948   O     0.77321   0.12709   0.75000   0.00000  Uiso   1.00
O949   O     0.83332   0.20627   0.68513   0.00000  Uiso   1.00
O950   O     0.83334   0.12707   0.81487   0.00000  Uiso   1.00
O951   O     0.83334   0.20627   0.81487   0.00000  Uiso   1.00
O952   O     0.83332   0.12707   0.68513   0.00000  Uiso   1.00
C953   C     0.70465   0.07984   0.71910   0.00000  Uiso   1.00
C954   C     0.72066   0.08931   0.67141   0.00000  Uiso   1.00
H955   H     0.69575   0.10466   0.65189   0.00000  Uiso   1.00
H956   H     0.74739   0.11345   0.67035   0.00000  Uiso   1.00
H957   H     0.73075   0.05598   0.65554   0.00000  Uiso   1.00
H958   H     0.68028   0.05295   0.71604   0.00000  Uiso   1.00
H959   H     0.72882   0.06329   0.73851   0.00000  Uiso   1.00
C960   C     0.96202   0.25349   0.78090   0.00000  Uiso   1.00
C961   C     0.94600   0.24402   0.82859   0.00000  Uiso   1.00
H962   H     0.91928   0.21988   0.82965   0.00000  Uiso   1.00
H963   H     0.97092   0.22868   0.84811   0.00000  Uiso   1.00
H964   H     0.93591   0.27736   0.84446   0.00000  Uiso   1.00
H965   H     0.98638   0.28039   0.78396   0.00000  Uiso   1.00
H966   H     0.93784   0.27004   0.76149   0.00000  Uiso   1.00
C967   C     0.96202   0.07984   0.78090   0.00000  Uiso   1.00
C968   C     0.94600   0.08931   0.82859   0.00000  Uiso   1.00
H969   H     0.93591   0.05598   0.84446   0.00000  Uiso   1.00
H970   H     0.97092   0.10466   0.84811   0.00000  Uiso   1.00
H971   H     0.91928   0.11345   0.82965   0.00000  Uiso   1.00
H972   H     0.98638   0.05295   0.78396   0.00000  Uiso   1.00
H973   H     0.93784   0.06329   0.76149   0.00000  Uiso   1.00
C974   C     0.70465   0.25349   0.71910   0.00000  Uiso   1.00
C975   C     0.72066   0.24402   0.67141   0.00000  Uiso   1.00
H976   H     0.74739   0.21988   0.67035   0.00000  Uiso   1.00
H977   H     0.69575   0.22868   0.65189   0.00000  Uiso   1.00
H978   H     0.73075   0.27736   0.65554   0.00000  Uiso   1.00
H979   H     0.68028   0.28039   0.71604   0.00000  Uiso   1.00
H980   H     0.72882   0.27004   0.73851   0.00000  Uiso   1.00
Cl981  Cl    0.89264   0.05412   0.68292   0.00000  Uiso   1.00
Cl982  Cl    0.77403   0.27922   0.81708   0.00000  Uiso   1.00
Cl983  Cl    0.77403   0.05412   0.81708   0.00000  Uiso   1.00
Cl984  Cl    0.89264   0.27921   0.68293   0.00000  Uiso   1.00
C985   C     0.08756   0.50000   0.74577   0.00000  Uiso   1.00
C986   C     0.24578   0.50000   0.75423   0.00000  Uiso   1.00
C987   C     0.16646   0.58511   0.52313   0.00000  Uiso   1.00
C988   C     0.16687   0.41489   0.97687   0.00000  Uiso   1.00
C989   C     0.02058   0.45723   0.74184   0.00000  Uiso   1.00
C990   C     0.31276   0.54277   0.75816   0.00000  Uiso   1.00
C991   C     0.31276   0.45723   0.75816   0.00000  Uiso   1.00
C992   C     0.02058   0.54277   0.74184   0.00000  Uiso   1.00
C993   C     0.29079   0.50000   0.75898   0.00000  Uiso   1.00
C994   C     0.04255   0.50000   0.74102   0.00000  Uiso   1.00
C995   C     0.19227   0.35808   0.72102   0.00000  Uiso   1.00
C996   C     0.14106   0.64192   0.77898   0.00000  Uiso   1.00
C997   C     0.14106   0.35808   0.77898   0.00000  Uiso   1.00
C998   C     0.19227   0.64192   0.72102   0.00000  Uiso   1.00
C999   C     0.16653   0.50000   0.66431   0.00000  Uiso   1.00
C1000  C     0.16680   0.50000   0.83569   0.00000  Uiso   1.00
C1001  C     0.16729   0.45753   0.90730   0.00000  Uiso   1.00
C1002  C     0.16604   0.54247   0.59270   0.00000  Uiso   1.00
C1003  C     0.16718   0.50000   0.88411   0.00000  Uiso   1.00
C1004  C     0.16615   0.50000   0.61589   0.00000  Uiso   1.00
C1005  C     0.16729   0.54247   0.90730   0.00000  Uiso   1.00
C1006  C     0.16604   0.45753   0.59270   0.00000  Uiso   1.00
C1007  C     0.16705   0.54278   0.95352   0.00000  Uiso   1.00
C1008  C     0.16628   0.45722   0.54648   0.00000  Uiso   1.00
C1009  C     0.16686   0.50000   0.97675   0.00000  Uiso   1.00
C1010  C     0.16647   0.50000   0.52325   0.00000  Uiso   1.00
C1011  C     0.16705   0.45722   0.95352   0.00000  Uiso   1.00
C1012  C     0.16628   0.54278   0.54649   0.00000  Uiso   1.00
C1013  C     0.16687   0.58511   0.97687   0.00000  Uiso   1.00
C1014  C     0.16646   0.41489   0.52313   0.00000  Uiso   1.00
Cu1015 Cu    0.16667   0.54689   0.75000   0.00000  Uiso   1.00
Cu1016 Cu    0.16667   0.45311   0.75000   0.00000  Uiso   1.00
H1017  H     0.16745   0.42464   0.88949   0.00000  Uiso   1.00
H1018  H     0.16588   0.57536   0.61051   0.00000  Uiso   1.00
H1019  H     0.16746   0.57536   0.88949   0.00000  Uiso   1.00
H1020  H     0.16588   0.42464   0.61051   0.00000  Uiso   1.00
H1021  H     0.16700   0.61816   0.95937   0.00000  Uiso   1.00
H1022  H     0.16633   0.38184   0.54063   0.00000  Uiso   1.00
H1023  H     0.16633   0.61816   0.54063   0.00000  Uiso   1.00
H1024  H     0.16700   0.38184   0.95937   0.00000  Uiso   1.00
N1025  N     0.16667   0.61736   0.75000   0.00000  Uiso   1.00
N1026  N     0.16667   0.38264   0.75000   0.00000  Uiso   1.00
O1027  O     0.10655   0.53958   0.75000   0.00000  Uiso   1.00
O1028  O     0.22679   0.46042   0.75000   0.00000  Uiso   1.00
O1029  O     0.22679   0.53958   0.75001   0.00000  Uiso   1.00
O1030  O     0.10655   0.46042   0.75000   0.00000  Uiso   1.00
O1031  O     0.16666   0.53960   0.68513   0.00000  Uiso   1.00
O1032  O     0.16668   0.46040   0.81487   0.00000  Uiso   1.00
O1033  O     0.16668   0.53960   0.81487   0.00000  Uiso   1.00
O1034  O     0.16666   0.46040   0.68513   0.00000  Uiso   1.00
C1035  C     0.03798   0.41317   0.71910   0.00000  Uiso   1.00
C1036  C     0.05400   0.42264   0.67141   0.00000  Uiso   1.00
H1037  H     0.02908   0.43799   0.65189   0.00000  Uiso   1.00
H1038  H     0.08072   0.44679   0.67035   0.00000  Uiso   1.00
H1039  H     0.06409   0.38931   0.65554   0.00000  Uiso   1.00
H1040  H     0.01362   0.38628   0.71604   0.00000  Uiso   1.00
H1041  H     0.06216   0.39663   0.73851   0.00000  Uiso   1.00
C1042  C     0.29535   0.58683   0.78090   0.00000  Uiso   1.00
C1043  C     0.27934   0.57736   0.82859   0.00000  Uiso   1.00
H1044  H     0.25261   0.55321   0.82965   0.00000  Uiso   1.00
H1045  H     0.30425   0.56201   0.84811   0.00000  Uiso   1.00
H1046  H     0.26925   0.61069   0.84446   0.00000  Uiso   1.00
H1047  H     0.31972   0.61372   0.78396   0.00000  Uiso   1.00
H1048  H     0.27118   0.60337   0.76149   0.00000  Uiso   1.00
C1049  C     0.29535   0.41317   0.78090   0.00000  Uiso   1.00
C1050  C     0.27934   0.42264   0.82859   0.00000  Uiso   1.00
H1051  H     0.26925   0.38931   0.84446   0.00000  Uiso   1.00
H1052  H     0.30425   0.43799   0.84811   0.00000  Uiso   1.00
H1053  H     0.25261   0.44678   0.82965   0.00000  Uiso   1.00
H1054  H     0.31972   0.38628   0.78396   0.00000  Uiso   1.00
H1055  H     0.27118   0.39663   0.76149   0.00000  Uiso   1.00
C1056  C     0.03798   0.58683   0.71910   0.00000  Uiso   1.00
C1057  C     0.05400   0.57736   0.67141   0.00000  Uiso   1.00
H1058  H     0.08072   0.55322   0.67035   0.00000  Uiso   1.00
H1059  H     0.02908   0.56201   0.65189   0.00000  Uiso   1.00
H1060  H     0.06409   0.61069   0.65554   0.00000  Uiso   1.00
H1061  H     0.01362   0.61372   0.71604   0.00000  Uiso   1.00
H1062  H     0.06216   0.60337   0.73851   0.00000  Uiso   1.00
Cl1063 Cl    0.22597   0.38745   0.68292   0.00000  Uiso   1.00
Cl1064 Cl    0.10736   0.61255   0.81708   0.00000  Uiso   1.00
Cl1065 Cl    0.10736   0.38745   0.81708   0.00000  Uiso   1.00
Cl1066 Cl    0.22597   0.61255   0.68293   0.00000  Uiso   1.00
C1067  C     0.42089   0.50000   0.74577   0.00000  Uiso   1.00
C1068  C     0.57911   0.50000   0.75423   0.00000  Uiso   1.00
C1069  C     0.49980   0.58511   0.52313   0.00000  Uiso   1.00
C1070  C     0.50020   0.41489   0.97687   0.00000  Uiso   1.00
C1071  C     0.35391   0.45723   0.74184   0.00000  Uiso   1.00
C1072  C     0.64609   0.54277   0.75816   0.00000  Uiso   1.00
C1073  C     0.64609   0.45723   0.75816   0.00000  Uiso   1.00
C1074  C     0.35391   0.54277   0.74184   0.00000  Uiso   1.00
C1075  C     0.62412   0.50000   0.75898   0.00000  Uiso   1.00
C1076  C     0.37588   0.50000   0.74102   0.00000  Uiso   1.00
C1077  C     0.52560   0.35808   0.72102   0.00000  Uiso   1.00
C1078  C     0.47440   0.64192   0.77898   0.00000  Uiso   1.00
C1079  C     0.47440   0.35808   0.77898   0.00000  Uiso   1.00
C1080  C     0.52560   0.64192   0.72102   0.00000  Uiso   1.00
C1081  C     0.49986   0.50000   0.66431   0.00000  Uiso   1.00
C1082  C     0.50013   0.50000   0.83569   0.00000  Uiso   1.00
C1083  C     0.50063   0.45753   0.90730   0.00000  Uiso   1.00
C1084  C     0.49937   0.54247   0.59270   0.00000  Uiso   1.00
C1085  C     0.50051   0.50000   0.88411   0.00000  Uiso   1.00
C1086  C     0.49949   0.50000   0.61589   0.00000  Uiso   1.00
C1087  C     0.50063   0.54247   0.90730   0.00000  Uiso   1.00
C1088  C     0.49937   0.45753   0.59270   0.00000  Uiso   1.00
C1089  C     0.50038   0.54278   0.95352   0.00000  Uiso   1.00
C1090  C     0.49961   0.45722   0.54648   0.00000  Uiso   1.00
C1091  C     0.50019   0.50000   0.97675   0.00000  Uiso   1.00
C1092  C     0.49981   0.50000   0.52325   0.00000  Uiso   1.00
C1093  C     0.50038   0.45722   0.95352   0.00000  Uiso   1.00
C1094  C     0.49962   0.54278   0.54649   0.00000  Uiso   1.00
C1095  C     0.50020   0.58511   0.97687   0.00000  Uiso   1.00
C1096  C     0.49980   0.41489   0.52313   0.00000  Uiso   1.00
Cu1097 Cu    0.50000   0.54689   0.75000   0.00000  Uiso   1.00
Cu1098 Cu    0.50000   0.45311   0.75000   0.00000  Uiso   1.00
H1099  H     0.50079   0.42464   0.88949   0.00000  Uiso   1.00
H1100  H     0.49921   0.57536   0.61051   0.00000  Uiso   1.00
H1101  H     0.50079   0.57536   0.88949   0.00000  Uiso   1.00
H1102  H     0.49921   0.42464   0.61051   0.00000  Uiso   1.00
H1103  H     0.50033   0.61816   0.95937   0.00000  Uiso   1.00
H1104  H     0.49967   0.38184   0.54063   0.00000  Uiso   1.00
H1105  H     0.49967   0.61816   0.54063   0.00000  Uiso   1.00
H1106  H     0.50033   0.38184   0.95937   0.00000  Uiso   1.00
N1107  N     0.50000   0.61736   0.75000   0.00000  Uiso   1.00
N1108  N     0.50000   0.38264   0.75000   0.00000  Uiso   1.00
O1109  O     0.43988   0.53958   0.75000   0.00000  Uiso   1.00
O1110  O     0.56012   0.46042   0.75000   0.00000  Uiso   1.00
O1111  O     0.56012   0.53958   0.75001   0.00000  Uiso   1.00
O1112  O     0.43988   0.46042   0.75000   0.00000  Uiso   1.00
O1113  O     0.49999   0.53960   0.68513   0.00000  Uiso   1.00
O1114  O     0.50001   0.46040   0.81487   0.00000  Uiso   1.00
O1115  O     0.50001   0.53960   0.81487   0.00000  Uiso   1.00
O1116  O     0.49999   0.46040   0.68513   0.00000  Uiso   1.00
C1117  C     0.37132   0.41317   0.71910   0.00000  Uiso   1.00
C1118  C     0.38733   0.42264   0.67141   0.00000  Uiso   1.00
H1119  H     0.36242   0.43799   0.65189   0.00000  Uiso   1.00
H1120  H     0.41405   0.44679   0.67035   0.00000  Uiso   1.00
H1121  H     0.39742   0.38931   0.65554   0.00000  Uiso   1.00
H1122  H     0.34695   0.38628   0.71604   0.00000  Uiso   1.00
H1123  H     0.39549   0.39663   0.73851   0.00000  Uiso   1.00
C1124  C     0.62868   0.58683   0.78090   0.00000  Uiso   1.00
C1125  C     0.61267   0.57736   0.82859   0.00000  Uiso   1.00
H1126  H     0.58594   0.55321   0.82965   0.00000  Uiso   1.00
H1127  H     0.63758   0.56201   0.84811   0.00000  Uiso   1.00
H1128  H     0.60258   0.61069   0.84446   0.00000  Uiso   1.00
H1129  H     0.65305   0.61372   0.78396   0.00000  Uiso   1.00
H1130  H     0.60451   0.60337   0.76149   0.00000  Uiso   1.00
C1131  C     0.62868   0.41317   0.78090   0.00000  Uiso   1.00
C1132  C     0.61267   0.42264   0.82859   0.00000  Uiso   1.00
H1133  H     0.60258   0.38931   0.84446   0.00000  Uiso   1.00
H1134  H     0.63758   0.43799   0.84811   0.00000  Uiso   1.00
H1135  H     0.58595   0.44678   0.82965   0.00000  Uiso   1.00
H1136  H     0.65305   0.38628   0.78396   0.00000  Uiso   1.00
H1137  H     0.60451   0.39663   0.76149   0.00000  Uiso   1.00
C1138  C     0.37132   0.58683   0.71910   0.00000  Uiso   1.00
C1139  C     0.38733   0.57736   0.67141   0.00000  Uiso   1.00
H1140  H     0.41405   0.55322   0.67035   0.00000  Uiso   1.00
H1141  H     0.36242   0.56201   0.65189   0.00000  Uiso   1.00
H1142  H     0.39742   0.61069   0.65554   0.00000  Uiso   1.00
H1143  H     0.34695   0.61372   0.71604   0.00000  Uiso   1.00
H1144  H     0.39549   0.60337   0.73851   0.00000  Uiso   1.00
Cl1145 Cl    0.55930   0.38745   0.68292   0.00000  Uiso   1.00
Cl1146 Cl    0.44070   0.61255   0.81708   0.00000  Uiso   1.00
Cl1147 Cl    0.44070   0.38745   0.81708   0.00000  Uiso   1.00
Cl1148 Cl    0.55930   0.61255   0.68293   0.00000  Uiso   1.00
C1149  C     0.75422   0.50000   0.74577   0.00000  Uiso   1.00
C1150  C     0.91244   0.50000   0.75423   0.00000  Uiso   1.00
C1151  C     0.83313   0.58511   0.52313   0.00000  Uiso   1.00
C1152  C     0.83353   0.41489   0.97687   0.00000  Uiso   1.00
C1153  C     0.68724   0.45723   0.74184   0.00000  Uiso   1.00
C1154  C     0.97942   0.54277   0.75816   0.00000  Uiso   1.00
C1155  C     0.97942   0.45723   0.75816   0.00000  Uiso   1.00
C1156  C     0.68724   0.54277   0.74184   0.00000  Uiso   1.00
C1157  C     0.95745   0.50000   0.75898   0.00000  Uiso   1.00
C1158  C     0.70921   0.50000   0.74102   0.00000  Uiso   1.00
C1159  C     0.85893   0.35808   0.72102   0.00000  Uiso   1.00
C1160  C     0.80773   0.64192   0.77898   0.00000  Uiso   1.00
C1161  C     0.80773   0.35808   0.77898   0.00000  Uiso   1.00
C1162  C     0.85893   0.64192   0.72102   0.00000  Uiso   1.00
C1163  C     0.83320   0.50000   0.66431   0.00000  Uiso   1.00
C1164  C     0.83347   0.50000   0.83569   0.00000  Uiso   1.00
C1165  C     0.83396   0.45753   0.90730   0.00000  Uiso   1.00
C1166  C     0.83271   0.54247   0.59270   0.00000  Uiso   1.00
C1167  C     0.83385   0.50000   0.88411   0.00000  Uiso   1.00
C1168  C     0.83282   0.50000   0.61589   0.00000  Uiso   1.00
C1169  C     0.83396   0.54247   0.90730   0.00000  Uiso   1.00
C1170  C     0.83271   0.45753   0.59270   0.00000  Uiso   1.00
C1171  C     0.83372   0.54278   0.95352   0.00000  Uiso   1.00
C1172  C     0.83295   0.45722   0.54648   0.00000  Uiso   1.00
C1173  C     0.83353   0.50000   0.97675   0.00000  Uiso   1.00
C1174  C     0.83314   0.50000   0.52325   0.00000  Uiso   1.00
C1175  C     0.83372   0.45722   0.95352   0.00000  Uiso   1.00
C1176  C     0.83295   0.54278   0.54649   0.00000  Uiso   1.00
C1177  C     0.83354   0.58511   0.97687   0.00000  Uiso   1.00
C1178  C     0.83313   0.41489   0.52313   0.00000  Uiso   1.00
Cu1179 Cu    0.83333   0.54689   0.75000   0.00000  Uiso   1.00
Cu1180 Cu    0.83333   0.45311   0.75000   0.00000  Uiso   1.00
H1181  H     0.83412   0.42464   0.88949   0.00000  Uiso   1.00
H1182  H     0.83255   0.57536   0.61051   0.00000  Uiso   1.00
H1183  H     0.83412   0.57536   0.88949   0.00000  Uiso   1.00
H1184  H     0.83254   0.42464   0.61051   0.00000  Uiso   1.00
H1185  H     0.83367   0.61816   0.95937   0.00000  Uiso   1.00
H1186  H     0.83300   0.38184   0.54063   0.00000  Uiso   1.00
H1187  H     0.83300   0.61816   0.54063   0.00000  Uiso   1.00
H1188  H     0.83367   0.38184   0.95937   0.00000  Uiso   1.00
N1189  N     0.83333   0.61736   0.75000   0.00000  Uiso   1.00
N1190  N     0.83333   0.38264   0.75000   0.00000  Uiso   1.00
O1191  O     0.77321   0.53958   0.75000   0.00000  Uiso   1.00
O1192  O     0.89345   0.46042   0.75000   0.00000  Uiso   1.00
O1193  O     0.89345   0.53958   0.75001   0.00000  Uiso   1.00
O1194  O     0.77321   0.46042   0.75000   0.00000  Uiso   1.00
O1195  O     0.83332   0.53960   0.68513   0.00000  Uiso   1.00
O1196  O     0.83334   0.46040   0.81487   0.00000  Uiso   1.00
O1197  O     0.83334   0.53960   0.81487   0.00000  Uiso   1.00
O1198  O     0.83332   0.46040   0.68513   0.00000  Uiso   1.00
C1199  C     0.70465   0.41317   0.71910   0.00000  Uiso   1.00
C1200  C     0.72066   0.42264   0.67141   0.00000  Uiso   1.00
H1201  H     0.69575   0.43799   0.65189   0.00000  Uiso   1.00
H1202  H     0.74739   0.44679   0.67035   0.00000  Uiso   1.00
H1203  H     0.73075   0.38931   0.65554   0.00000  Uiso   1.00
H1204  H     0.68028   0.38628   0.71604   0.00000  Uiso   1.00
H1205  H     0.72882   0.39663   0.73851   0.00000  Uiso   1.00
C1206  C     0.96202   0.58683   0.78090   0.00000  Uiso   1.00
C1207  C     0.94600   0.57736   0.82859   0.00000  Uiso   1.00
H1208  H     0.91928   0.55321   0.82965   0.00000  Uiso   1.00
H1209  H     0.97092   0.56201   0.84811   0.00000  Uiso   1.00
H1210  H     0.93591   0.61069   0.84446   0.00000  Uiso   1.00
H1211  H     0.98638   0.61372   0.78396   0.00000  Uiso   1.00
H1212  H     0.93784   0.60337   0.76149   0.00000  Uiso   1.00
C1213  C     0.96202   0.41317   0.78090   0.00000  Uiso   1.00
C1214  C     0.94600   0.42264   0.82859   0.00000  Uiso   1.00
H1215  H     0.93591   0.38931   0.84446   0.00000  Uiso   1.00
H1216  H     0.97092   0.43799   0.84811   0.00000  Uiso   1.00
H1217  H     0.91928   0.44678   0.82965   0.00000  Uiso   1.00
H1218  H     0.98638   0.38628   0.78396   0.00000  Uiso   1.00
H1219  H     0.93784   0.39663   0.76149   0.00000  Uiso   1.00
C1220  C     0.70465   0.58683   0.71910   0.00000  Uiso   1.00
C1221  C     0.72066   0.57736   0.67141   0.00000  Uiso   1.00
H1222  H     0.74739   0.55322   0.67035   0.00000  Uiso   1.00
H1223  H     0.69575   0.56201   0.65189   0.00000  Uiso   1.00
H1224  H     0.73075   0.61069   0.65554   0.00000  Uiso   1.00
H1225  H     0.68028   0.61372   0.71604   0.00000  Uiso   1.00
H1226  H     0.72882   0.60337   0.73851   0.00000  Uiso   1.00
Cl1227 Cl    0.89264   0.38745   0.68292   0.00000  Uiso   1.00
Cl1228 Cl    0.77403   0.61255   0.81708   0.00000  Uiso   1.00
Cl1229 Cl    0.77403   0.38745   0.81708   0.00000  Uiso   1.00
Cl1230 Cl    0.89264   0.61255   0.68293   0.00000  Uiso   1.00
C1231  C     0.08756   0.83333   0.74577   0.00000  Uiso   1.00
C1232  C     0.24578   0.83333   0.75423   0.00000  Uiso   1.00
C1233  C     0.16646   0.91844   0.52313   0.00000  Uiso   1.00
C1234  C     0.16687   0.74823   0.97687   0.00000  Uiso   1.00
C1235  C     0.02058   0.79056   0.74184   0.00000  Uiso   1.00
C1236  C     0.31276   0.87610   0.75816   0.00000  Uiso   1.00
C1237  C     0.31276   0.79056   0.75816   0.00000  Uiso   1.00
C1238  C     0.02058   0.87610   0.74184   0.00000  Uiso   1.00
C1239  C     0.29079   0.83333   0.75898   0.00000  Uiso   1.00
C1240  C     0.04255   0.83333   0.74102   0.00000  Uiso   1.00
C1241  C     0.19227   0.69141   0.72102   0.00000  Uiso   1.00
C1242  C     0.14106   0.97526   0.77898   0.00000  Uiso   1.00
C1243  C     0.14106   0.69141   0.77898   0.00000  Uiso   1.00
C1244  C     0.19227   0.97526   0.72102   0.00000  Uiso   1.00
C1245  C     0.16653   0.83333   0.66431   0.00000  Uiso   1.00
C1246  C     0.16680   0.83333   0.83569   0.00000  Uiso   1.00
C1247  C     0.16729   0.79086   0.90730   0.00000  Uiso   1.00
C1248  C     0.16604   0.87581   0.59270   0.00000  Uiso   1.00
C1249  C     0.16718   0.83333   0.88411   0.00000  Uiso   1.00
C1250  C     0.16615   0.83333   0.61589   0.00000  Uiso   1.00
C1251  C     0.16729   0.87581   0.90730   0.00000  Uiso   1.00
C1252  C     0.16604   0.79086   0.59270   0.00000  Uiso   1.00
C1253  C     0.16705   0.87611   0.95352   0.00000  Uiso   1.00
C1254  C     0.16628   0.79056   0.54648   0.00000  Uiso   1.00
C1255  C     0.16686   0.83333   0.97675   0.00000  Uiso   1.00
C1256  C     0.16647   0.83333   0.52325   0.00000  Uiso   1.00
C1257  C     0.16705   0.79056   0.95352   0.00000  Uiso   1.00
C1258  C     0.16628   0.87611   0.54649   0.00000  Uiso   1.00
C1259  C     0.16687   0.91844   0.97687   0.00000  Uiso   1.00
C1260  C     0.16646   0.74823   0.52313   0.00000  Uiso   1.00
Cu1261 Cu    0.16667   0.88022   0.75000   0.00000  Uiso   1.00
Cu1262 Cu    0.16667   0.78645   0.75000   0.00000  Uiso   1.00
H1263  H     0.16745   0.75797   0.88949   0.00000  Uiso   1.00
H1264  H     0.16588   0.90869   0.61051   0.00000  Uiso   1.00
H1265  H     0.16746   0.90869   0.88949   0.00000  Uiso   1.00
H1266  H     0.16588   0.75797   0.61051   0.00000  Uiso   1.00
H1267  H     0.16700   0.95150   0.95937   0.00000  Uiso   1.00
H1268  H     0.16633   0.71517   0.54063   0.00000  Uiso   1.00
H1269  H     0.16633   0.95150   0.54063   0.00000  Uiso   1.00
H1270  H     0.16700   0.71517   0.95937   0.00000  Uiso   1.00
N1271  N     0.16667   0.95069   0.75000   0.00000  Uiso   1.00
N1272  N     0.16667   0.71598   0.75000   0.00000  Uiso   1.00
O1273  O     0.10655   0.87291   0.75000   0.00000  Uiso   1.00
O1274  O     0.22679   0.79375   0.75000   0.00000  Uiso   1.00
O1275  O     0.22679   0.87291   0.75001   0.00000  Uiso   1.00
O1276  O     0.10655   0.79375   0.75000   0.00000  Uiso   1.00
O1277  O     0.16666   0.87293   0.68513   0.00000  Uiso   1.00
O1278  O     0.16668   0.79373   0.81487   0.00000  Uiso   1.00
O1279  O     0.16668   0.87293   0.81487   0.00000  Uiso   1.00
O1280  O     0.16666   0.79373   0.68513   0.00000  Uiso   1.00
C1281  C     0.03798   0.74651   0.71910   0.00000  Uiso   1.00
C1282  C     0.05400   0.75598   0.67141   0.00000  Uiso   1.00
H1283  H     0.02908   0.77132   0.65189   0.00000  Uiso   1.00
H1284  H     0.08072   0.78012   0.67035   0.00000  Uiso   1.00
H1285  H     0.06409   0.72264   0.65554   0.00000  Uiso   1.00
H1286  H     0.01362   0.71961   0.71604   0.00000  Uiso   1.00
H1287  H     0.06216   0.72996   0.73851   0.00000  Uiso   1.00
C1288  C     0.29535   0.92016   0.78090   0.00000  Uiso   1.00
C1289  C     0.27934   0.91069   0.82859   0.00000  Uiso   1.00
H1290  H     0.25261   0.88655   0.82965   0.00000  Uiso   1.00
H1291  H     0.30425   0.89534   0.84811   0.00000  Uiso   1.00
H1292  H     0.26925   0.94402   0.84446   0.00000  Uiso   1.00
H1293  H     0.31972   0.94705   0.78396   0.00000  Uiso   1.00
H1294  H     0.27118   0.93671   0.76149   0.00000  Uiso   1.00
C1295  C     0.29535   0.74651   0.78090   0.00000  Uiso   1.00
C1296  C     0.27934   0.75598   0.82859   0.00000  Uiso   1.00
H1297  H     0.26925   0.72264   0.84446   0.00000  Uiso   1.00
H1298  H     0.30425   0.77132   0.84811   0.00000  Uiso   1.00
H1299  H     0.25261   0.78012   0.82965   0.00000  Uiso   1.00
H1300  H     0.31972   0.71961   0.78396   0.00000  Uiso   1.00
H1301  H     0.27118   0.72996   0.76149   0.00000  Uiso   1.00
C1302  C     0.03798   0.92016   0.71910   0.00000  Uiso   1.00
C1303  C     0.05400   0.91069   0.67141   0.00000  Uiso   1.00
H1304  H     0.08072   0.88655   0.67035   0.00000  Uiso   1.00
H1305  H     0.02908   0.89534   0.65189   0.00000  Uiso   1.00
H1306  H     0.06409   0.94402   0.65554   0.00000  Uiso   1.00
H1307  H     0.01362   0.94705   0.71604   0.00000  Uiso   1.00
H1308  H     0.06216   0.93671   0.73851   0.00000  Uiso   1.00
Cl1309 Cl    0.22597   0.72079   0.68292   0.00000  Uiso   1.00
Cl1310 Cl    0.10736   0.94588   0.81708   0.00000  Uiso   1.00
Cl1311 Cl    0.10736   0.72079   0.81708   0.00000  Uiso   1.00
Cl1312 Cl    0.22597   0.94588   0.68293   0.00000  Uiso   1.00
C1313  C     0.42089   0.83333   0.74577   0.00000  Uiso   1.00
C1314  C     0.57911   0.83333   0.75423   0.00000  Uiso   1.00
C1315  C     0.49980   0.91844   0.52313   0.00000  Uiso   1.00
C1316  C     0.50020   0.74823   0.97687   0.00000  Uiso   1.00
C1317  C     0.35391   0.79056   0.74184   0.00000  Uiso   1.00
C1318  C     0.64609   0.87610   0.75816   0.00000  Uiso   1.00
C1319  C     0.64609   0.79056   0.75816   0.00000  Uiso   1.00
C1320  C     0.35391   0.87610   0.74184   0.00000  Uiso   1.00
C1321  C     0.62412   0.83333   0.75898   0.00000  Uiso   1.00
C1322  C     0.37588   0.83333   0.74102   0.00000  Uiso   1.00
C1323  C     0.52560   0.69141   0.72102   0.00000  Uiso   1.00
C1324  C     0.47440   0.97526   0.77898   0.00000  Uiso   1.00
C1325  C     0.47440   0.69141   0.77898   0.00000  Uiso   1.00
C1326  C     0.52560   0.97526   0.72102   0.00000  Uiso   1.00
C1327  C     0.49986   0.83333   0.66431   0.00000  Uiso   1.00
C1328  C     0.50013   0.83333   0.83569   0.00000  Uiso   1.00
C1329  C     0.50063   0.79086   0.90730   0.00000  Uiso   1.00
C1330  C     0.49937   0.87581   0.59270   0.00000  Uiso   1.00
C1331  C     0.50051   0.83333   0.88411   0.00000  Uiso   1.00
C1332  C     0.49949   0.83333   0.61589   0.00000  Uiso   1.00
C1333  C     0.50063   0.87581   0.90730   0.00000  Uiso   1.00
C1334  C     0.49937   0.79086   0.59270   0.00000  Uiso   1.00
C1335  C     0.50038   0.87611   0.95352   0.00000  Uiso   1.00
C1336  C     0.49961   0.79056   0.54648   0.00000  Uiso   1.00
C1337  C     0.50019   0.83333   0.97675   0.00000  Uiso   1.00
C1338  C     0.49981   0.83333   0.52325   0.00000  Uiso   1.00
C1339  C     0.50038   0.79056   0.95352   0.00000  Uiso   1.00
C1340  C     0.49962   0.87611   0.54649   0.00000  Uiso   1.00
C1341  C     0.50020   0.91844   0.97687   0.00000  Uiso   1.00
C1342  C     0.49980   0.74823   0.52313   0.00000  Uiso   1.00
Cu1343 Cu    0.50000   0.88022   0.75000   0.00000  Uiso   1.00
Cu1344 Cu    0.50000   0.78645   0.75000   0.00000  Uiso   1.00
H1345  H     0.50079   0.75797   0.88949   0.00000  Uiso   1.00
H1346  H     0.49921   0.90869   0.61051   0.00000  Uiso   1.00
H1347  H     0.50079   0.90869   0.88949   0.00000  Uiso   1.00
H1348  H     0.49921   0.75797   0.61051   0.00000  Uiso   1.00
H1349  H     0.50033   0.95150   0.95937   0.00000  Uiso   1.00
H1350  H     0.49967   0.71517   0.54063   0.00000  Uiso   1.00
H1351  H     0.49967   0.95150   0.54063   0.00000  Uiso   1.00
H1352  H     0.50033   0.71517   0.95937   0.00000  Uiso   1.00
N1353  N     0.50000   0.95069   0.75000   0.00000  Uiso   1.00
N1354  N     0.50000   0.71598   0.75000   0.00000  Uiso   1.00
O1355  O     0.43988   0.87291   0.75000   0.00000  Uiso   1.00
O1356  O     0.56012   0.79375   0.75000   0.00000  Uiso   1.00
O1357  O     0.56012   0.87291   0.75001   0.00000  Uiso   1.00
O1358  O     0.43988   0.79375   0.75000   0.00000  Uiso   1.00
O1359  O     0.49999   0.87293   0.68513   0.00000  Uiso   1.00
O1360  O     0.50001   0.79373   0.81487   0.00000  Uiso   1.00
O1361  O     0.50001   0.87293   0.81487   0.00000  Uiso   1.00
O1362  O     0.49999   0.79373   0.68513   0.00000  Uiso   1.00
C1363  C     0.37132   0.74651   0.71910   0.00000  Uiso   1.00
C1364  C     0.38733   0.75598   0.67141   0.00000  Uiso   1.00
H1365  H     0.36242   0.77132   0.65189   0.00000  Uiso   1.00
H1366  H     0.41405   0.78012   0.67035   0.00000  Uiso   1.00
H1367  H     0.39742   0.72264   0.65554   0.00000  Uiso   1.00
H1368  H     0.34695   0.71961   0.71604   0.00000  Uiso   1.00
H1369  H     0.39549   0.72996   0.73851   0.00000  Uiso   1.00
C1370  C     0.62868   0.92016   0.78090   0.00000  Uiso   1.00
C1371  C     0.61267   0.91069   0.82859   0.00000  Uiso   1.00
H1372  H     0.58594   0.88655   0.82965   0.00000  Uiso   1.00
H1373  H     0.63758   0.89534   0.84811   0.00000  Uiso   1.00
H1374  H     0.60258   0.94402   0.84446   0.00000  Uiso   1.00
H1375  H     0.65305   0.94705   0.78396   0.00000  Uiso   1.00
H1376  H     0.60451   0.93671   0.76149   0.00000  Uiso   1.00
C1377  C     0.62868   0.74651   0.78090   0.00000  Uiso   1.00
C1378  C     0.61267   0.75598   0.82859   0.00000  Uiso   1.00
H1379  H     0.60258   0.72264   0.84446   0.00000  Uiso   1.00
H1380  H     0.63758   0.77132   0.84811   0.00000  Uiso   1.00
H1381  H     0.58595   0.78012   0.82965   0.00000  Uiso   1.00
H1382  H     0.65305   0.71961   0.78396   0.00000  Uiso   1.00
H1383  H     0.60451   0.72996   0.76149   0.00000  Uiso   1.00
C1384  C     0.37132   0.92016   0.71910   0.00000  Uiso   1.00
C1385  C     0.38733   0.91069   0.67141   0.00000  Uiso   1.00
H1386  H     0.41405   0.88655   0.67035   0.00000  Uiso   1.00
H1387  H     0.36242   0.89534   0.65189   0.00000  Uiso   1.00
H1388  H     0.39742   0.94402   0.65554   0.00000  Uiso   1.00
H1389  H     0.34695   0.94705   0.71604   0.00000  Uiso   1.00
H1390  H     0.39549   0.93671   0.73851   0.00000  Uiso   1.00
Cl1391 Cl    0.55930   0.72079   0.68292   0.00000  Uiso   1.00
Cl1392 Cl    0.44070   0.94588   0.81708   0.00000  Uiso   1.00
Cl1393 Cl    0.44070   0.72079   0.81708   0.00000  Uiso   1.00
Cl1394 Cl    0.55930   0.94588   0.68293   0.00000  Uiso   1.00
C1395  C     0.75422   0.83333   0.74577   0.00000  Uiso   1.00
C1396  C     0.91244   0.83333   0.75423   0.00000  Uiso   1.00
C1397  C     0.83313   0.91844   0.52313   0.00000  Uiso   1.00
C1398  C     0.83353   0.74823   0.97687   0.00000  Uiso   1.00
C1399  C     0.68724   0.79056   0.74184   0.00000  Uiso   1.00
C1400  C     0.97942   0.87610   0.75816   0.00000  Uiso   1.00
C1401  C     0.97942   0.79056   0.75816   0.00000  Uiso   1.00
C1402  C     0.68724   0.87610   0.74184   0.00000  Uiso   1.00
C1403  C     0.95745   0.83333   0.75898   0.00000  Uiso   1.00
C1404  C     0.70921   0.83333   0.74102   0.00000  Uiso   1.00
C1405  C     0.85893   0.69141   0.72102   0.00000  Uiso   1.00
C1406  C     0.80773   0.97526   0.77898   0.00000  Uiso   1.00
C1407  C     0.80773   0.69141   0.77898   0.00000  Uiso   1.00
C1408  C     0.85893   0.97526   0.72102   0.00000  Uiso   1.00
C1409  C     0.83320   0.83333   0.66431   0.00000  Uiso   1.00
C1410  C     0.83347   0.83333   0.83569   0.00000  Uiso   1.00
C1411  C     0.83396   0.79086   0.90730   0.00000  Uiso   1.00
C1412  C     0.83271   0.87581   0.59270   0.00000  Uiso   1.00
C1413  C     0.83385   0.83333   0.88411   0.00000  Uiso   1.00
C1414  C     0.83282   0.83333   0.61589   0.00000  Uiso   1.00
C1415  C     0.83396   0.87581   0.90730   0.00000  Uiso   1.00
C1416  C     0.83271   0.79086   0.59270   0.00000  Uiso   1.00
C1417  C     0.83372   0.87611   0.95352   0.00000  Uiso   1.00
C1418  C     0.83295   0.79056   0.54648   0.00000  Uiso   1.00
C1419  C     0.83353   0.83333   0.97675   0.00000  Uiso   1.00
C1420  C     0.83314   0.83333   0.52325   0.00000  Uiso   1.00
C1421  C     0.83372   0.79056   0.95352   0.00000  Uiso   1.00
C1422  C     0.83295   0.87611   0.54649   0.00000  Uiso   1.00
C1423  C     0.83354   0.91844   0.97687   0.00000  Uiso   1.00
C1424  C     0.83313   0.74823   0.52313   0.00000  Uiso   1.00
Cu1425 Cu    0.83333   0.88022   0.75000   0.00000  Uiso   1.00
Cu1426 Cu    0.83333   0.78645   0.75000   0.00000  Uiso   1.00
H1427  H     0.83412   0.75797   0.88949   0.00000  Uiso   1.00
H1428  H     0.83255   0.90869   0.61051   0.00000  Uiso   1.00
H1429  H     0.83412   0.90869   0.88949   0.00000  Uiso   1.00
H1430  H     0.83254   0.75797   0.61051   0.00000  Uiso   1.00
H1431  H     0.83367   0.95150   0.95937   0.00000  Uiso   1.00
H1432  H     0.83300   0.71517   0.54063   0.00000  Uiso   1.00
H1433  H     0.83300   0.95150   0.54063   0.00000  Uiso   1.00
H1434  H     0.83367   0.71517   0.95937   0.00000  Uiso   1.00
N1435  N     0.83333   0.95069   0.75000   0.00000  Uiso   1.00
N1436  N     0.83333   0.71598   0.75000   0.00000  Uiso   1.00
O1437  O     0.77321   0.87291   0.75000   0.00000  Uiso   1.00
O1438  O     0.89345   0.79375   0.75000   0.00000  Uiso   1.00
O1439  O     0.89345   0.87291   0.75001   0.00000  Uiso   1.00
O1440  O     0.77321   0.79375   0.75000   0.00000  Uiso   1.00
O1441  O     0.83332   0.87293   0.68513   0.00000  Uiso   1.00
O1442  O     0.83334   0.79373   0.81487   0.00000  Uiso   1.00
O1443  O     0.83334   0.87293   0.81487   0.00000  Uiso   1.00
O1444  O     0.83332   0.79373   0.68513   0.00000  Uiso   1.00
C1445  C     0.70465   0.74651   0.71910   0.00000  Uiso   1.00
C1446  C     0.72066   0.75598   0.67141   0.00000  Uiso   1.00
H1447  H     0.69575   0.77132   0.65189   0.00000  Uiso   1.00
H1448  H     0.74739   0.78012   0.67035   0.00000  Uiso   1.00
H1449  H     0.73075   0.72264   0.65554   0.00000  Uiso   1.00
H1450  H     0.68028   0.71961   0.71604   0.00000  Uiso   1.00
H1451  H     0.72882   0.72996   0.73851   0.00000  Uiso   1.00
C1452  C     0.96202   0.92016   0.78090   0.00000  Uiso   1.00
C1453  C     0.94600   0.91069   0.82859   0.00000  Uiso   1.00
H1454  H     0.91928   0.88655   0.82965   0.00000  Uiso   1.00
H1455  H     0.97092   0.89534   0.84811   0.00000  Uiso   1.00
H1456  H     0.93591   0.94402   0.84446   0.00000  Uiso   1.00
H1457  H     0.98638   0.94705   0.78396   0.00000  Uiso   1.00
H1458  H     0.93784   0.93671   0.76149   0.00000  Uiso   1.00
C1459  C     0.96202   0.74651   0.78090   0.00000  Uiso   1.00
C1460  C     0.94600   0.75598   0.82859   0.00000  Uiso   1.00
H1461  H     0.93591   0.72264   0.84446   0.00000  Uiso   1.00
H1462  H     0.97092   0.77132   0.84811   0.00000  Uiso   1.00
H1463  H     0.91928   0.78012   0.82965   0.00000  Uiso   1.00
H1464  H     0.98638   0.71961   0.78396   0.00000  Uiso   1.00
H1465  H     0.93784   0.72996   0.76149   0.00000  Uiso   1.00
C1466  C     0.70465   0.92016   0.71910   0.00000  Uiso   1.00
C1467  C     0.72066   0.91069   0.67141   0.00000  Uiso   1.00
H1468  H     0.74739   0.88655   0.67035   0.00000  Uiso   1.00
H1469  H     0.69575   0.89534   0.65189   0.00000  Uiso   1.00
H1470  H     0.73075   0.94402   0.65554   0.00000  Uiso   1.00
H1471  H     0.68028   0.94705   0.71604   0.00000  Uiso   1.00
H1472  H     0.72882   0.93671   0.73851   0.00000  Uiso   1.00
Cl1473 Cl    0.89264   0.72079   0.68292   0.00000  Uiso   1.00
Cl1474 Cl    0.77403   0.94588   0.81708   0.00000  Uiso   1.00
Cl1475 Cl    0.77403   0.72079   0.81708   0.00000  Uiso   1.00
Cl1476 Cl    0.89264   0.94588   0.68293   0.00000  Uiso   1.00
loop_
_geom_bond_atom_site_label_1
_geom_bond_atom_site_label_2
_geom_bond_distance
_geom_bond_site_symmetry_2
_ccdc_geom_bond_type
C1     O46     1.299   .     A
C1     O43     1.299   .     A
C1     C10     1.473   .     S
C2     O44     1.299   .     A
C2     O45     1.299   .     A
C2     C9      1.473   .     S
C3     C28     1.402   .     A
C3     H39     1.084   .     S
C3     C767    1.394   1_554 S
C4     H40     1.084   .     S
C4     C27     1.402   .     A
C4     C768    1.394   .     S
C5     C10     1.417   .     A
C5     C51     1.532   .     S
C5     C171    1.402   1_455 S
C6     C58     1.532   .     S
C6     C9      1.417   .     A
C6     C90     1.402   .     S
C7     C65     1.532   .     S
C7     C9      1.417   .     A
C7     C87     1.402   .     S
C8     C72     1.532   .     S
C8     C10     1.417   .     A
C8     C170    1.402   1_455 S
C11    N42     1.373   .     A
C11    Cl79    1.764   .     S
C11    C506    1.417   1_545 S
C12    N41     1.373   .     A
C12    Cl80    1.764   .     S
C12    C259    1.417   .     S
C13    Cl81    1.764   .     S
C13    N42     1.373   .     A
C13    C504    1.417   1_545 S
C14    N41     1.373   .     A
C14    Cl82    1.764   .     S
C14    C257    1.417   .     S
C15    O47     1.296   .     A
C15    O50     1.296   .     A
C15    C20     1.461   .     S
C16    O48     1.296   .     A
C16    O49     1.296   .     A
C16    C19     1.461   .     S
C17    H33     1.084   .     S
C17    C27     1.393   .     A
C17    C19     1.403   .     A
C18    C28     1.393   .     A
C18    H34     1.084   .     S
C18    C20     1.403   .     A
C19    C21     1.403   .     A
C20    C22     1.403   .     A
C21    C23     1.393   .     A
C21    H35     1.084   .     S
C22    C24     1.393   .     A
C22    H36     1.084   .     S
C23    C29     1.402   .     A
C23    C25     1.411   .     A
C24    C26     1.411   .     A
C24    C30     1.402   .     A
C25    C27     1.411   .     A
C25    C764    1.402   .     S
C26    C28     1.411   .     A
C26    C763    1.402   1_554 S
C29    H37     1.084   .     S
C29    C741    1.394   .     S
C30    H38     1.084   .     S
C30    C742    1.394   1_554 S
Cu31   O43     1.961   .     S
Cu31   O47     1.967   .     S
Cu31   O49     1.967   .     S
Cu31   Cu32    2.686   .     S
Cu31   N41     2.018   .     S
Cu31   O45     1.961   .     S
Cu32   O48     1.967   .     S
Cu32   O44     1.961   .     S
Cu32   O50     1.967   .     S
Cu32   O46     1.961   .     S
Cu32   N42     2.018   .     S
C51    H56     1.110   .     S
C51    H57     1.106   .     S
C51    C52     1.531   .     S
C52    H55     1.111   .     S
C52    H54     1.108   .     S
C52    H53     1.111   .     S
C58    H64     1.106   .     S
C58    H63     1.110   .     S
C58    C59     1.531   .     S
C59    H60     1.108   .     S
C59    H61     1.111   .     S
C59    H62     1.111   .     S
C65    H70     1.110   .     S
C65    H71     1.106   .     S
C65    C66     1.531   .     S
C66    H68     1.111   .     S
C66    H69     1.108   .     S
C66    H67     1.111   .     S
C72    H77     1.110   .     S
C72    H78     1.106   .     S
C72    C73     1.531   .     S
C73    H75     1.111   .     S
C73    H74     1.108   .     S
C73    H76     1.111   .     S
C83    O128    1.299   .     A
C83    O125    1.299   .     A
C83    C92     1.473   .     S
C84    O126    1.299   .     A
C84    O127    1.299   .     A
C84    C91     1.473   .     S
C85    C110    1.402   .     A
C85    H121    1.084   .     S
C85    C849    1.394   1_554 S
C86    H122    1.084   .     S
C86    C109    1.402   .     A
C86    C850    1.394   .     S
C87    C92     1.417   .     A
C87    C133    1.532   .     S
C88    C140    1.532   .     S
C88    C91     1.417   .     A
C88    C172    1.402   .     S
C89    C147    1.532   .     S
C89    C91     1.417   .     A
C89    C169    1.402   .     S
C90    C154    1.532   .     S
C90    C92     1.417   .     A
C93    N124    1.373   .     A
C93    Cl161   1.764   .     S
C93    C588    1.417   1_545 S
C94    N123    1.373   .     A
C94    Cl162   1.764   .     S
C94    C341    1.417   .     S
C95    Cl163   1.764   .     S
C95    N124    1.373   .     A
C95    C586    1.417   1_545 S
C96    N123    1.373   .     A
C96    Cl164   1.764   .     S
C96    C339    1.417   .     S
C97    O129    1.296   .     A
C97    O132    1.296   .     A
C97    C102    1.461   .     S
C98    O130    1.296   .     A
C98    O131    1.296   .     A
C98    C101    1.461   .     S
C99    H115    1.084   .     S
C99    C109    1.393   .     A
C99    C101    1.403   .     A
C100   C110    1.393   .     A
C100   H116    1.084   .     S
C100   C102    1.403   .     A
C101   C103    1.403   .     A
C102   C104    1.403   .     A
C103   C105    1.393   .     A
C103   H117    1.084   .     S
C104   C106    1.393   .     A
C104   H118    1.084   .     S
C105   C111    1.402   .     A
C105   C107    1.411   .     A
C106   C108    1.411   .     A
C106   C112    1.402   .     A
C107   C109    1.411   .     A
C107   C846    1.402   .     S
C108   C110    1.411   .     A
C108   C845    1.402   1_554 S
C111   H119    1.084   .     S
C111   C823    1.394   .     S
C112   H120    1.084   .     S
C112   C824    1.394   1_554 S
Cu113  O125    1.961   .     S
Cu113  O129    1.967   .     S
Cu113  O131    1.967   .     S
Cu113  Cu114   2.686   .     S
Cu113  N123    2.018   .     S
Cu113  O127    1.961   .     S
Cu114  O130    1.967   .     S
Cu114  O126    1.961   .     S
Cu114  O132    1.967   .     S
Cu114  O128    1.961   .     S
Cu114  N124    2.018   .     S
C133   H138    1.110   .     S
C133   H139    1.106   .     S
C133   C134    1.531   .     S
C134   H137    1.111   .     S
C134   H136    1.108   .     S
C134   H135    1.111   .     S
C140   H146    1.106   .     S
C140   H145    1.110   .     S
C140   C141    1.531   .     S
C141   H142    1.108   .     S
C141   H143    1.111   .     S
C141   H144    1.111   .     S
C147   H152    1.110   .     S
C147   H153    1.106   .     S
C147   C148    1.531   .     S
C148   H150    1.111   .     S
C148   H151    1.108   .     S
C148   H149    1.111   .     S
C154   H159    1.110   .     S
C154   H160    1.106   .     S
C154   C155    1.531   .     S
C155   H157    1.111   .     S
C155   H156    1.108   .     S
C155   H158    1.111   .     S
C165   O210    1.299   .     A
C165   O207    1.299   .     A
C165   C174    1.473   .     S
C166   O208    1.299   .     A
C166   O209    1.299   .     A
C166   C173    1.473   .     S
C167   C192    1.402   .     A
C167   H203    1.084   .     S
C167   C931    1.394   1_554 S
C168   H204    1.084   .     S
C168   C191    1.402   .     A
C168   C932    1.394   .     S
C169   C174    1.417   .     A
C169   C215    1.532   .     S
C170   C222    1.532   .     S
C170   C173    1.417   .     A
C170   C8      1.402   1_655 S
C171   C229    1.532   .     S
C171   C173    1.417   .     A
C171   C5      1.402   1_655 S
C172   C236    1.532   .     S
C172   C174    1.417   .     A
C175   N206    1.373   .     A
C175   Cl243   1.764   .     S
C175   C670    1.417   1_545 S
C176   N205    1.373   .     A
C176   Cl244   1.764   .     S
C176   C423    1.417   .     S
C177   Cl245   1.764   .     S
C177   N206    1.373   .     A
C177   C668    1.417   1_545 S
C178   N205    1.373   .     A
C178   Cl246   1.764   .     S
C178   C421    1.417   .     S
C179   O211    1.296   .     A
C179   O214    1.296   .     A
C179   C184    1.461   .     S
C180   O212    1.296   .     A
C180   O213    1.296   .     A
C180   C183    1.461   .     S
C181   H197    1.084   .     S
C181   C191    1.393   .     A
C181   C183    1.403   .     A
C182   C192    1.393   .     A
C182   H198    1.084   .     S
C182   C184    1.403   .     A
C183   C185    1.403   .     A
C184   C186    1.403   .     A
C185   C187    1.393   .     A
C185   H199    1.084   .     S
C186   C188    1.393   .     A
C186   H200    1.084   .     S
C187   C193    1.402   .     A
C187   C189    1.411   .     A
C188   C190    1.411   .     A
C188   C194    1.402   .     A
C189   C191    1.411   .     A
C189   C928    1.402   .     S
C190   C192    1.411   .     A
C190   C927    1.402   1_554 S
C193   H201    1.084   .     S
C193   C905    1.394   .     S
C194   H202    1.084   .     S
C194   C906    1.394   1_554 S
Cu195  O207    1.961   .     S
Cu195  O211    1.967   .     S
Cu195  O213    1.967   .     S
Cu195  Cu196   2.686   .     S
Cu195  N205    2.018   .     S
Cu195  O209    1.961   .     S
Cu196  O212    1.967   .     S
Cu196  O208    1.961   .     S
Cu196  O214    1.967   .     S
Cu196  O210    1.961   .     S
Cu196  N206    2.018   .     S
C215   H220    1.110   .     S
C215   H221    1.106   .     S
C215   C216    1.531   .     S
C216   H219    1.111   .     S
C216   H218    1.108   .     S
C216   H217    1.111   .     S
C222   H228    1.106   .     S
C222   H227    1.110   .     S
C222   C223    1.531   .     S
C223   H224    1.108   .     S
C223   H225    1.111   .     S
C223   H226    1.111   .     S
C229   H234    1.110   .     S
C229   H235    1.106   .     S
C229   C230    1.531   .     S
C230   H232    1.111   .     S
C230   H233    1.108   .     S
C230   H231    1.111   .     S
C236   H241    1.110   .     S
C236   H242    1.106   .     S
C236   C237    1.531   .     S
C237   H239    1.111   .     S
C237   H238    1.108   .     S
C237   H240    1.111   .     S
C247   O292    1.299   .     A
C247   O289    1.299   .     A
C247   C256    1.473   .     S
C248   O290    1.299   .     A
C248   O291    1.299   .     A
C248   C255    1.473   .     S
C249   C274    1.402   .     A
C249   H285    1.084   .     S
C249   C1013   1.394   1_554 S
C250   H286    1.084   .     S
C250   C273    1.402   .     A
C250   C1014   1.394   .     S
C251   C256    1.417   .     A
C251   C297    1.532   .     S
C251   C417    1.402   1_455 S
C252   C304    1.532   .     S
C252   C255    1.417   .     A
C252   C336    1.402   .     S
C253   C311    1.532   .     S
C253   C255    1.417   .     A
C253   C333    1.402   .     S
C254   C318    1.532   .     S
C254   C256    1.417   .     A
C254   C416    1.402   1_455 S
C257   N288    1.373   .     A
C257   Cl325   1.764   .     S
C258   N287    1.373   .     A
C258   Cl326   1.764   .     S
C258   C505    1.417   .     S
C259   Cl327   1.764   .     S
C259   N288    1.373   .     A
C260   N287    1.373   .     A
C260   Cl328   1.764   .     S
C260   C503    1.417   .     S
C261   O293    1.296   .     A
C261   O296    1.296   .     A
C261   C266    1.461   .     S
C262   O294    1.296   .     A
C262   O295    1.296   .     A
C262   C265    1.461   .     S
C263   H279    1.084   .     S
C263   C273    1.393   .     A
C263   C265    1.403   .     A
C264   C274    1.393   .     A
C264   H280    1.084   .     S
C264   C266    1.403   .     A
C265   C267    1.403   .     A
C266   C268    1.403   .     A
C267   C269    1.393   .     A
C267   H281    1.084   .     S
C268   C270    1.393   .     A
C268   H282    1.084   .     S
C269   C275    1.402   .     A
C269   C271    1.411   .     A
C270   C272    1.411   .     A
C270   C276    1.402   .     A
C271   C273    1.411   .     A
C271   C1010   1.402   .     S
C272   C274    1.411   .     A
C272   C1009   1.402   1_554 S
C275   H283    1.084   .     S
C275   C987    1.394   .     S
C276   H284    1.084   .     S
C276   C988    1.394   1_554 S
Cu277  O289    1.961   .     S
Cu277  O293    1.967   .     S
Cu277  O295    1.967   .     S
Cu277  Cu278   2.686   .     S
Cu277  N287    2.018   .     S
Cu277  O291    1.961   .     S
Cu278  O294    1.967   .     S
Cu278  O290    1.961   .     S
Cu278  O296    1.967   .     S
Cu278  O292    1.961   .     S
Cu278  N288    2.018   .     S
C297   H302    1.110   .     S
C297   H303    1.106   .     S
C297   C298    1.531   .     S
C298   H301    1.111   .     S
C298   H300    1.108   .     S
C298   H299    1.111   .     S
C304   H310    1.106   .     S
C304   H309    1.110   .     S
C304   C305    1.531   .     S
C305   H306    1.108   .     S
C305   H307    1.111   .     S
C305   H308    1.111   .     S
C311   H316    1.110   .     S
C311   H317    1.106   .     S
C311   C312    1.531   .     S
C312   H314    1.111   .     S
C312   H315    1.108   .     S
C312   H313    1.111   .     S
C318   H323    1.110   .     S
C318   H324    1.106   .     S
C318   C319    1.531   .     S
C319   H321    1.111   .     S
C319   H320    1.108   .     S
C319   H322    1.111   .     S
C329   O374    1.299   .     A
C329   O371    1.299   .     A
C329   C338    1.473   .     S
C330   O372    1.299   .     A
C330   O373    1.299   .     A
C330   C337    1.473   .     S
C331   C356    1.402   .     A
C331   H367    1.084   .     S
C331   C1095   1.394   1_554 S
C332   H368    1.084   .     S
C332   C355    1.402   .     A
C332   C1096   1.394   .     S
C333   C338    1.417   .     A
C333   C379    1.532   .     S
C334   C386    1.532   .     S
C334   C337    1.417   .     A
C334   C418    1.402   .     S
C335   C393    1.532   .     S
C335   C337    1.417   .     A
C335   C415    1.402   .     S
C336   C400    1.532   .     S
C336   C338    1.417   .     A
C339   N370    1.373   .     A
C339   Cl407   1.764   .     S
C340   N369    1.373   .     A
C340   Cl408   1.764   .     S
C340   C587    1.417   .     S
C341   Cl409   1.764   .     S
C341   N370    1.373   .     A
C342   N369    1.373   .     A
C342   Cl410   1.764   .     S
C342   C585    1.417   .     S
C343   O375    1.296   .     A
C343   O378    1.296   .     A
C343   C348    1.461   .     S
C344   O376    1.296   .     A
C344   O377    1.296   .     A
C344   C347    1.461   .     S
C345   H361    1.084   .     S
C345   C355    1.393   .     A
C345   C347    1.403   .     A
C346   C356    1.393   .     A
C346   H362    1.084   .     S
C346   C348    1.403   .     A
C347   C349    1.403   .     A
C348   C350    1.403   .     A
C349   C351    1.393   .     A
C349   H363    1.084   .     S
C350   C352    1.393   .     A
C350   H364    1.084   .     S
C351   C357    1.402   .     A
C351   C353    1.411   .     A
C352   C354    1.411   .     A
C352   C358    1.402   .     A
C353   C355    1.411   .     A
C353   C1092   1.402   .     S
C354   C356    1.411   .     A
C354   C1091   1.402   1_554 S
C357   H365    1.084   .     S
C357   C1069   1.394   .     S
C358   H366    1.084   .     S
C358   C1070   1.394   1_554 S
Cu359  O371    1.961   .     S
Cu359  O375    1.967   .     S
Cu359  O377    1.967   .     S
Cu359  Cu360   2.686   .     S
Cu359  N369    2.018   .     S
Cu359  O373    1.961   .     S
Cu360  O376    1.967   .     S
Cu360  O372    1.961   .     S
Cu360  O378    1.967   .     S
Cu360  O374    1.961   .     S
Cu360  N370    2.018   .     S
C379   H384    1.110   .     S
C379   H385    1.106   .     S
C379   C380    1.531   .     S
C380   H383    1.111   .     S
C380   H382    1.108   .     S
C380   H381    1.111   .     S
C386   H392    1.106   .     S
C386   H391    1.110   .     S
C386   C387    1.531   .     S
C387   H388    1.108   .     S
C387   H389    1.111   .     S
C387   H390    1.111   .     S
C393   H398    1.110   .     S
C393   H399    1.106   .     S
C393   C394    1.531   .     S
C394   H396    1.111   .     S
C394   H397    1.108   .     S
C394   H395    1.111   .     S
C400   H405    1.110   .     S
C400   H406    1.106   .     S
C400   C401    1.531   .     S
C401   H403    1.111   .     S
C401   H402    1.108   .     S
C401   H404    1.111   .     S
C411   O456    1.299   .     A
C411   O453    1.299   .     A
C411   C420    1.473   .     S
C412   O454    1.299   .     A
C412   O455    1.299   .     A
C412   C419    1.473   .     S
C413   C438    1.402   .     A
C413   H449    1.084   .     S
C413   C1177   1.394   1_554 S
C414   H450    1.084   .     S
C414   C437    1.402   .     A
C414   C1178   1.394   .     S
C415   C420    1.417   .     A
C415   C461    1.532   .     S
C416   C468    1.532   .     S
C416   C419    1.417   .     A
C416   C254    1.402   1_655 S
C417   C475    1.532   .     S
C417   C419    1.417   .     A
C417   C251    1.402   1_655 S
C418   C482    1.532   .     S
C418   C420    1.417   .     A
C421   N452    1.373   .     A
C421   Cl489   1.764   .     S
C422   N451    1.373   .     A
C422   Cl490   1.764   .     S
C422   C669    1.417   .     S
C423   Cl491   1.764   .     S
C423   N452    1.373   .     A
C424   N451    1.373   .     A
C424   Cl492   1.764   .     S
C424   C667    1.417   .     S
C425   O457    1.296   .     A
C425   O460    1.296   .     A
C425   C430    1.461   .     S
C426   O458    1.296   .     A
C426   O459    1.296   .     A
C426   C429    1.461   .     S
C427   H443    1.084   .     S
C427   C437    1.393   .     A
C427   C429    1.403   .     A
C428   C438    1.393   .     A
C428   H444    1.084   .     S
C428   C430    1.403   .     A
C429   C431    1.403   .     A
C430   C432    1.403   .     A
C431   C433    1.393   .     A
C431   H445    1.084   .     S
C432   C434    1.393   .     A
C432   H446    1.084   .     S
C433   C439    1.402   .     A
C433   C435    1.411   .     A
C434   C436    1.411   .     A
C434   C440    1.402   .     A
C435   C437    1.411   .     A
C435   C1174   1.402   .     S
C436   C438    1.411   .     A
C436   C1173   1.402   1_554 S
C439   H447    1.084   .     S
C439   C1151   1.394   .     S
C440   H448    1.084   .     S
C440   C1152   1.394   1_554 S
Cu441  O453    1.961   .     S
Cu441  O457    1.967   .     S
Cu441  O459    1.967   .     S
Cu441  Cu442   2.686   .     S
Cu441  N451    2.018   .     S
Cu441  O455    1.961   .     S
Cu442  O458    1.967   .     S
Cu442  O454    1.961   .     S
Cu442  O460    1.967   .     S
Cu442  O456    1.961   .     S
Cu442  N452    2.018   .     S
C461   H466    1.110   .     S
C461   H467    1.106   .     S
C461   C462    1.531   .     S
C462   H465    1.111   .     S
C462   H464    1.108   .     S
C462   H463    1.111   .     S
C468   H474    1.106   .     S
C468   H473    1.110   .     S
C468   C469    1.531   .     S
C469   H470    1.108   .     S
C469   H471    1.111   .     S
C469   H472    1.111   .     S
C475   H480    1.110   .     S
C475   H481    1.106   .     S
C475   C476    1.531   .     S
C476   H478    1.111   .     S
C476   H479    1.108   .     S
C476   H477    1.111   .     S
C482   H487    1.110   .     S
C482   H488    1.106   .     S
C482   C483    1.531   .     S
C483   H485    1.111   .     S
C483   H484    1.108   .     S
C483   H486    1.111   .     S
C493   O538    1.299   .     A
C493   O535    1.299   .     A
C493   C502    1.473   .     S
C494   O536    1.299   .     A
C494   O537    1.299   .     A
C494   C501    1.473   .     S
C495   C520    1.402   .     A
C495   H531    1.084   .     S
C495   C1259   1.394   1_554 S
C496   H532    1.084   .     S
C496   C519    1.402   .     A
C496   C1260   1.394   .     S
C497   C502    1.417   .     A
C497   C543    1.532   .     S
C497   C663    1.402   1_455 S
C498   C550    1.532   .     S
C498   C501    1.417   .     A
C498   C582    1.402   .     S
C499   C557    1.532   .     S
C499   C501    1.417   .     A
C499   C579    1.402   .     S
C500   C564    1.532   .     S
C500   C502    1.417   .     A
C500   C662    1.402   1_455 S
C503   N534    1.373   .     A
C503   Cl571   1.764   .     S
C504   N533    1.373   .     A
C504   Cl572   1.764   .     S
C504   C13     1.417   1_565 S
C505   Cl573   1.764   .     S
C505   N534    1.373   .     A
C506   N533    1.373   .     A
C506   Cl574   1.764   .     S
C506   C11     1.417   1_565 S
C507   O539    1.296   .     A
C507   O542    1.296   .     A
C507   C512    1.461   .     S
C508   O540    1.296   .     A
C508   O541    1.296   .     A
C508   C511    1.461   .     S
C509   H525    1.084   .     S
C509   C519    1.393   .     A
C509   C511    1.403   .     A
C510   C520    1.393   .     A
C510   H526    1.084   .     S
C510   C512    1.403   .     A
C511   C513    1.403   .     A
C512   C514    1.403   .     A
C513   C515    1.393   .     A
C513   H527    1.084   .     S
C514   C516    1.393   .     A
C514   H528    1.084   .     S
C515   C521    1.402   .     A
C515   C517    1.411   .     A
C516   C518    1.411   .     A
C516   C522    1.402   .     A
C517   C519    1.411   .     A
C517   C1256   1.402   .     S
C518   C520    1.411   .     A
C518   C1255   1.402   1_554 S
C521   H529    1.084   .     S
C521   C1233   1.394   .     S
C522   H530    1.084   .     S
C522   C1234   1.394   1_554 S
Cu523  O535    1.961   .     S
Cu523  O539    1.967   .     S
Cu523  O541    1.967   .     S
Cu523  Cu524   2.686   .     S
Cu523  N533    2.018   .     S
Cu523  O537    1.961   .     S
Cu524  O540    1.967   .     S
Cu524  O536    1.961   .     S
Cu524  O542    1.967   .     S
Cu524  O538    1.961   .     S
Cu524  N534    2.018   .     S
C543   H548    1.110   .     S
C543   H549    1.106   .     S
C543   C544    1.531   .     S
C544   H547    1.111   .     S
C544   H546    1.108   .     S
C544   H545    1.111   .     S
C550   H556    1.106   .     S
C550   H555    1.110   .     S
C550   C551    1.531   .     S
C551   H552    1.108   .     S
C551   H553    1.111   .     S
C551   H554    1.111   .     S
C557   H562    1.110   .     S
C557   H563    1.106   .     S
C557   C558    1.531   .     S
C558   H560    1.111   .     S
C558   H561    1.108   .     S
C558   H559    1.111   .     S
C564   H569    1.110   .     S
C564   H570    1.106   .     S
C564   C565    1.531   .     S
C565   H567    1.111   .     S
C565   H566    1.108   .     S
C565   H568    1.111   .     S
C575   O620    1.299   .     A
C575   O617    1.299   .     A
C575   C584    1.473   .     S
C576   O618    1.299   .     A
C576   O619    1.299   .     A
C576   C583    1.473   .     S
C577   C602    1.402   .     A
C577   H613    1.084   .     S
C577   C1341   1.394   1_554 S
C578   H614    1.084   .     S
C578   C601    1.402   .     A
C578   C1342   1.394   .     S
C579   C584    1.417   .     A
C579   C625    1.532   .     S
C580   C632    1.532   .     S
C580   C583    1.417   .     A
C580   C664    1.402   .     S
C581   C639    1.532   .     S
C581   C583    1.417   .     A
C581   C661    1.402   .     S
C582   C646    1.532   .     S
C582   C584    1.417   .     A
C585   N616    1.373   .     A
C585   Cl653   1.764   .     S
C586   N615    1.373   .     A
C586   Cl654   1.764   .     S
C586   C95     1.417   1_565 S
C587   Cl655   1.764   .     S
C587   N616    1.373   .     A
C588   N615    1.373   .     A
C588   Cl656   1.764   .     S
C588   C93     1.417   1_565 S
C589   O621    1.296   .     A
C589   O624    1.296   .     A
C589   C594    1.461   .     S
C590   O622    1.296   .     A
C590   O623    1.296   .     A
C590   C593    1.461   .     S
C591   H607    1.084   .     S
C591   C601    1.393   .     A
C591   C593    1.403   .     A
C592   C602    1.393   .     A
C592   H608    1.084   .     S
C592   C594    1.403   .     A
C593   C595    1.403   .     A
C594   C596    1.403   .     A
C595   C597    1.393   .     A
C595   H609    1.084   .     S
C596   C598    1.393   .     A
C596   H610    1.084   .     S
C597   C603    1.402   .     A
C597   C599    1.411   .     A
C598   C600    1.411   .     A
C598   C604    1.402   .     A
C599   C601    1.411   .     A
C599   C1338   1.402   .     S
C600   C602    1.411   .     A
C600   C1337   1.402   1_554 S
C603   H611    1.084   .     S
C603   C1315   1.394   .     S
C604   H612    1.084   .     S
C604   C1316   1.394   1_554 S
Cu605  O617    1.961   .     S
Cu605  O621    1.967   .     S
Cu605  O623    1.967   .     S
Cu605  Cu606   2.686   .     S
Cu605  N615    2.018   .     S
Cu605  O619    1.961   .     S
Cu606  O622    1.967   .     S
Cu606  O618    1.961   .     S
Cu606  O624    1.967   .     S
Cu606  O620    1.961   .     S
Cu606  N616    2.018   .     S
C625   H630    1.110   .     S
C625   H631    1.106   .     S
C625   C626    1.531   .     S
C626   H629    1.111   .     S
C626   H628    1.108   .     S
C626   H627    1.111   .     S
C632   H638    1.106   .     S
C632   H637    1.110   .     S
C632   C633    1.531   .     S
C633   H634    1.108   .     S
C633   H635    1.111   .     S
C633   H636    1.111   .     S
C639   H644    1.110   .     S
C639   H645    1.106   .     S
C639   C640    1.531   .     S
C640   H642    1.111   .     S
C640   H643    1.108   .     S
C640   H641    1.111   .     S
C646   H651    1.110   .     S
C646   H652    1.106   .     S
C646   C647    1.531   .     S
C647   H649    1.111   .     S
C647   H648    1.108   .     S
C647   H650    1.111   .     S
C657   O702    1.299   .     A
C657   O699    1.299   .     A
C657   C666    1.473   .     S
C658   O700    1.299   .     A
C658   O701    1.299   .     A
C658   C665    1.473   .     S
C659   C684    1.402   .     A
C659   H695    1.084   .     S
C659   C1423   1.394   1_554 S
C660   H696    1.084   .     S
C660   C683    1.402   .     A
C660   C1424   1.394   .     S
C661   C666    1.417   .     A
C661   C707    1.532   .     S
C662   C714    1.532   .     S
C662   C665    1.417   .     A
C662   C500    1.402   1_655 S
C663   C721    1.532   .     S
C663   C665    1.417   .     A
C663   C497    1.402   1_655 S
C664   C728    1.532   .     S
C664   C666    1.417   .     A
C667   N698    1.373   .     A
C667   Cl735   1.764   .     S
C668   N697    1.373   .     A
C668   Cl736   1.764   .     S
C668   C177    1.417   1_565 S
C669   Cl737   1.764   .     S
C669   N698    1.373   .     A
C670   N697    1.373   .     A
C670   Cl738   1.764   .     S
C670   C175    1.417   1_565 S
C671   O703    1.296   .     A
C671   O706    1.296   .     A
C671   C676    1.461   .     S
C672   O704    1.296   .     A
C672   O705    1.296   .     A
C672   C675    1.461   .     S
C673   H689    1.084   .     S
C673   C683    1.393   .     A
C673   C675    1.403   .     A
C674   C684    1.393   .     A
C674   H690    1.084   .     S
C674   C676    1.403   .     A
C675   C677    1.403   .     A
C676   C678    1.403   .     A
C677   C679    1.393   .     A
C677   H691    1.084   .     S
C678   C680    1.393   .     A
C678   H692    1.084   .     S
C679   C685    1.402   .     A
C679   C681    1.411   .     A
C680   C682    1.411   .     A
C680   C686    1.402   .     A
C681   C683    1.411   .     A
C681   C1420   1.402   .     S
C682   C684    1.411   .     A
C682   C1419   1.402   1_554 S
C685   H693    1.084   .     S
C685   C1397   1.394   .     S
C686   H694    1.084   .     S
C686   C1398   1.394   1_554 S
Cu687  O699    1.961   .     S
Cu687  O703    1.967   .     S
Cu687  O705    1.967   .     S
Cu687  Cu688   2.686   .     S
Cu687  N697    2.018   .     S
Cu687  O701    1.961   .     S
Cu688  O704    1.967   .     S
Cu688  O700    1.961   .     S
Cu688  O706    1.967   .     S
Cu688  O702    1.961   .     S
Cu688  N698    2.018   .     S
C707   H712    1.110   .     S
C707   H713    1.106   .     S
C707   C708    1.531   .     S
C708   H711    1.111   .     S
C708   H710    1.108   .     S
C708   H709    1.111   .     S
C714   H720    1.106   .     S
C714   H719    1.110   .     S
C714   C715    1.531   .     S
C715   H716    1.108   .     S
C715   H717    1.111   .     S
C715   H718    1.111   .     S
C721   H726    1.110   .     S
C721   H727    1.106   .     S
C721   C722    1.531   .     S
C722   H724    1.111   .     S
C722   H725    1.108   .     S
C722   H723    1.111   .     S
C728   H733    1.110   .     S
C728   H734    1.106   .     S
C728   C729    1.531   .     S
C729   H731    1.111   .     S
C729   H730    1.108   .     S
C729   H732    1.111   .     S
C739   O784    1.299   .     A
C739   O781    1.299   .     A
C739   C748    1.473   .     S
C740   O782    1.299   .     A
C740   O783    1.299   .     A
C740   C747    1.473   .     S
C741   C766    1.402   .     A
C741   H777    1.084   .     S
C742   H778    1.084   .     S
C742   C765    1.402   .     A
C742   C30     1.394   1_556 S
C743   C748    1.417   .     A
C743   C789    1.532   .     S
C743   C909    1.402   1_455 S
C744   C796    1.532   .     S
C744   C747    1.417   .     A
C744   C828    1.402   .     S
C745   C803    1.532   .     S
C745   C747    1.417   .     A
C745   C825    1.402   .     S
C746   C810    1.532   .     S
C746   C748    1.417   .     A
C746   C908    1.402   1_455 S
C749   N780    1.373   .     A
C749   Cl817   1.764   .     S
C749   C1244   1.417   1_545 S
C750   N779    1.373   .     A
C750   Cl818   1.764   .     S
C750   C997    1.417   .     S
C751   Cl819   1.764   .     S
C751   N780    1.373   .     A
C751   C1242   1.417   1_545 S
C752   N779    1.373   .     A
C752   Cl820   1.764   .     S
C752   C995    1.417   .     S
C753   O785    1.296   .     A
C753   O788    1.296   .     A
C753   C758    1.461   .     S
C754   O786    1.296   .     A
C754   O787    1.296   .     A
C754   C757    1.461   .     S
C755   H771    1.084   .     S
C755   C765    1.393   .     A
C755   C757    1.403   .     A
C756   C766    1.393   .     A
C756   H772    1.084   .     S
C756   C758    1.403   .     A
C757   C759    1.403   .     A
C758   C760    1.403   .     A
C759   C761    1.393   .     A
C759   H773    1.084   .     S
C760   C762    1.393   .     A
C760   H774    1.084   .     S
C761   C767    1.402   .     A
C761   C763    1.411   .     A
C762   C764    1.411   .     A
C762   C768    1.402   .     A
C763   C765    1.411   .     A
C763   C26     1.402   1_556 S
C764   C766    1.411   .     A
C767   H775    1.084   .     S
C767   C3      1.394   1_556 S
C768   H776    1.084   .     S
Cu769  O781    1.961   .     S
Cu769  O785    1.967   .     S
Cu769  O787    1.967   .     S
Cu769  Cu770   2.686   .     S
Cu769  N779    2.018   .     S
Cu769  O783    1.961   .     S
Cu770  O786    1.967   .     S
Cu770  O782    1.961   .     S
Cu770  O788    1.967   .     S
Cu770  O784    1.961   .     S
Cu770  N780    2.018   .     S
C789   H794    1.110   .     S
C789   H795    1.106   .     S
C789   C790    1.531   .     S
C790   H793    1.111   .     S
C790   H792    1.108   .     S
C790   H791    1.111   .     S
C796   H802    1.106   .     S
C796   H801    1.110   .     S
C796   C797    1.531   .     S
C797   H798    1.108   .     S
C797   H799    1.111   .     S
C797   H800    1.111   .     S
C803   H808    1.110   .     S
C803   H809    1.106   .     S
C803   C804    1.531   .     S
C804   H806    1.111   .     S
C804   H807    1.108   .     S
C804   H805    1.111   .     S
C810   H815    1.110   .     S
C810   H816    1.106   .     S
C810   C811    1.531   .     S
C811   H813    1.111   .     S
C811   H812    1.108   .     S
C811   H814    1.111   .     S
C821   O866    1.299   .     A
C821   O863    1.299   .     A
C821   C830    1.473   .     S
C822   O864    1.299   .     A
C822   O865    1.299   .     A
C822   C829    1.473   .     S
C823   C848    1.402   .     A
C823   H859    1.084   .     S
C824   H860    1.084   .     S
C824   C847    1.402   .     A
C824   C112    1.394   1_556 S
C825   C830    1.417   .     A
C825   C871    1.532   .     S
C826   C878    1.532   .     S
C826   C829    1.417   .     A
C826   C910    1.402   .     S
C827   C885    1.532   .     S
C827   C829    1.417   .     A
C827   C907    1.402   .     S
C828   C892    1.532   .     S
C828   C830    1.417   .     A
C831   N862    1.373   .     A
C831   Cl899   1.764   .     S
C831   C1326   1.417   1_545 S
C832   N861    1.373   .     A
C832   Cl900   1.764   .     S
C832   C1079   1.417   .     S
C833   Cl901   1.764   .     S
C833   N862    1.373   .     A
C833   C1324   1.417   1_545 S
C834   N861    1.373   .     A
C834   Cl902   1.764   .     S
C834   C1077   1.417   .     S
C835   O867    1.296   .     A
C835   O870    1.296   .     A
C835   C840    1.461   .     S
C836   O868    1.296   .     A
C836   O869    1.296   .     A
C836   C839    1.461   .     S
C837   H853    1.084   .     S
C837   C847    1.393   .     A
C837   C839    1.403   .     A
C838   C848    1.393   .     A
C838   H854    1.084   .     S
C838   C840    1.403   .     A
C839   C841    1.403   .     A
C840   C842    1.403   .     A
C841   C843    1.393   .     A
C841   H855    1.084   .     S
C842   C844    1.393   .     A
C842   H856    1.084   .     S
C843   C849    1.402   .     A
C843   C845    1.411   .     A
C844   C846    1.411   .     A
C844   C850    1.402   .     A
C845   C847    1.411   .     A
C845   C108    1.402   1_556 S
C846   C848    1.411   .     A
C849   H857    1.084   .     S
C849   C85     1.394   1_556 S
C850   H858    1.084   .     S
Cu851  O863    1.961   .     S
Cu851  O867    1.967   .     S
Cu851  O869    1.967   .     S
Cu851  Cu852   2.686   .     S
Cu851  N861    2.018   .     S
Cu851  O865    1.961   .     S
Cu852  O868    1.967   .     S
Cu852  O864    1.961   .     S
Cu852  O870    1.967   .     S
Cu852  O866    1.961   .     S
Cu852  N862    2.018   .     S
C871   H876    1.110   .     S
C871   H877    1.106   .     S
C871   C872    1.531   .     S
C872   H875    1.111   .     S
C872   H874    1.108   .     S
C872   H873    1.111   .     S
C878   H884    1.106   .     S
C878   H883    1.110   .     S
C878   C879    1.531   .     S
C879   H880    1.108   .     S
C879   H881    1.111   .     S
C879   H882    1.111   .     S
C885   H890    1.110   .     S
C885   H891    1.106   .     S
C885   C886    1.531   .     S
C886   H888    1.111   .     S
C886   H889    1.108   .     S
C886   H887    1.111   .     S
C892   H897    1.110   .     S
C892   H898    1.106   .     S
C892   C893    1.531   .     S
C893   H895    1.111   .     S
C893   H894    1.108   .     S
C893   H896    1.111   .     S
C903   O948    1.299   .     A
C903   O945    1.299   .     A
C903   C912    1.473   .     S
C904   O946    1.299   .     A
C904   O947    1.299   .     A
C904   C911    1.473   .     S
C905   C930    1.402   .     A
C905   H941    1.084   .     S
C906   H942    1.084   .     S
C906   C929    1.402   .     A
C906   C194    1.394   1_556 S
C907   C912    1.417   .     A
C907   C953    1.532   .     S
C908   C960    1.532   .     S
C908   C911    1.417   .     A
C908   C746    1.402   1_655 S
C909   C967    1.532   .     S
C909   C911    1.417   .     A
C909   C743    1.402   1_655 S
C910   C974    1.532   .     S
C910   C912    1.417   .     A
C913   N944    1.373   .     A
C913   Cl981   1.764   .     S
C913   C1408   1.417   1_545 S
C914   N943    1.373   .     A
C914   Cl982   1.764   .     S
C914   C1161   1.417   .     S
C915   Cl983   1.764   .     S
C915   N944    1.373   .     A
C915   C1406   1.417   1_545 S
C916   N943    1.373   .     A
C916   Cl984   1.764   .     S
C916   C1159   1.417   .     S
C917   O949    1.296   .     A
C917   O952    1.296   .     A
C917   C922    1.461   .     S
C918   O950    1.296   .     A
C918   O951    1.296   .     A
C918   C921    1.461   .     S
C919   H935    1.084   .     S
C919   C929    1.393   .     A
C919   C921    1.403   .     A
C920   C930    1.393   .     A
C920   H936    1.084   .     S
C920   C922    1.403   .     A
C921   C923    1.403   .     A
C922   C924    1.403   .     A
C923   C925    1.393   .     A
C923   H937    1.084   .     S
C924   C926    1.393   .     A
C924   H938    1.084   .     S
C925   C931    1.402   .     A
C925   C927    1.411   .     A
C926   C928    1.411   .     A
C926   C932    1.402   .     A
C927   C929    1.411   .     A
C927   C190    1.402   1_556 S
C928   C930    1.411   .     A
C931   H939    1.084   .     S
C931   C167    1.394   1_556 S
C932   H940    1.084   .     S
Cu933  O945    1.961   .     S
Cu933  O949    1.967   .     S
Cu933  O951    1.967   .     S
Cu933  Cu934   2.686   .     S
Cu933  N943    2.018   .     S
Cu933  O947    1.961   .     S
Cu934  O950    1.967   .     S
Cu934  O946    1.961   .     S
Cu934  O952    1.967   .     S
Cu934  O948    1.961   .     S
Cu934  N944    2.018   .     S
C953   H958    1.110   .     S
C953   H959    1.106   .     S
C953   C954    1.531   .     S
C954   H957    1.111   .     S
C954   H956    1.108   .     S
C954   H955    1.111   .     S
C960   H966    1.106   .     S
C960   H965    1.110   .     S
C960   C961    1.531   .     S
C961   H962    1.108   .     S
C961   H963    1.111   .     S
C961   H964    1.111   .     S
C967   H972    1.110   .     S
C967   H973    1.106   .     S
C967   C968    1.531   .     S
C968   H970    1.111   .     S
C968   H971    1.108   .     S
C968   H969    1.111   .     S
C974   H979    1.110   .     S
C974   H980    1.106   .     S
C974   C975    1.531   .     S
C975   H977    1.111   .     S
C975   H976    1.108   .     S
C975   H978    1.111   .     S
C985   O1030   1.299   .     A
C985   O1027   1.299   .     A
C985   C994    1.473   .     S
C986   O1028   1.299   .     A
C986   O1029   1.299   .     A
C986   C993    1.473   .     S
C987   C1012   1.402   .     A
C987   H1023   1.084   .     S
C988   H1024   1.084   .     S
C988   C1011   1.402   .     A
C988   C276    1.394   1_556 S
C989   C994    1.417   .     A
C989   C1035   1.532   .     S
C989   C1155   1.402   1_455 S
C990   C1042   1.532   .     S
C990   C993    1.417   .     A
C990   C1074   1.402   .     S
C991   C1049   1.532   .     S
C991   C993    1.417   .     A
C991   C1071   1.402   .     S
C992   C1056   1.532   .     S
C992   C994    1.417   .     A
C992   C1154   1.402   1_455 S
C995   N1026   1.373   .     A
C995   Cl1063  1.764   .     S
C996   N1025   1.373   .     A
C996   Cl1064  1.764   .     S
C996   C1243   1.417   .     S
C997   Cl1065  1.764   .     S
C997   N1026   1.373   .     A
C998   N1025   1.373   .     A
C998   Cl1066  1.764   .     S
C998   C1241   1.417   .     S
C999   O1031   1.296   .     A
C999   O1034   1.296   .     A
C999   C1004   1.461   .     S
C1000  O1032   1.296   .     A
C1000  O1033   1.296   .     A
C1000  C1003   1.461   .     S
C1001  H1017   1.084   .     S
C1001  C1011   1.393   .     A
C1001  C1003   1.403   .     A
C1002  C1012   1.393   .     A
C1002  H1018   1.084   .     S
C1002  C1004   1.403   .     A
C1003  C1005   1.403   .     A
C1004  C1006   1.403   .     A
C1005  C1007   1.393   .     A
C1005  H1019   1.084   .     S
C1006  C1008   1.393   .     A
C1006  H1020   1.084   .     S
C1007  C1013   1.402   .     A
C1007  C1009   1.411   .     A
C1008  C1010   1.411   .     A
C1008  C1014   1.402   .     A
C1009  C1011   1.411   .     A
C1009  C272    1.402   1_556 S
C1010  C1012   1.411   .     A
C1013  H1021   1.084   .     S
C1013  C249    1.394   1_556 S
C1014  H1022   1.084   .     S
Cu1015 O1027   1.961   .     S
Cu1015 O1031   1.967   .     S
Cu1015 O1033   1.967   .     S
Cu1015 Cu1016  2.686   .     S
Cu1015 N1025   2.018   .     S
Cu1015 O1029   1.961   .     S
Cu1016 O1032   1.967   .     S
Cu1016 O1028   1.961   .     S
Cu1016 O1034   1.967   .     S
Cu1016 O1030   1.961   .     S
Cu1016 N1026   2.018   .     S
C1035  H1040   1.110   .     S
C1035  H1041   1.106   .     S
C1035  C1036   1.531   .     S
C1036  H1039   1.111   .     S
C1036  H1038   1.108   .     S
C1036  H1037   1.111   .     S
C1042  H1048   1.106   .     S
C1042  H1047   1.110   .     S
C1042  C1043   1.531   .     S
C1043  H1044   1.108   .     S
C1043  H1045   1.111   .     S
C1043  H1046   1.111   .     S
C1049  H1054   1.110   .     S
C1049  H1055   1.106   .     S
C1049  C1050   1.531   .     S
C1050  H1052   1.111   .     S
C1050  H1053   1.108   .     S
C1050  H1051   1.111   .     S
C1056  H1061   1.110   .     S
C1056  H1062   1.106   .     S
C1056  C1057   1.531   .     S
C1057  H1059   1.111   .     S
C1057  H1058   1.108   .     S
C1057  H1060   1.111   .     S
C1067  O1112   1.299   .     A
C1067  O1109   1.299   .     A
C1067  C1076   1.473   .     S
C1068  O1110   1.299   .     A
C1068  O1111   1.299   .     A
C1068  C1075   1.473   .     S
C1069  C1094   1.402   .     A
C1069  H1105   1.084   .     S
C1070  H1106   1.084   .     S
C1070  C1093   1.402   .     A
C1070  C358    1.394   1_556 S
C1071  C1076   1.417   .     A
C1071  C1117   1.532   .     S
C1072  C1124   1.532   .     S
C1072  C1075   1.417   .     A
C1072  C1156   1.402   .     S
C1073  C1131   1.532   .     S
C1073  C1075   1.417   .     A
C1073  C1153   1.402   .     S
C1074  C1138   1.532   .     S
C1074  C1076   1.417   .     A
C1077  N1108   1.373   .     A
C1077  Cl1145  1.764   .     S
C1078  N1107   1.373   .     A
C1078  Cl1146  1.764   .     S
C1078  C1325   1.417   .     S
C1079  Cl1147  1.764   .     S
C1079  N1108   1.373   .     A
C1080  N1107   1.373   .     A
C1080  Cl1148  1.764   .     S
C1080  C1323   1.417   .     S
C1081  O1113   1.296   .     A
C1081  O1116   1.296   .     A
C1081  C1086   1.461   .     S
C1082  O1114   1.296   .     A
C1082  O1115   1.296   .     A
C1082  C1085   1.461   .     S
C1083  H1099   1.084   .     S
C1083  C1093   1.393   .     A
C1083  C1085   1.403   .     A
C1084  C1094   1.393   .     A
C1084  H1100   1.084   .     S
C1084  C1086   1.403   .     A
C1085  C1087   1.403   .     A
C1086  C1088   1.403   .     A
C1087  C1089   1.393   .     A
C1087  H1101   1.084   .     S
C1088  C1090   1.393   .     A
C1088  H1102   1.084   .     S
C1089  C1095   1.402   .     A
C1089  C1091   1.411   .     A
C1090  C1092   1.411   .     A
C1090  C1096   1.402   .     A
C1091  C1093   1.411   .     A
C1091  C354    1.402   1_556 S
C1092  C1094   1.411   .     A
C1095  H1103   1.084   .     S
C1095  C331    1.394   1_556 S
C1096  H1104   1.084   .     S
Cu1097 O1109   1.961   .     S
Cu1097 O1113   1.967   .     S
Cu1097 O1115   1.967   .     S
Cu1097 Cu1098  2.686   .     S
Cu1097 N1107   2.018   .     S
Cu1097 O1111   1.961   .     S
Cu1098 O1114   1.967   .     S
Cu1098 O1110   1.961   .     S
Cu1098 O1116   1.967   .     S
Cu1098 O1112   1.961   .     S
Cu1098 N1108   2.018   .     S
C1117  H1122   1.110   .     S
C1117  H1123   1.106   .     S
C1117  C1118   1.531   .     S
C1118  H1121   1.111   .     S
C1118  H1120   1.108   .     S
C1118  H1119   1.111   .     S
C1124  H1130   1.106   .     S
C1124  H1129   1.110   .     S
C1124  C1125   1.531   .     S
C1125  H1126   1.108   .     S
C1125  H1127   1.111   .     S
C1125  H1128   1.111   .     S
C1131  H1136   1.110   .     S
C1131  H1137   1.106   .     S
C1131  C1132   1.531   .     S
C1132  H1134   1.111   .     S
C1132  H1135   1.108   .     S
C1132  H1133   1.111   .     S
C1138  H1143   1.110   .     S
C1138  H1144   1.106   .     S
C1138  C1139   1.531   .     S
C1139  H1141   1.111   .     S
C1139  H1140   1.108   .     S
C1139  H1142   1.111   .     S
C1149  O1194   1.299   .     A
C1149  O1191   1.299   .     A
C1149  C1158   1.473   .     S
C1150  O1192   1.299   .     A
C1150  O1193   1.299   .     A
C1150  C1157   1.473   .     S
C1151  C1176   1.402   .     A
C1151  H1187   1.084   .     S
C1152  H1188   1.084   .     S
C1152  C1175   1.402   .     A
C1152  C440    1.394   1_556 S
C1153  C1158   1.417   .     A
C1153  C1199   1.532   .     S
C1154  C1206   1.532   .     S
C1154  C1157   1.417   .     A
C1154  C992    1.402   1_655 S
C1155  C1213   1.532   .     S
C1155  C1157   1.417   .     A
C1155  C989    1.402   1_655 S
C1156  C1220   1.532   .     S
C1156  C1158   1.417   .     A
C1159  N1190   1.373   .     A
C1159  Cl1227  1.764   .     S
C1160  N1189   1.373   .     A
C1160  Cl1228  1.764   .     S
C1160  C1407   1.417   .     S
C1161  Cl1229  1.764   .     S
C1161  N1190   1.373   .     A
C1162  N1189   1.373   .     A
C1162  Cl1230  1.764   .     S
C1162  C1405   1.417   .     S
C1163  O1195   1.296   .     A
C1163  O1198   1.296   .     A
C1163  C1168   1.461   .     S
C1164  O1196   1.296   .     A
C1164  O1197   1.296   .     A
C1164  C1167   1.461   .     S
C1165  H1181   1.084   .     S
C1165  C1175   1.393   .     A
C1165  C1167   1.403   .     A
C1166  C1176   1.393   .     A
C1166  H1182   1.084   .     S
C1166  C1168   1.403   .     A
C1167  C1169   1.403   .     A
C1168  C1170   1.403   .     A
C1169  C1171   1.393   .     A
C1169  H1183   1.084   .     S
C1170  C1172   1.393   .     A
C1170  H1184   1.084   .     S
C1171  C1177   1.402   .     A
C1171  C1173   1.411   .     A
C1172  C1174   1.411   .     A
C1172  C1178   1.402   .     A
C1173  C1175   1.411   .     A
C1173  C436    1.402   1_556 S
C1174  C1176   1.411   .     A
C1177  H1185   1.084   .     S
C1177  C413    1.394   1_556 S
C1178  H1186   1.084   .     S
Cu1179 O1191   1.961   .     S
Cu1179 O1195   1.967   .     S
Cu1179 O1197   1.967   .     S
Cu1179 Cu1180  2.686   .     S
Cu1179 N1189   2.018   .     S
Cu1179 O1193   1.961   .     S
Cu1180 O1196   1.967   .     S
Cu1180 O1192   1.961   .     S
Cu1180 O1198   1.967   .     S
Cu1180 O1194   1.961   .     S
Cu1180 N1190   2.018   .     S
C1199  H1204   1.110   .     S
C1199  H1205   1.106   .     S
C1199  C1200   1.531   .     S
C1200  H1203   1.111   .     S
C1200  H1202   1.108   .     S
C1200  H1201   1.111   .     S
C1206  H1212   1.106   .     S
C1206  H1211   1.110   .     S
C1206  C1207   1.531   .     S
C1207  H1208   1.108   .     S
C1207  H1209   1.111   .     S
C1207  H1210   1.111   .     S
C1213  H1218   1.110   .     S
C1213  H1219   1.106   .     S
C1213  C1214   1.531   .     S
C1214  H1216   1.111   .     S
C1214  H1217   1.108   .     S
C1214  H1215   1.111   .     S
C1220  H1225   1.110   .     S
C1220  H1226   1.106   .     S
C1220  C1221   1.531   .     S
C1221  H1223   1.111   .     S
C1221  H1222   1.108   .     S
C1221  H1224   1.111   .     S
C1231  O1276   1.299   .     A
C1231  O1273   1.299   .     A
C1231  C1240   1.473   .     S
C1232  O1274   1.299   .     A
C1232  O1275   1.299   .     A
C1232  C1239   1.473   .     S
C1233  C1258   1.402   .     A
C1233  H1269   1.084   .     S
C1234  H1270   1.084   .     S
C1234  C1257   1.402   .     A
C1234  C522    1.394   1_556 S
C1235  C1240   1.417   .     A
C1235  C1281   1.532   .     S
C1235  C1401   1.402   1_455 S
C1236  C1288   1.532   .     S
C1236  C1239   1.417   .     A
C1236  C1320   1.402   .     S
C1237  C1295   1.532   .     S
C1237  C1239   1.417   .     A
C1237  C1317   1.402   .     S
C1238  C1302   1.532   .     S
C1238  C1240   1.417   .     A
C1238  C1400   1.402   1_455 S
C1241  N1272   1.373   .     A
C1241  Cl1309  1.764   .     S
C1242  N1271   1.373   .     A
C1242  Cl1310  1.764   .     S
C1242  C751    1.417   1_565 S
C1243  Cl1311  1.764   .     S
C1243  N1272   1.373   .     A
C1244  N1271   1.373   .     A
C1244  Cl1312  1.764   .     S
C1244  C749    1.417   1_565 S
C1245  O1277   1.296   .     A
C1245  O1280   1.296   .     A
C1245  C1250   1.461   .     S
C1246  O1278   1.296   .     A
C1246  O1279   1.296   .     A
C1246  C1249   1.461   .     S
C1247  H1263   1.084   .     S
C1247  C1257   1.393   .     A
C1247  C1249   1.403   .     A
C1248  C1258   1.393   .     A
C1248  H1264   1.084   .     S
C1248  C1250   1.403   .     A
C1249  C1251   1.403   .     A
C1250  C1252   1.403   .     A
C1251  C1253   1.393   .     A
C1251  H1265   1.084   .     S
C1252  C1254   1.393   .     A
C1252  H1266   1.084   .     S
C1253  C1259   1.402   .     A
C1253  C1255   1.411   .     A
C1254  C1256   1.411   .     A
C1254  C1260   1.402   .     A
C1255  C1257   1.411   .     A
C1255  C518    1.402   1_556 S
C1256  C1258   1.411   .     A
C1259  H1267   1.084   .     S
C1259  C495    1.394   1_556 S
C1260  H1268   1.084   .     S
Cu1261 O1273   1.961   .     S
Cu1261 O1277   1.967   .     S
Cu1261 O1279   1.967   .     S
Cu1261 Cu1262  2.686   .     S
Cu1261 N1271   2.018   .     S
Cu1261 O1275   1.961   .     S
Cu1262 O1278   1.967   .     S
Cu1262 O1274   1.961   .     S
Cu1262 O1280   1.967   .     S
Cu1262 O1276   1.961   .     S
Cu1262 N1272   2.018   .     S
C1281  H1286   1.110   .     S
C1281  H1287   1.106   .     S
C1281  C1282   1.531   .     S
C1282  H1285   1.111   .     S
C1282  H1284   1.108   .     S
C1282  H1283   1.111   .     S
C1288  H1294   1.106   .     S
C1288  H1293   1.110   .     S
C1288  C1289   1.531   .     S
C1289  H1290   1.108   .     S
C1289  H1291   1.111   .     S
C1289  H1292   1.111   .     S
C1295  H1300   1.110   .     S
C1295  H1301   1.106   .     S
C1295  C1296   1.531   .     S
C1296  H1298   1.111   .     S
C1296  H1299   1.108   .     S
C1296  H1297   1.111   .     S
C1302  H1307   1.110   .     S
C1302  H1308   1.106   .     S
C1302  C1303   1.531   .     S
C1303  H1305   1.111   .     S
C1303  H1304   1.108   .     S
C1303  H1306   1.111   .     S
C1313  O1358   1.299   .     A
C1313  O1355   1.299   .     A
C1313  C1322   1.473   .     S
C1314  O1356   1.299   .     A
C1314  O1357   1.299   .     A
C1314  C1321   1.473   .     S
C1315  C1340   1.402   .     A
C1315  H1351   1.084   .     S
C1316  H1352   1.084   .     S
C1316  C1339   1.402   .     A
C1316  C604    1.394   1_556 S
C1317  C1322   1.417   .     A
C1317  C1363   1.532   .     S
C1318  C1370   1.532   .     S
C1318  C1321   1.417   .     A
C1318  C1402   1.402   .     S
C1319  C1377   1.532   .     S
C1319  C1321   1.417   .     A
C1319  C1399   1.402   .     S
C1320  C1384   1.532   .     S
C1320  C1322   1.417   .     A
C1323  N1354   1.373   .     A
C1323  Cl1391  1.764   .     S
C1324  N1353   1.373   .     A
C1324  Cl1392  1.764   .     S
C1324  C833    1.417   1_565 S
C1325  Cl1393  1.764   .     S
C1325  N1354   1.373   .     A
C1326  N1353   1.373   .     A
C1326  Cl1394  1.764   .     S
C1326  C831    1.417   1_565 S
C1327  O1359   1.296   .     A
C1327  O1362   1.296   .     A
C1327  C1332   1.461   .     S
C1328  O1360   1.296   .     A
C1328  O1361   1.296   .     A
C1328  C1331   1.461   .     S
C1329  H1345   1.084   .     S
C1329  C1339   1.393   .     A
C1329  C1331   1.403   .     A
C1330  C1340   1.393   .     A
C1330  H1346   1.084   .     S
C1330  C1332   1.403   .     A
C1331  C1333   1.403   .     A
C1332  C1334   1.403   .     A
C1333  C1335   1.393   .     A
C1333  H1347   1.084   .     S
C1334  C1336   1.393   .     A
C1334  H1348   1.084   .     S
C1335  C1341   1.402   .     A
C1335  C1337   1.411   .     A
C1336  C1338   1.411   .     A
C1336  C1342   1.402   .     A
C1337  C1339   1.411   .     A
C1337  C600    1.402   1_556 S
C1338  C1340   1.411   .     A
C1341  H1349   1.084   .     S
C1341  C577    1.394   1_556 S
C1342  H1350   1.084   .     S
Cu1343 O1355   1.961   .     S
Cu1343 O1359   1.967   .     S
Cu1343 O1361   1.967   .     S
Cu1343 Cu1344  2.686   .     S
Cu1343 N1353   2.018   .     S
Cu1343 O1357   1.961   .     S
Cu1344 O1360   1.967   .     S
Cu1344 O1356   1.961   .     S
Cu1344 O1362   1.967   .     S
Cu1344 O1358   1.961   .     S
Cu1344 N1354   2.018   .     S
C1363  H1368   1.110   .     S
C1363  H1369   1.106   .     S
C1363  C1364   1.531   .     S
C1364  H1367   1.111   .     S
C1364  H1366   1.108   .     S
C1364  H1365   1.111   .     S
C1370  H1376   1.106   .     S
C1370  H1375   1.110   .     S
C1370  C1371   1.531   .     S
C1371  H1372   1.108   .     S
C1371  H1373   1.111   .     S
C1371  H1374   1.111   .     S
C1377  H1382   1.110   .     S
C1377  H1383   1.106   .     S
C1377  C1378   1.531   .     S
C1378  H1380   1.111   .     S
C1378  H1381   1.108   .     S
C1378  H1379   1.111   .     S
C1384  H1389   1.110   .     S
C1384  H1390   1.106   .     S
C1384  C1385   1.531   .     S
C1385  H1387   1.111   .     S
C1385  H1386   1.108   .     S
C1385  H1388   1.111   .     S
C1395  O1440   1.299   .     A
C1395  O1437   1.299   .     A
C1395  C1404   1.473   .     S
C1396  O1438   1.299   .     A
C1396  O1439   1.299   .     A
C1396  C1403   1.473   .     S
C1397  C1422   1.402   .     A
C1397  H1433   1.084   .     S
C1398  H1434   1.084   .     S
C1398  C1421   1.402   .     A
C1398  C686    1.394   1_556 S
C1399  C1404   1.417   .     A
C1399  C1445   1.532   .     S
C1400  C1452   1.532   .     S
C1400  C1403   1.417   .     A
C1400  C1238   1.402   1_655 S
C1401  C1459   1.532   .     S
C1401  C1403   1.417   .     A
C1401  C1235   1.402   1_655 S
C1402  C1466   1.532   .     S
C1402  C1404   1.417   .     A
C1405  N1436   1.373   .     A
C1405  Cl1473  1.764   .     S
C1406  N1435   1.373   .     A
C1406  Cl1474  1.764   .     S
C1406  C915    1.417   1_565 S
C1407  Cl1475  1.764   .     S
C1407  N1436   1.373   .     A
C1408  N1435   1.373   .     A
C1408  Cl1476  1.764   .     S
C1408  C913    1.417   1_565 S
C1409  O1441   1.296   .     A
C1409  O1444   1.296   .     A
C1409  C1414   1.461   .     S
C1410  O1442   1.296   .     A
C1410  O1443   1.296   .     A
C1410  C1413   1.461   .     S
C1411  H1427   1.084   .     S
C1411  C1421   1.393   .     A
C1411  C1413   1.403   .     A
C1412  C1422   1.393   .     A
C1412  H1428   1.084   .     S
C1412  C1414   1.403   .     A
C1413  C1415   1.403   .     A
C1414  C1416   1.403   .     A
C1415  C1417   1.393   .     A
C1415  H1429   1.084   .     S
C1416  C1418   1.393   .     A
C1416  H1430   1.084   .     S
C1417  C1423   1.402   .     A
C1417  C1419   1.411   .     A
C1418  C1420   1.411   .     A
C1418  C1424   1.402   .     A
C1419  C1421   1.411   .     A
C1419  C682    1.402   1_556 S
C1420  C1422   1.411   .     A
C1423  H1431   1.084   .     S
C1423  C659    1.394   1_556 S
C1424  H1432   1.084   .     S
Cu1425 O1437   1.961   .     S
Cu1425 O1441   1.967   .     S
Cu1425 O1443   1.967   .     S
Cu1425 Cu1426  2.686   .     S
Cu1425 N1435   2.018   .     S
Cu1425 O1439   1.961   .     S
Cu1426 O1442   1.967   .     S
Cu1426 O1438   1.961   .     S
Cu1426 O1444   1.967   .     S
Cu1426 O1440   1.961   .     S
Cu1426 N1436   2.018   .     S
C1445  H1450   1.110   .     S
C1445  H1451   1.106   .     S
C1445  C1446   1.531   .     S
C1446  H1449   1.111   .     S
C1446  H1448   1.108   .     S
C1446  H1447   1.111   .     S
C1452  H1458   1.106   .     S
C1452  H1457   1.110   .     S
C1452  C1453   1.531   .     S
C1453  H1454   1.108   .     S
C1453  H1455   1.111   .     S
C1453  H1456   1.111   .     S
C1459  H1464   1.110   .     S
C1459  H1465   1.106   .     S
C1459  C1460   1.531   .     S
C1460  H1462   1.111   .     S
C1460  H1463   1.108   .     S
C1460  H1461   1.111   .     S
C1466  H1471   1.110   .     S
C1466  H1472   1.106   .     S
C1466  C1467   1.531   .     S
C1467  H1469   1.111   .     S
C1467  H1468   1.108   .     S
C1467  H1470   1.111   .     S
