data_str_m1_o1_o17_pcu_sym.10
_audit_creation_date              2020-01-03
_audit_creation_method            'Materials Studio'
_symmetry_space_group_name_H-M    'P1'
_symmetry_Int_Tables_number       1
_symmetry_cell_setting            triclinic
loop_
_symmetry_equiv_pos_as_xyz
  x,y,z
_cell_length_a                    36.8508
_cell_length_b                    36.8508
_cell_length_c                    34.2646
_cell_angle_alpha                 90.0000
_cell_angle_beta                  89.9999
_cell_angle_gamma                 90.0000
loop_
_atom_site_label
_atom_site_type_symbol
_atom_site_fract_x
_atom_site_fract_y
_atom_site_fract_z
_atom_site_U_iso_or_equiv
_atom_site_adp_type
_atom_site_occupancy
C1     C     0.49176   0.28211   0.41822   0.00000  Uiso   1.00
C2     C     0.24251   0.46773   0.08185   0.00000  Uiso   1.00
C3     C     0.21672   0.00173   0.54113   0.00000  Uiso   1.00
C4     C     0.49708   0.28320   0.45901   0.00000  Uiso   1.00
C5     C     0.49827   0.21672   0.54113   0.00000  Uiso   1.00
C6     C     0.21680   0.49707   0.45901   0.00000  Uiso   1.00
C7     C     0.28328   0.49827   0.54113   0.00000  Uiso   1.00
C8     C     0.25292   0.46680   0.95901   0.00000  Uiso   1.00
C9     C     0.25173   0.03328   0.04113   0.00000  Uiso   1.00
C10    C     0.03320   0.25292   0.95901   0.00000  Uiso   1.00
C11    C     0.46672   0.25173   0.04113   0.00000  Uiso   1.00
C12    C     0.24708   0.03320   0.95901   0.00000  Uiso   1.00
C13    C     0.46789   0.24176   0.91822   0.00000  Uiso   1.00
C14    C     0.24827   0.46672   0.04113   0.00000  Uiso   1.00
C15    C     0.46680   0.24707   0.95901   0.00000  Uiso   1.00
C16    C     0.03328   0.24827   0.04113   0.00000  Uiso   1.00
C17    C     0.09797   0.34800   0.24999   0.00000  Uiso   1.00
C18    C     0.40169   0.15166   0.74995   0.00000  Uiso   1.00
C19    C     0.15200   0.09797   0.24999   0.00000  Uiso   1.00
C20    C     0.34834   0.40169   0.74995   0.00000  Uiso   1.00
C21    C     0.40203   0.15200   0.24999   0.00000  Uiso   1.00
C22    C     0.09831   0.34834   0.74995   0.00000  Uiso   1.00
C23    C     0.34800   0.40203   0.24999   0.00000  Uiso   1.00
C24    C     0.03227   0.24251   0.08185   0.00000  Uiso   1.00
C25    C     0.15166   0.09831   0.74995   0.00000  Uiso   1.00
C26    C     0.09800   0.15203   0.75000   0.00000  Uiso   1.00
C27    C     0.40166   0.34831   0.24995   0.00000  Uiso   1.00
C28    C     0.15203   0.40200   0.75000   0.00000  Uiso   1.00
C29    C     0.34831   0.09834   0.24995   0.00000  Uiso   1.00
C30    C     0.40200   0.34797   0.74999   0.00000  Uiso   1.00
C31    C     0.09834   0.15169   0.24995   0.00000  Uiso   1.00
C32    C     0.34797   0.09800   0.75000   0.00000  Uiso   1.00
C33    C     0.15169   0.40166   0.24995   0.00000  Uiso   1.00
C34    C     0.00000   0.25000   0.47955   0.00000  Uiso   1.00
C35    C     0.25824   0.46789   0.91822   0.00000  Uiso   1.00
C36    C     0.00000   0.25000   0.52057   0.00000  Uiso   1.00
C37    C     0.25000  -0.00000   0.47955   0.00000  Uiso   1.00
C38    C     0.25000  -0.00000   0.52057   0.00000  Uiso   1.00
C39    C     0.25000  -0.00000   0.97955   0.00000  Uiso   1.00
C40    C     0.25000  -0.00000   0.02057   0.00000  Uiso   1.00
C41    C    -0.00000   0.25000   0.97955   0.00000  Uiso   1.00
C42    C    -0.00000   0.25000   0.02057   0.00000  Uiso   1.00
C43    C     0.46314   0.14236   0.45265   0.00000  Uiso   1.00
C44    C     0.46117   0.10567   0.43200   0.00000  Uiso   1.00
C45    C     0.42211   0.09559   0.42186   0.00000  Uiso   1.00
C46    C     0.25749   0.03227   0.08185   0.00000  Uiso   1.00
C47    C     0.46123   0.35460   0.55511   0.00000  Uiso   1.00
C48    C     0.43670   0.37396   0.52562   0.00000  Uiso   1.00
C49    C     0.39984   0.38299   0.54349   0.00000  Uiso   1.00
C50    C     0.35764   0.46315   0.45265   0.00000  Uiso   1.00
C51    C     0.39434   0.46119   0.43201   0.00000  Uiso   1.00
C52    C     0.40442   0.42212   0.42186   0.00000  Uiso   1.00
C53    C     0.14541   0.46122   0.55511   0.00000  Uiso   1.00
C54    C     0.12604   0.43668   0.52562   0.00000  Uiso   1.00
C55    C     0.11701   0.39982   0.54349   0.00000  Uiso   1.00
C56    C     0.03687   0.35763   0.45263   0.00000  Uiso   1.00
C57    C     0.03211   0.25824   0.91822   0.00000  Uiso   1.00
C58    C     0.03884   0.39436   0.43207   0.00000  Uiso   1.00
C59    C     0.07791   0.40441   0.42187   0.00000  Uiso   1.00
C60    C     0.03877   0.14541   0.55511   0.00000  Uiso   1.00
C61    C     0.06331   0.12604   0.52562   0.00000  Uiso   1.00
C62    C     0.10017   0.11701   0.54349   0.00000  Uiso   1.00
C63    C     0.14236   0.03685   0.45265   0.00000  Uiso   1.00
C64    C     0.10566   0.03881   0.43201   0.00000  Uiso   1.00
C65    C     0.09558   0.07788   0.42186   0.00000  Uiso   1.00
C66    C     0.35459   0.03879   0.55511   0.00000  Uiso   1.00
C67    C     0.37395   0.06333   0.52562   0.00000  Uiso   1.00
C68    C     0.46773   0.25749   0.08185   0.00000  Uiso   1.00
C69    C     0.38297   0.10019   0.54349   0.00000  Uiso   1.00
C70    C     0.21315   0.39236   0.95265   0.00000  Uiso   1.00
C71    C     0.21118   0.35567   0.93200   0.00000  Uiso   1.00
C72    C     0.17211   0.34559   0.92186   0.00000  Uiso   1.00
C73    C     0.21122   0.10459   0.05511   0.00000  Uiso   1.00
C74    C     0.18668   0.12395   0.02562   0.00000  Uiso   1.00
C75    C     0.14982   0.13298   0.04349   0.00000  Uiso   1.00
C76    C     0.10764   0.21315   0.95265   0.00000  Uiso   1.00
C77    C     0.14433   0.21118   0.93201   0.00000  Uiso   1.00
C78    C     0.15441   0.17212   0.92186   0.00000  Uiso   1.00
C79    C     0.00000   0.25000   0.39814   0.00000  Uiso   1.00
C80    C     0.39541   0.21122   0.05511   0.00000  Uiso   1.00
C81    C     0.37605   0.18668   0.02562   0.00000  Uiso   1.00
C82    C     0.36702   0.14982   0.04349   0.00000  Uiso   1.00
C83    C     0.28686   0.10764   0.95264   0.00000  Uiso   1.00
C84    C     0.28883   0.14434   0.93203   0.00000  Uiso   1.00
C85    C     0.32789   0.15441   0.92187   0.00000  Uiso   1.00
C86    C     0.28878   0.39541   0.05511   0.00000  Uiso   1.00
C87    C     0.31332   0.37605   0.02562   0.00000  Uiso   1.00
C88    C     0.35018   0.36702   0.04349   0.00000  Uiso   1.00
C89    C     0.39236   0.28685   0.95265   0.00000  Uiso   1.00
C90    C     0.00000   0.25000   0.60192   0.00000  Uiso   1.00
C91    C     0.35567   0.28882   0.93201   0.00000  Uiso   1.00
C92    C     0.34559   0.32788   0.92186   0.00000  Uiso   1.00
C93    C     0.10459   0.28878   0.05511   0.00000  Uiso   1.00
C94    C     0.12395   0.31332   0.02562   0.00000  Uiso   1.00
C95    C     0.13298   0.35018   0.04349   0.00000  Uiso   1.00
C96    C     0.09777   0.45756   0.21152   0.00000  Uiso   1.00
C97    C     0.38827   0.05094   0.81978   0.00000  Uiso   1.00
C98    C     0.04244   0.09777   0.21152   0.00000  Uiso   1.00
C99    C     0.44906   0.38827   0.81978   0.00000  Uiso   1.00
C100   C     0.40223   0.04244   0.21152   0.00000  Uiso   1.00
C101   C     0.25000  -0.00000   0.39814   0.00000  Uiso   1.00
C102   C     0.11172   0.44906   0.81978   0.00000  Uiso   1.00
C103   C     0.45756   0.40223   0.21152   0.00000  Uiso   1.00
C104   C     0.05094   0.11173   0.81978   0.00000  Uiso   1.00
C105   C     0.09755   0.04239   0.78768   0.00000  Uiso   1.00
C106   C     0.38812   0.44899   0.17999   0.00000  Uiso   1.00
C107   C     0.04239   0.40245   0.78767   0.00000  Uiso   1.00
C108   C     0.44899   0.11188   0.17999   0.00000  Uiso   1.00
C109   C     0.40245   0.45761   0.78767   0.00000  Uiso   1.00
C110   C     0.11188   0.05101   0.17999   0.00000  Uiso   1.00
C111   C     0.45761   0.09755   0.78767   0.00000  Uiso   1.00
C112   C     0.49251   0.21773   0.58185   0.00000  Uiso   1.00
C113   C     0.25000  -0.00000   0.60192   0.00000  Uiso   1.00
C114   C     0.05101   0.38812   0.17999   0.00000  Uiso   1.00
C115   C     0.34777   0.20756   0.71152   0.00000  Uiso   1.00
C116   C     0.13827   0.30094   0.31978   0.00000  Uiso   1.00
C117   C     0.29244   0.34777   0.71152   0.00000  Uiso   1.00
C118   C     0.19906   0.13827   0.31978   0.00000  Uiso   1.00
C119   C     0.15223   0.29244   0.71152   0.00000  Uiso   1.00
C120   C     0.36173   0.19906   0.31978   0.00000  Uiso   1.00
C121   C     0.20756   0.15223   0.71152   0.00000  Uiso   1.00
C122   C     0.30094   0.36173   0.31978   0.00000  Uiso   1.00
C123   C     0.34755   0.29239   0.28768   0.00000  Uiso   1.00
C124   C     0.25000  -0.00000   0.89814   0.00000  Uiso   1.00
C125   C     0.13812   0.19899   0.67999   0.00000  Uiso   1.00
C126   C     0.29239   0.15245   0.28767   0.00000  Uiso   1.00
C127   C     0.19899   0.36188   0.67999   0.00000  Uiso   1.00
C128   C     0.15245   0.20761   0.28767   0.00000  Uiso   1.00
C129   C     0.36188   0.30101   0.67999   0.00000  Uiso   1.00
C130   C     0.20761   0.34755   0.28767   0.00000  Uiso   1.00
C131   C     0.30101   0.13812   0.67999   0.00000  Uiso   1.00
C132   C     0.44457   0.32193   0.40649   0.00000  Uiso   1.00
C133   C     0.41693   0.29789   0.38538   0.00000  Uiso   1.00
C134   C     0.37817   0.30930   0.39527   0.00000  Uiso   1.00
C135   C     0.25000   0.00000   0.10192   0.00000  Uiso   1.00
C136   C     0.44610   0.17691   0.59304   0.00000  Uiso   1.00
C137   C     0.41778   0.20054   0.61367   0.00000  Uiso   1.00
C138   C     0.37934   0.18811   0.60382   0.00000  Uiso   1.00
C139   C     0.17808   0.44456   0.40649   0.00000  Uiso   1.00
C140   C     0.20212   0.41692   0.38538   0.00000  Uiso   1.00
C141   C     0.19072   0.37816   0.39526   0.00000  Uiso   1.00
C142   C     0.32310   0.44611   0.59304   0.00000  Uiso   1.00
C143   C     0.29947   0.41779   0.61367   0.00000  Uiso   1.00
C144   C     0.31191   0.37935   0.60382   0.00000  Uiso   1.00
C145   C     0.05543   0.17807   0.40649   0.00000  Uiso   1.00
C146   C    -0.00000   0.25000   0.89814   0.00000  Uiso   1.00
C147   C     0.08307   0.20211   0.38538   0.00000  Uiso   1.00
C148   C     0.12183   0.19071   0.39526   0.00000  Uiso   1.00
C149   C     0.05390   0.32309   0.59304   0.00000  Uiso   1.00
C150   C     0.08222   0.29945   0.61367   0.00000  Uiso   1.00
C151   C     0.12067   0.31189   0.60382   0.00000  Uiso   1.00
C152   C     0.32192   0.05544   0.40649   0.00000  Uiso   1.00
C153   C     0.29788   0.08308   0.38538   0.00000  Uiso   1.00
C154   C     0.30928   0.12184   0.39526   0.00000  Uiso   1.00
C155   C     0.17690   0.05389   0.59304   0.00000  Uiso   1.00
C156   C     0.20053   0.08221   0.61367   0.00000  Uiso   1.00
C157   C    -0.00000   0.25000   0.10192   0.00000  Uiso   1.00
C158   C     0.18810   0.12066   0.60382   0.00000  Uiso   1.00
C159   C     0.19456   0.07192   0.90649   0.00000  Uiso   1.00
C160   C     0.16692   0.04789   0.88538   0.00000  Uiso   1.00
C161   C     0.12817   0.05929   0.89527   0.00000  Uiso   1.00
C162   C     0.19611   0.42690   0.09304   0.00000  Uiso   1.00
C163   C     0.16778   0.45054   0.11367   0.00000  Uiso   1.00
C164   C     0.12934   0.43810   0.10382   0.00000  Uiso   1.00
C165   C     0.42808   0.19456   0.90649   0.00000  Uiso   1.00
C166   C     0.45212   0.16692   0.88538   0.00000  Uiso   1.00
C167   C     0.44072   0.12816   0.89527   0.00000  Uiso   1.00
C168   C     0.00119   0.18366   0.47972   0.00000  Uiso   1.00
C169   C     0.07310   0.19611   0.09304   0.00000  Uiso   1.00
C170   C     0.04947   0.16779   0.11367   0.00000  Uiso   1.00
C171   C     0.06190   0.12934   0.10382   0.00000  Uiso   1.00
C172   C     0.30544   0.42808   0.90649   0.00000  Uiso   1.00
C173   C     0.33308   0.45212   0.88538   0.00000  Uiso   1.00
C174   C     0.37184   0.44072   0.89526   0.00000  Uiso   1.00
C175   C     0.30389   0.07310   0.09304   0.00000  Uiso   1.00
C176   C     0.33222   0.04946   0.11367   0.00000  Uiso   1.00
C177   C     0.37066   0.06190   0.10382   0.00000  Uiso   1.00
C178   C     0.07192   0.30544   0.90649   0.00000  Uiso   1.00
C179   C     0.49853   0.31639   0.52049   0.00000  Uiso   1.00
C180   C     0.04788   0.33308   0.88538   0.00000  Uiso   1.00
C181   C     0.05928   0.37184   0.89526   0.00000  Uiso   1.00
C182   C     0.42690   0.30389   0.09304   0.00000  Uiso   1.00
C183   C     0.45053   0.33221   0.11367   0.00000  Uiso   1.00
C184   C     0.43810   0.37066   0.10382   0.00000  Uiso   1.00
C185   C     0.31634   0.00120   0.47972   0.00000  Uiso   1.00
C186   C     0.18361   0.49851   0.52049   0.00000  Uiso   1.00
C187   C     0.49882   0.31634   0.47972   0.00000  Uiso   1.00
C188   C     0.21789   0.49175   0.41822   0.00000  Uiso   1.00
C189   C     0.00148   0.18361   0.52050   0.00000  Uiso   1.00
C190   C     0.18366   0.49880   0.47972   0.00000  Uiso   1.00
C191   C     0.31639   0.00149   0.52050   0.00000  Uiso   1.00
C192   C     0.25119   0.43366   0.97972   0.00000  Uiso   1.00
C193   C     0.24852   0.06639   0.02049   0.00000  Uiso   1.00
C194   C     0.06634   0.25119   0.97972   0.00000  Uiso   1.00
C195   C     0.43361   0.24852   0.02049   0.00000  Uiso   1.00
C196   C     0.24881   0.06634   0.97972   0.00000  Uiso   1.00
C197   C     0.25148   0.43361   0.02049   0.00000  Uiso   1.00
C198   C     0.43366   0.24881   0.97972   0.00000  Uiso   1.00
C199   C     0.28227   0.49251   0.58185   0.00000  Uiso   1.00
C200   C     0.06639   0.25148   0.02049   0.00000  Uiso   1.00
C201   C     0.25000  -0.00000   0.35577   0.00000  Uiso   1.00
C202   C     0.25000   0.00000   0.64426   0.00000  Uiso   1.00
C203   C    -0.00000   0.25000   0.35577   0.00000  Uiso   1.00
C204   C     0.00000   0.25000   0.64426   0.00000  Uiso   1.00
C205   C    -0.00000   0.25000   0.85577   0.00000  Uiso   1.00
C206   C    -0.00000   0.25000   0.14426   0.00000  Uiso   1.00
C207   C     0.25000  -0.00000   0.85577   0.00000  Uiso   1.00
C208   C     0.25000   0.00000   0.14426   0.00000  Uiso   1.00
C209   C     0.18000   0.06999   0.25000   0.00000  Uiso   1.00
C210   C     0.00824   0.21789   0.41822   0.00000  Uiso   1.00
C211   C     0.32013   0.42989   0.74998   0.00000  Uiso   1.00
C212   C     0.43001   0.18000   0.25000   0.00000  Uiso   1.00
C213   C     0.07011   0.32013   0.74998   0.00000  Uiso   1.00
C214   C     0.32000   0.43001   0.25000   0.00000  Uiso   1.00
C215   C     0.17987   0.07011   0.74998   0.00000  Uiso   1.00
C216   C     0.06999   0.32000   0.25000   0.00000  Uiso   1.00
C217   C     0.42989   0.17987   0.74998   0.00000  Uiso   1.00
C218   C     0.18001   0.43000   0.75000   0.00000  Uiso   1.00
C219   C     0.32011   0.07013   0.24998   0.00000  Uiso   1.00
C220   C     0.43000   0.31999   0.75000   0.00000  Uiso   1.00
C221   C     0.00750   0.28227   0.58185   0.00000  Uiso   1.00
C222   C     0.07013   0.17989   0.24998   0.00000  Uiso   1.00
C223   C     0.31999   0.07000   0.75000   0.00000  Uiso   1.00
C224   C     0.17989   0.42987   0.24998   0.00000  Uiso   1.00
C225   C     0.07000   0.18001   0.75000   0.00000  Uiso   1.00
C226   C     0.42987   0.32011   0.24998   0.00000  Uiso   1.00
C227   C     0.12354   0.40245   0.22187   0.00000  Uiso   1.00
C228   C     0.37313   0.09969   0.78087   0.00000  Uiso   1.00
C229   C     0.09755   0.12354   0.22187   0.00000  Uiso   1.00
C230   C     0.40031   0.37313   0.78087   0.00000  Uiso   1.00
C231   C     0.37646   0.09755   0.22187   0.00000  Uiso   1.00
C232   C     0.28211   0.00825   0.41822   0.00000  Uiso   1.00
C233   C     0.12687   0.40031   0.78087   0.00000  Uiso   1.00
C234   C     0.40245   0.37646   0.22186   0.00000  Uiso   1.00
C235   C     0.09969   0.12687   0.78087   0.00000  Uiso   1.00
C236   C     0.12349   0.09751   0.77800   0.00000  Uiso   1.00
C237   C     0.37311   0.40031   0.21907   0.00000  Uiso   1.00
C238   C     0.09751   0.37651   0.77800   0.00000  Uiso   1.00
C239   C     0.40031   0.12689   0.21907   0.00000  Uiso   1.00
C240   C     0.37651   0.40249   0.77800   0.00000  Uiso   1.00
C241   C     0.12689   0.09969   0.21907   0.00000  Uiso   1.00
C242   C     0.40249   0.12349   0.77800   0.00000  Uiso   1.00
C243   C     0.21773   0.00749   0.58185   0.00000  Uiso   1.00
C244   C     0.09969   0.37311   0.21907   0.00000  Uiso   1.00
C245   C     0.37354   0.15245   0.72187   0.00000  Uiso   1.00
C246   C     0.12313   0.34969   0.28087   0.00000  Uiso   1.00
C247   C     0.34755   0.37354   0.72187   0.00000  Uiso   1.00
C248   C     0.15031   0.12313   0.28087   0.00000  Uiso   1.00
C249   C     0.12646   0.34755   0.72187   0.00000  Uiso   1.00
C250   C     0.37687   0.15031   0.28087   0.00000  Uiso   1.00
C251   C     0.15245   0.12646   0.72187   0.00000  Uiso   1.00
C252   C     0.34969   0.37687   0.28087   0.00000  Uiso   1.00
C253   C     0.37349   0.34751   0.27800   0.00000  Uiso   1.00
C254   C     0.24176   0.03211   0.91822   0.00000  Uiso   1.00
C255   C     0.12311   0.15031   0.71907   0.00000  Uiso   1.00
C256   C     0.34751   0.12651   0.27800   0.00000  Uiso   1.00
C257   C     0.15031   0.37689   0.71907   0.00000  Uiso   1.00
C258   C     0.12651   0.15249   0.27800   0.00000  Uiso   1.00
C259   C     0.37689   0.34969   0.71907   0.00000  Uiso   1.00
C260   C     0.15249   0.37349   0.27800   0.00000  Uiso   1.00
C261   C     0.34969   0.12311   0.71907   0.00000  Uiso   1.00
C262   C     0.00292   0.21680   0.45901   0.00000  Uiso   1.00
C263   C     0.00173   0.28328   0.54113   0.00000  Uiso   1.00
C264   C     0.28320   0.00293   0.45901   0.00000  Uiso   1.00
H265   H     0.45077   0.16335   0.43335   0.00000  Uiso   1.00
H266   H     0.44995   0.39945   0.51573   0.00000  Uiso   1.00
H267   H     0.39064   0.30266   0.98032   0.00000  Uiso   1.00
H268   H     0.35674   0.27251   0.90474   0.00000  Uiso   1.00
H269   H     0.33438   0.27716   0.95129   0.00000  Uiso   1.00
H270   H     0.34413   0.34471   0.94869   0.00000  Uiso   1.00
H271   H     0.31864   0.32836   0.90736   0.00000  Uiso   1.00
H272   H     0.36597   0.33973   0.90165   0.00000  Uiso   1.00
H273   H     0.12203   0.28608   0.08139   0.00000  Uiso   1.00
H274   H     0.07891   0.30186   0.06514   0.00000  Uiso   1.00
H275   H     0.14945   0.30007   0.01573   0.00000  Uiso   1.00
H276   H     0.10624   0.31760   0.99983   0.00000  Uiso   1.00
H277   H     0.43241   0.35624   0.49983   0.00000  Uiso   1.00
H278   H     0.10779   0.36401   0.05329   0.00000  Uiso   1.00
H279   H     0.14652   0.36753   0.02139   0.00000  Uiso   1.00
H280   H     0.15155   0.34684   0.06877   0.00000  Uiso   1.00
H281   H     0.08872   0.47576   0.18770   0.00000  Uiso   1.00
H282   H     0.11263   0.47411   0.23335   0.00000  Uiso   1.00
H283   H     0.07290   0.44647   0.22554   0.00000  Uiso   1.00
H284   H     0.39518   0.03800   0.79135   0.00000  Uiso   1.00
H285   H     0.37325   0.03048   0.83721   0.00000  Uiso   1.00
H286   H     0.41323   0.05772   0.83633   0.00000  Uiso   1.00
H287   H     0.02424   0.08872   0.18770   0.00000  Uiso   1.00
H288   H     0.38601   0.35780   0.55329   0.00000  Uiso   1.00
H289   H     0.02589   0.11263   0.23335   0.00000  Uiso   1.00
H290   H     0.05353   0.07290   0.22555   0.00000  Uiso   1.00
H291   H     0.46200   0.39518   0.79135   0.00000  Uiso   1.00
H292   H     0.46952   0.37325   0.83721   0.00000  Uiso   1.00
H293   H     0.44228   0.41323   0.83633   0.00000  Uiso   1.00
H294   H     0.41128   0.02424   0.18770   0.00000  Uiso   1.00
H295   H     0.38737   0.02589   0.23335   0.00000  Uiso   1.00
H296   H     0.42710   0.05353   0.22554   0.00000  Uiso   1.00
H297   H     0.10482   0.46200   0.79135   0.00000  Uiso   1.00
H298   H     0.12675   0.46952   0.83721   0.00000  Uiso   1.00
H299   H     0.38248   0.39653   0.52139   0.00000  Uiso   1.00
H300   H     0.08677   0.44229   0.83633   0.00000  Uiso   1.00
H301   H     0.47576   0.41128   0.18770   0.00000  Uiso   1.00
H302   H     0.47411   0.38737   0.23334   0.00000  Uiso   1.00
H303   H     0.44647   0.42710   0.22554   0.00000  Uiso   1.00
H304   H     0.03800   0.10482   0.79135   0.00000  Uiso   1.00
H305   H     0.03048   0.12675   0.83721   0.00000  Uiso   1.00
H306   H     0.05772   0.08677   0.83633   0.00000  Uiso   1.00
H307   H     0.08822   0.02407   0.81127   0.00000  Uiso   1.00
H308   H     0.11256   0.02592   0.76590   0.00000  Uiso   1.00
H309   H     0.07283   0.05364   0.77347   0.00000  Uiso   1.00
H310   H     0.40318   0.40157   0.56877   0.00000  Uiso   1.00
H311   H     0.39516   0.46197   0.20836   0.00000  Uiso   1.00
H312   H     0.37300   0.46942   0.16261   0.00000  Uiso   1.00
H313   H     0.41299   0.44220   0.16330   0.00000  Uiso   1.00
H314   H     0.02407   0.41178   0.81126   0.00000  Uiso   1.00
H315   H     0.02591   0.38744   0.76590   0.00000  Uiso   1.00
H316   H     0.05364   0.42717   0.77347   0.00000  Uiso   1.00
H317   H     0.46197   0.10484   0.20836   0.00000  Uiso   1.00
H318   H     0.46942   0.12700   0.16261   0.00000  Uiso   1.00
H319   H     0.44220   0.08701   0.16330   0.00000  Uiso   1.00
H320   H     0.41178   0.47593   0.81126   0.00000  Uiso   1.00
H321   H     0.33666   0.45078   0.43334   0.00000  Uiso   1.00
H322   H     0.38744   0.47408   0.76590   0.00000  Uiso   1.00
H323   H     0.42717   0.44636   0.77347   0.00000  Uiso   1.00
H324   H     0.10484   0.03803   0.20836   0.00000  Uiso   1.00
H325   H     0.12700   0.03058   0.16261   0.00000  Uiso   1.00
H326   H     0.08701   0.05780   0.16330   0.00000  Uiso   1.00
H327   H     0.47593   0.08822   0.81127   0.00000  Uiso   1.00
H328   H     0.47408   0.11256   0.76590   0.00000  Uiso   1.00
H329   H     0.44636   0.07283   0.77347   0.00000  Uiso   1.00
H330   H     0.03803   0.39516   0.20836   0.00000  Uiso   1.00
H331   H     0.03058   0.37300   0.16261   0.00000  Uiso   1.00
H332   H     0.35936   0.44735   0.48032   0.00000  Uiso   1.00
H333   H     0.05780   0.41299   0.16330   0.00000  Uiso   1.00
H334   H     0.33872   0.22576   0.68770   0.00000  Uiso   1.00
H335   H     0.36263   0.22411   0.73335   0.00000  Uiso   1.00
H336   H     0.32290   0.19647   0.72555   0.00000  Uiso   1.00
H337   H     0.14518   0.28800   0.29135   0.00000  Uiso   1.00
H338   H     0.12325   0.28048   0.33721   0.00000  Uiso   1.00
H339   H     0.16323   0.30772   0.33633   0.00000  Uiso   1.00
H340   H     0.27424   0.33872   0.68770   0.00000  Uiso   1.00
H341   H     0.27589   0.36263   0.73335   0.00000  Uiso   1.00
H342   H     0.30353   0.32290   0.72555   0.00000  Uiso   1.00
H343   H     0.39326   0.47750   0.40474   0.00000  Uiso   1.00
H344   H     0.21200   0.14518   0.29135   0.00000  Uiso   1.00
H345   H     0.21952   0.12325   0.33721   0.00000  Uiso   1.00
H346   H     0.19228   0.16323   0.33633   0.00000  Uiso   1.00
H347   H     0.16128   0.27424   0.68770   0.00000  Uiso   1.00
H348   H     0.13737   0.27589   0.73335   0.00000  Uiso   1.00
H349   H     0.17710   0.30353   0.72555   0.00000  Uiso   1.00
H350   H     0.35482   0.21200   0.29135   0.00000  Uiso   1.00
H351   H     0.37675   0.21952   0.33721   0.00000  Uiso   1.00
H352   H     0.33677   0.19228   0.33633   0.00000  Uiso   1.00
H353   H     0.22576   0.16128   0.68770   0.00000  Uiso   1.00
H354   H     0.41562   0.47285   0.45129   0.00000  Uiso   1.00
H355   H     0.22411   0.13737   0.73335   0.00000  Uiso   1.00
H356   H     0.19647   0.17710   0.72555   0.00000  Uiso   1.00
H357   H     0.28800   0.35482   0.29135   0.00000  Uiso   1.00
H358   H     0.28048   0.37676   0.33721   0.00000  Uiso   1.00
H359   H     0.30772   0.33677   0.33633   0.00000  Uiso   1.00
H360   H     0.33822   0.27407   0.31127   0.00000  Uiso   1.00
H361   H     0.36256   0.27592   0.26590   0.00000  Uiso   1.00
H362   H     0.32283   0.30364   0.27348   0.00000  Uiso   1.00
H363   H     0.14516   0.21197   0.70836   0.00000  Uiso   1.00
H364   H     0.12300   0.21942   0.66261   0.00000  Uiso   1.00
H365   H     0.40587   0.40529   0.44869   0.00000  Uiso   1.00
H366   H     0.16299   0.19220   0.66330   0.00000  Uiso   1.00
H367   H     0.27407   0.16178   0.31126   0.00000  Uiso   1.00
H368   H     0.27591   0.13744   0.26590   0.00000  Uiso   1.00
H369   H     0.30364   0.17717   0.27347   0.00000  Uiso   1.00
H370   H     0.21197   0.35484   0.70836   0.00000  Uiso   1.00
H371   H     0.21942   0.37700   0.66261   0.00000  Uiso   1.00
H372   H     0.19220   0.33701   0.66330   0.00000  Uiso   1.00
H373   H     0.16178   0.22593   0.31127   0.00000  Uiso   1.00
H374   H     0.13744   0.22409   0.26590   0.00000  Uiso   1.00
H375   H     0.17717   0.19636   0.27347   0.00000  Uiso   1.00
H376   H     0.44734   0.14063   0.48033   0.00000  Uiso   1.00
H377   H     0.43136   0.42164   0.40737   0.00000  Uiso   1.00
H378   H     0.35484   0.28803   0.70836   0.00000  Uiso   1.00
H379   H     0.37700   0.28058   0.66261   0.00000  Uiso   1.00
H380   H     0.33701   0.30780   0.66330   0.00000  Uiso   1.00
H381   H     0.22593   0.33822   0.31127   0.00000  Uiso   1.00
H382   H     0.22408   0.36256   0.26590   0.00000  Uiso   1.00
H383   H     0.19636   0.32283   0.27347   0.00000  Uiso   1.00
H384   H     0.28803   0.14516   0.70836   0.00000  Uiso   1.00
H385   H     0.28058   0.12300   0.66261   0.00000  Uiso   1.00
H386   H     0.30780   0.16299   0.66330   0.00000  Uiso   1.00
H387   H     0.44034   0.35044   0.39703   0.00000  Uiso   1.00
H388   H     0.38404   0.41027   0.40165   0.00000  Uiso   1.00
H389   H     0.43896   0.32132   0.43836   0.00000  Uiso   1.00
H390   H     0.42117   0.30010   0.35342   0.00000  Uiso   1.00
H391   H     0.42066   0.26914   0.39425   0.00000  Uiso   1.00
H392   H     0.37346   0.30747   0.42723   0.00000  Uiso   1.00
H393   H     0.35869   0.29099   0.38035   0.00000  Uiso   1.00
H394   H     0.37311   0.33758   0.38544   0.00000  Uiso   1.00
H395   H     0.44233   0.14838   0.60269   0.00000  Uiso   1.00
H396   H     0.44090   0.17712   0.56105   0.00000  Uiso   1.00
H397   H     0.42194   0.19885   0.64568   0.00000  Uiso   1.00
H398   H     0.42089   0.22927   0.60442   0.00000  Uiso   1.00
H399   H     0.12796   0.46392   0.58140   0.00000  Uiso   1.00
H400   H     0.37475   0.18923   0.57180   0.00000  Uiso   1.00
H401   H     0.35938   0.20625   0.61825   0.00000  Uiso   1.00
H402   H     0.37485   0.15992   0.61425   0.00000  Uiso   1.00
H403   H     0.14957   0.44033   0.39702   0.00000  Uiso   1.00
H404   H     0.17869   0.43895   0.43836   0.00000  Uiso   1.00
H405   H     0.19991   0.42116   0.35342   0.00000  Uiso   1.00
H406   H     0.23087   0.42066   0.39425   0.00000  Uiso   1.00
H407   H     0.19254   0.37345   0.42723   0.00000  Uiso   1.00
H408   H     0.20903   0.35868   0.38035   0.00000  Uiso   1.00
H409   H     0.16244   0.37310   0.38544   0.00000  Uiso   1.00
H410   H     0.17109   0.44814   0.56514   0.00000  Uiso   1.00
H411   H     0.35163   0.44235   0.60269   0.00000  Uiso   1.00
H412   H     0.32289   0.44091   0.56105   0.00000  Uiso   1.00
H413   H     0.30116   0.42195   0.64569   0.00000  Uiso   1.00
H414   H     0.27074   0.42089   0.60442   0.00000  Uiso   1.00
H415   H     0.31079   0.37476   0.57180   0.00000  Uiso   1.00
H416   H     0.29377   0.35939   0.61825   0.00000  Uiso   1.00
H417   H     0.34010   0.37487   0.61425   0.00000  Uiso   1.00
H418   H     0.05966   0.14957   0.39702   0.00000  Uiso   1.00
H419   H     0.06105   0.17868   0.43836   0.00000  Uiso   1.00
H420   H     0.07883   0.19990   0.35342   0.00000  Uiso   1.00
H421   H     0.10055   0.44993   0.51573   0.00000  Uiso   1.00
H422   H     0.07934   0.23087   0.39425   0.00000  Uiso   1.00
H423   H     0.12654   0.19253   0.42723   0.00000  Uiso   1.00
H424   H     0.14131   0.20902   0.38035   0.00000  Uiso   1.00
H425   H     0.12689   0.16243   0.38544   0.00000  Uiso   1.00
H426   H     0.05767   0.35162   0.60269   0.00000  Uiso   1.00
H427   H     0.05911   0.32288   0.56105   0.00000  Uiso   1.00
H428   H     0.07806   0.30115   0.64569   0.00000  Uiso   1.00
H429   H     0.07911   0.27073   0.60442   0.00000  Uiso   1.00
H430   H     0.12525   0.31076   0.57180   0.00000  Uiso   1.00
H431   H     0.14062   0.29375   0.61825   0.00000  Uiso   1.00
H432   H     0.14376   0.43239   0.49983   0.00000  Uiso   1.00
H433   H     0.12515   0.34008   0.61425   0.00000  Uiso   1.00
H434   H     0.35043   0.05968   0.39702   0.00000  Uiso   1.00
H435   H     0.32131   0.06106   0.43836   0.00000  Uiso   1.00
H436   H     0.30009   0.07884   0.35342   0.00000  Uiso   1.00
H437   H     0.26912   0.07934   0.39425   0.00000  Uiso   1.00
H438   H     0.30745   0.12655   0.42723   0.00000  Uiso   1.00
H439   H     0.29096   0.14132   0.38035   0.00000  Uiso   1.00
H440   H     0.33756   0.12691   0.38544   0.00000  Uiso   1.00
H441   H     0.14837   0.05765   0.60269   0.00000  Uiso   1.00
H442   H     0.17711   0.05910   0.56105   0.00000  Uiso   1.00
H443   H     0.14220   0.38599   0.55330   0.00000  Uiso   1.00
H444   H     0.19884   0.07806   0.64569   0.00000  Uiso   1.00
H445   H     0.22926   0.07911   0.60442   0.00000  Uiso   1.00
H446   H     0.18922   0.12524   0.57180   0.00000  Uiso   1.00
H447   H     0.20623   0.14061   0.61825   0.00000  Uiso   1.00
H448   H     0.15990   0.12514   0.61425   0.00000  Uiso   1.00
H449   H     0.19033   0.10043   0.89703   0.00000  Uiso   1.00
H450   H     0.18895   0.07131   0.93836   0.00000  Uiso   1.00
H451   H     0.17117   0.05010   0.85342   0.00000  Uiso   1.00
H452   H     0.17066   0.01913   0.89425   0.00000  Uiso   1.00
H453   H     0.12346   0.05746   0.92723   0.00000  Uiso   1.00
H454   H     0.10347   0.38247   0.52140   0.00000  Uiso   1.00
H455   H     0.10868   0.04098   0.88035   0.00000  Uiso   1.00
H456   H     0.12310   0.08757   0.88544   0.00000  Uiso   1.00
H457   H     0.19234   0.39837   0.10269   0.00000  Uiso   1.00
H458   H     0.19090   0.42711   0.06105   0.00000  Uiso   1.00
H459   H     0.17194   0.44884   0.14568   0.00000  Uiso   1.00
H460   H     0.17089   0.47927   0.10442   0.00000  Uiso   1.00
H461   H     0.12475   0.43922   0.07180   0.00000  Uiso   1.00
H462   H     0.10938   0.45624   0.11825   0.00000  Uiso   1.00
H463   H     0.12486   0.40991   0.11425   0.00000  Uiso   1.00
H464   H     0.39957   0.19033   0.89702   0.00000  Uiso   1.00
H465   H     0.09844   0.40317   0.56877   0.00000  Uiso   1.00
H466   H     0.42869   0.18895   0.93836   0.00000  Uiso   1.00
H467   H     0.44991   0.17116   0.85342   0.00000  Uiso   1.00
H468   H     0.48087   0.17066   0.89425   0.00000  Uiso   1.00
H469   H     0.44254   0.12346   0.92723   0.00000  Uiso   1.00
H470   H     0.45903   0.10868   0.88035   0.00000  Uiso   1.00
H471   H     0.41243   0.12310   0.88544   0.00000  Uiso   1.00
H472   H     0.10163   0.19234   0.10269   0.00000  Uiso   1.00
H473   H     0.07289   0.19090   0.06105   0.00000  Uiso   1.00
H474   H     0.05116   0.17194   0.14569   0.00000  Uiso   1.00
H475   H     0.02074   0.17089   0.10442   0.00000  Uiso   1.00
H476   H     0.04919   0.33667   0.43326   0.00000  Uiso   1.00
H477   H     0.06078   0.12476   0.07180   0.00000  Uiso   1.00
H478   H     0.04377   0.10939   0.11825   0.00000  Uiso   1.00
H479   H     0.09009   0.12486   0.11425   0.00000  Uiso   1.00
H480   H     0.30967   0.39957   0.89702   0.00000  Uiso   1.00
H481   H     0.31105   0.42869   0.93836   0.00000  Uiso   1.00
H482   H     0.32883   0.44991   0.85342   0.00000  Uiso   1.00
H483   H     0.32934   0.48087   0.89425   0.00000  Uiso   1.00
H484   H     0.37654   0.44254   0.92723   0.00000  Uiso   1.00
H485   H     0.39132   0.45903   0.88035   0.00000  Uiso   1.00
H486   H     0.37690   0.41243   0.88544   0.00000  Uiso   1.00
H487   H     0.47748   0.10676   0.40473   0.00000  Uiso   1.00
H488   H     0.05271   0.35928   0.48029   0.00000  Uiso   1.00
H489   H     0.30766   0.10163   0.10269   0.00000  Uiso   1.00
H490   H     0.30910   0.07288   0.06105   0.00000  Uiso   1.00
H491   H     0.32806   0.05116   0.14569   0.00000  Uiso   1.00
H492   H     0.32911   0.02073   0.10442   0.00000  Uiso   1.00
H493   H     0.37525   0.06078   0.07180   0.00000  Uiso   1.00
H494   H     0.39062   0.04376   0.11825   0.00000  Uiso   1.00
H495   H     0.37514   0.09009   0.11425   0.00000  Uiso   1.00
H496   H     0.10043   0.30967   0.89702   0.00000  Uiso   1.00
H497   H     0.07131   0.31105   0.93836   0.00000  Uiso   1.00
H498   H     0.05009   0.32884   0.85342   0.00000  Uiso   1.00
H499   H     0.02249   0.39335   0.40482   0.00000  Uiso   1.00
H500   H     0.01913   0.32934   0.89425   0.00000  Uiso   1.00
H501   H     0.05746   0.37654   0.92723   0.00000  Uiso   1.00
H502   H     0.04097   0.39132   0.88035   0.00000  Uiso   1.00
H503   H     0.08756   0.37690   0.88544   0.00000  Uiso   1.00
H504   H     0.39837   0.30766   0.10269   0.00000  Uiso   1.00
H505   H     0.42711   0.30910   0.06105   0.00000  Uiso   1.00
H506   H     0.44884   0.32806   0.14568   0.00000  Uiso   1.00
H507   H     0.47926   0.32911   0.10442   0.00000  Uiso   1.00
H508   H     0.43922   0.37524   0.07180   0.00000  Uiso   1.00
H509   H     0.45624   0.39061   0.11825   0.00000  Uiso   1.00
H510   H     0.02724   0.41562   0.45141   0.00000  Uiso   1.00
H511   H     0.40991   0.37514   0.11425   0.00000  Uiso   1.00
H512   H     0.09478   0.40578   0.44868   0.00000  Uiso   1.00
H513   H     0.07840   0.43139   0.40746   0.00000  Uiso   1.00
H514   H     0.08970   0.38406   0.40159   0.00000  Uiso   1.00
H515   H     0.03607   0.12796   0.58140   0.00000  Uiso   1.00
H516   H     0.05185   0.17109   0.56514   0.00000  Uiso   1.00
H517   H     0.05006   0.10055   0.51573   0.00000  Uiso   1.00
H518   H     0.06760   0.14376   0.49983   0.00000  Uiso   1.00
H519   H     0.47284   0.08438   0.45127   0.00000  Uiso   1.00
H520   H     0.11400   0.14220   0.55330   0.00000  Uiso   1.00
H521   H     0.11752   0.10348   0.52139   0.00000  Uiso   1.00
H522   H     0.09683   0.09844   0.56877   0.00000  Uiso   1.00
H523   H     0.16334   0.04922   0.43334   0.00000  Uiso   1.00
H524   H     0.14064   0.05266   0.48032   0.00000  Uiso   1.00
H525   H     0.10674   0.02250   0.40474   0.00000  Uiso   1.00
H526   H     0.08438   0.02716   0.45129   0.00000  Uiso   1.00
H527   H     0.09413   0.09471   0.44869   0.00000  Uiso   1.00
H528   H     0.06864   0.07836   0.40737   0.00000  Uiso   1.00
H529   H     0.11597   0.08973   0.40165   0.00000  Uiso   1.00
H530   H     0.40528   0.09413   0.44869   0.00000  Uiso   1.00
H531   H     0.37204   0.03609   0.58139   0.00000  Uiso   1.00
H532   H     0.32890   0.05186   0.56515   0.00000  Uiso   1.00
H533   H     0.39944   0.05008   0.51573   0.00000  Uiso   1.00
H534   H     0.35623   0.06761   0.49983   0.00000  Uiso   1.00
H535   H     0.35778   0.11401   0.55330   0.00000  Uiso   1.00
H536   H     0.39650   0.11754   0.52139   0.00000  Uiso   1.00
H537   H     0.40155   0.09685   0.56876   0.00000  Uiso   1.00
H538   H     0.20077   0.41335   0.93335   0.00000  Uiso   1.00
H539   H     0.19734   0.39063   0.98033   0.00000  Uiso   1.00
H540   H     0.22749   0.35676   0.90473   0.00000  Uiso   1.00
H541   H     0.42163   0.06865   0.40735   0.00000  Uiso   1.00
H542   H     0.22284   0.33438   0.95127   0.00000  Uiso   1.00
H543   H     0.15529   0.34413   0.94869   0.00000  Uiso   1.00
H544   H     0.17163   0.31865   0.90735   0.00000  Uiso   1.00
H545   H     0.16026   0.36598   0.90166   0.00000  Uiso   1.00
H546   H     0.21392   0.12204   0.08139   0.00000  Uiso   1.00
H547   H     0.19814   0.07891   0.06514   0.00000  Uiso   1.00
H548   H     0.19993   0.14945   0.01573   0.00000  Uiso   1.00
H549   H     0.18240   0.10623   0.99983   0.00000  Uiso   1.00
H550   H     0.13600   0.10779   0.05329   0.00000  Uiso   1.00
H551   H     0.13247   0.14652   0.02139   0.00000  Uiso   1.00
H552   H     0.41025   0.11598   0.40166   0.00000  Uiso   1.00
H553   H     0.15316   0.15156   0.06876   0.00000  Uiso   1.00
H554   H     0.08666   0.20078   0.93334   0.00000  Uiso   1.00
H555   H     0.10936   0.19734   0.98033   0.00000  Uiso   1.00
H556   H     0.14326   0.22750   0.90474   0.00000  Uiso   1.00
H557   H     0.16562   0.22284   0.95129   0.00000  Uiso   1.00
H558   H     0.15587   0.15529   0.94869   0.00000  Uiso   1.00
H559   H     0.18136   0.17164   0.90736   0.00000  Uiso   1.00
H560   H     0.13403   0.16027   0.90165   0.00000  Uiso   1.00
H561   H     0.37796   0.21392   0.08139   0.00000  Uiso   1.00
H562   H     0.42109   0.19814   0.06515   0.00000  Uiso   1.00
H563   H     0.46394   0.37204   0.58140   0.00000  Uiso   1.00
H564   H     0.35056   0.19993   0.01573   0.00000  Uiso   1.00
H565   H     0.39377   0.18239   0.99983   0.00000  Uiso   1.00
H566   H     0.39221   0.13600   0.05330   0.00000  Uiso   1.00
H567   H     0.35348   0.13246   0.02139   0.00000  Uiso   1.00
H568   H     0.34844   0.15316   0.06876   0.00000  Uiso   1.00
H569   H     0.29921   0.08666   0.93332   0.00000  Uiso   1.00
H570   H     0.30267   0.10934   0.98032   0.00000  Uiso   1.00
H571   H     0.27250   0.14328   0.90476   0.00000  Uiso   1.00
H572   H     0.27718   0.16562   0.95132   0.00000  Uiso   1.00
H573   H     0.34473   0.15585   0.94869   0.00000  Uiso   1.00
H574   H     0.44815   0.32891   0.56514   0.00000  Uiso   1.00
H575   H     0.32837   0.18137   0.90739   0.00000  Uiso   1.00
H576   H     0.33973   0.13404   0.90164   0.00000  Uiso   1.00
H577   H     0.28608   0.37796   0.08139   0.00000  Uiso   1.00
H578   H     0.30186   0.42109   0.06514   0.00000  Uiso   1.00
H579   H     0.30007   0.35055   0.01573   0.00000  Uiso   1.00
H580   H     0.31760   0.39377   0.99983   0.00000  Uiso   1.00
H581   H     0.36400   0.39221   0.05329   0.00000  Uiso   1.00
H582   H     0.36753   0.35348   0.02139   0.00000  Uiso   1.00
H583   H     0.34684   0.34844   0.06876   0.00000  Uiso   1.00
H584   H     0.41334   0.29922   0.93334   0.00000  Uiso   1.00
O585   O     0.25000  -0.00000   0.25000   0.00000  Uiso   1.00
O586   O     0.25000   0.46964   0.66245   0.00000  Uiso   1.00
O587   O     0.33205   0.11604   0.68406   0.00000  Uiso   1.00
O588   O     0.48088   0.31236   0.39698   0.00000  Uiso   1.00
O589   O     0.48207   0.18728   0.60299   0.00000  Uiso   1.00
O590   O     0.18765   0.48087   0.39698   0.00000  Uiso   1.00
O591   O     0.31272   0.48208   0.60300   0.00000  Uiso   1.00
O592   O     0.01913   0.18765   0.39698   0.00000  Uiso   1.00
O593   O     0.01793   0.31272   0.60300   0.00000  Uiso   1.00
O594   O     0.31235   0.01914   0.39698   0.00000  Uiso   1.00
O595   O     0.18728   0.01792   0.60300   0.00000  Uiso   1.00
O596   O     0.23087   0.06235   0.89698   0.00000  Uiso   1.00
O597   O     0.46963   0.25000   0.33755   0.00000  Uiso   1.00
O598   O     0.23208   0.43728   0.10300   0.00000  Uiso   1.00
O599   O     0.43765   0.23087   0.89698   0.00000  Uiso   1.00
O600   O     0.06272   0.23208   0.10300   0.00000  Uiso   1.00
O601   O     0.26913   0.43765   0.89698   0.00000  Uiso   1.00
O602   O     0.26792   0.06272   0.10300   0.00000  Uiso   1.00
O603   O     0.06235   0.26913   0.89698   0.00000  Uiso   1.00
O604   O     0.43728   0.26792   0.10300   0.00000  Uiso   1.00
O605   O     0.03036   0.25000   0.66245   0.00000  Uiso   1.00
O606   O    -0.00000   0.21963   0.83755   0.00000  Uiso   1.00
O607   O    -0.00000   0.28036   0.16245   0.00000  Uiso   1.00
O608   O     0.28036  -0.00000   0.83755   0.00000  Uiso   1.00
O609   O     0.21963  -0.00000   0.16245   0.00000  Uiso   1.00
O610   O    -0.00000   0.28036   0.83755   0.00000  Uiso   1.00
O611   O    -0.00000   0.21963   0.16245   0.00000  Uiso   1.00
O612   O     0.21963  -0.00000   0.83755   0.00000  Uiso   1.00
O613   O     0.25000  -0.00000   0.75000   0.00000  Uiso   1.00
O614   O     0.28036  -0.00000   0.16245   0.00000  Uiso   1.00
O615   O     0.20724   0.07307   0.27302   0.00000  Uiso   1.00
O616   O     0.29275   0.42693   0.72698   0.00000  Uiso   1.00
O617   O     0.42692   0.20724   0.27302   0.00000  Uiso   1.00
O618   O     0.07307   0.29276   0.72698   0.00000  Uiso   1.00
O619   O     0.29275   0.42693   0.27302   0.00000  Uiso   1.00
O620   O     0.20724   0.07307   0.72698   0.00000  Uiso   1.00
O621   O     0.07307   0.29276   0.27302   0.00000  Uiso   1.00
O622   O     0.42692   0.20724   0.72698   0.00000  Uiso   1.00
O623   O     0.20724   0.42693   0.72698   0.00000  Uiso   1.00
O624   O    -0.00000   0.25000   0.25000   0.00000  Uiso   1.00
O625   O     0.29275   0.07307   0.27302   0.00000  Uiso   1.00
O626   O     0.42692   0.29275   0.72698   0.00000  Uiso   1.00
O627   O     0.07307   0.20725   0.27302   0.00000  Uiso   1.00
O628   O     0.29275   0.07307   0.72698   0.00000  Uiso   1.00
O629   O     0.20724   0.42693   0.27302   0.00000  Uiso   1.00
O630   O     0.07307   0.20725   0.72698   0.00000  Uiso   1.00
O631   O     0.42692   0.29275   0.27302   0.00000  Uiso   1.00
O632   O     0.45724   0.32307   0.77302   0.00000  Uiso   1.00
O633   O     0.04275   0.17693   0.22698   0.00000  Uiso   1.00
O634   O     0.17692   0.45725   0.77302   0.00000  Uiso   1.00
O635   O    -0.00000   0.25000   0.75000   0.00000  Uiso   1.00
O636   O     0.32307   0.04275   0.22698   0.00000  Uiso   1.00
O637   O     0.04275   0.17693   0.77302   0.00000  Uiso   1.00
O638   O     0.45724   0.32307   0.22698   0.00000  Uiso   1.00
O639   O     0.32307   0.04275   0.77302   0.00000  Uiso   1.00
O640   O     0.17692   0.45725   0.22698   0.00000  Uiso   1.00
O641   O     0.45724   0.17692   0.22698   0.00000  Uiso   1.00
O642   O     0.04275   0.32308   0.77302   0.00000  Uiso   1.00
O643   O     0.17692   0.04275   0.22698   0.00000  Uiso   1.00
O644   O     0.32307   0.45725   0.77302   0.00000  Uiso   1.00
O645   O     0.04275   0.32308   0.22698   0.00000  Uiso   1.00
O646   O     0.25000   0.46964   0.33755   0.00000  Uiso   1.00
O647   O     0.45724   0.17692   0.77302   0.00000  Uiso   1.00
O648   O     0.32307   0.45725   0.22698   0.00000  Uiso   1.00
O649   O     0.17692   0.04275   0.77302   0.00000  Uiso   1.00
O650   O     0.49984   0.15071   0.46041   0.00000  Uiso   1.00
O651   O     0.49651   0.34952   0.53954   0.00000  Uiso   1.00
O652   O     0.34929   0.49985   0.46042   0.00000  Uiso   1.00
O653   O     0.15048   0.49649   0.53954   0.00000  Uiso   1.00
O654   O     0.00017   0.34929   0.46042   0.00000  Uiso   1.00
O655   O     0.00350   0.15048   0.53954   0.00000  Uiso   1.00
O656   O     0.15071   0.00015   0.46042   0.00000  Uiso   1.00
O657   O     0.25000   0.03036   0.66245   0.00000  Uiso   1.00
O658   O     0.34952   0.00351   0.53954   0.00000  Uiso   1.00
O659   O     0.24984   0.40071   0.96042   0.00000  Uiso   1.00
O660   O     0.24650   0.09952   0.03954   0.00000  Uiso   1.00
O661   O     0.09929   0.24984   0.96042   0.00000  Uiso   1.00
O662   O     0.40048   0.24649   0.03954   0.00000  Uiso   1.00
O663   O     0.25016   0.09929   0.96042   0.00000  Uiso   1.00
O664   O     0.25351   0.40048   0.03954   0.00000  Uiso   1.00
O665   O     0.40071   0.25016   0.96042   0.00000  Uiso   1.00
O666   O     0.09952   0.25351   0.03954   0.00000  Uiso   1.00
O667   O     0.12040   0.43043   0.19528   0.00000  Uiso   1.00
O668   O     0.03036   0.25000   0.33755   0.00000  Uiso   1.00
O669   O     0.36616   0.08198   0.81586   0.00000  Uiso   1.00
O670   O     0.06957   0.12040   0.19528   0.00000  Uiso   1.00
O671   O     0.41802   0.36616   0.81586   0.00000  Uiso   1.00
O672   O     0.37960   0.06957   0.19528   0.00000  Uiso   1.00
O673   O     0.13384   0.41802   0.81586   0.00000  Uiso   1.00
O674   O     0.43043   0.37960   0.19528   0.00000  Uiso   1.00
O675   O     0.08198   0.13384   0.81586   0.00000  Uiso   1.00
O676   O     0.12011   0.06935   0.80433   0.00000  Uiso   1.00
O677   O     0.36604   0.41795   0.18406   0.00000  Uiso   1.00
O678   O     0.06935   0.37989   0.80433   0.00000  Uiso   1.00
O679   O     0.46963   0.25000   0.66245   0.00000  Uiso   1.00
O680   O     0.41795   0.13396   0.18406   0.00000  Uiso   1.00
O681   O     0.37989   0.43065   0.80433   0.00000  Uiso   1.00
O682   O     0.13396   0.08205   0.18406   0.00000  Uiso   1.00
O683   O     0.43065   0.12011   0.80433   0.00000  Uiso   1.00
O684   O     0.08205   0.36604   0.18406   0.00000  Uiso   1.00
O685   O     0.37040   0.18043   0.69528   0.00000  Uiso   1.00
O686   O     0.11616   0.33198   0.31586   0.00000  Uiso   1.00
O687   O     0.31957   0.37040   0.69528   0.00000  Uiso   1.00
O688   O     0.16802   0.11616   0.31586   0.00000  Uiso   1.00
O689   O     0.12960   0.31957   0.69528   0.00000  Uiso   1.00
O690   O     0.25000   0.03036   0.33755   0.00000  Uiso   1.00
O691   O     0.38384   0.16802   0.31586   0.00000  Uiso   1.00
O692   O     0.18043   0.12960   0.69528   0.00000  Uiso   1.00
O693   O     0.33198   0.38384   0.31586   0.00000  Uiso   1.00
O694   O     0.37011   0.31935   0.30433   0.00000  Uiso   1.00
O695   O     0.11604   0.16795   0.68406   0.00000  Uiso   1.00
O696   O     0.31935   0.12989   0.30433   0.00000  Uiso   1.00
O697   O     0.16795   0.38396   0.68406   0.00000  Uiso   1.00
O698   O     0.12989   0.18065   0.30433   0.00000  Uiso   1.00
O699   O     0.38396   0.33205   0.68406   0.00000  Uiso   1.00
O700   O     0.18065   0.37011   0.30433   0.00000  Uiso   1.00
Zn701  Zn    0.20659  -0.00000   0.21735   0.00000  Uiso   1.00
Zn702  Zn    0.04340   0.25000   0.28265   0.00000  Uiso   1.00
Zn703  Zn    0.25000   0.45660   0.71735   0.00000  Uiso   1.00
Zn704  Zn    0.25000   0.04340   0.28265   0.00000  Uiso   1.00
Zn705  Zn    0.04340   0.25000   0.71735   0.00000  Uiso   1.00
Zn706  Zn    0.45659   0.25000   0.28265   0.00000  Uiso   1.00
Zn707  Zn    0.25000   0.04340   0.71735   0.00000  Uiso   1.00
Zn708  Zn    0.25000   0.45660   0.28265   0.00000  Uiso   1.00
Zn709  Zn    0.29340  -0.00000   0.78265   0.00000  Uiso   1.00
Zn710  Zn    0.00000   0.20660   0.21735   0.00000  Uiso   1.00
Zn711  Zn   -0.00000   0.29340   0.78265   0.00000  Uiso   1.00
Zn712  Zn    0.29340  -0.00000   0.21735   0.00000  Uiso   1.00
Zn713  Zn    0.20659  -0.00000   0.78265   0.00000  Uiso   1.00
Zn714  Zn   -0.00000   0.29340   0.21735   0.00000  Uiso   1.00
Zn715  Zn   -0.00000   0.20659   0.78265   0.00000  Uiso   1.00
Zn716  Zn    0.45659   0.25000   0.71735   0.00000  Uiso   1.00
C717   C     0.99176   0.28211   0.41822   0.00000  Uiso   1.00
C718   C     0.74251   0.46773   0.08185   0.00000  Uiso   1.00
C719   C     0.71672   0.00173   0.54113   0.00000  Uiso   1.00
C720   C     0.99708   0.28320   0.45901   0.00000  Uiso   1.00
C721   C     0.99827   0.21672   0.54113   0.00000  Uiso   1.00
C722   C     0.71680   0.49707   0.45901   0.00000  Uiso   1.00
C723   C     0.78328   0.49827   0.54113   0.00000  Uiso   1.00
C724   C     0.75292   0.46680   0.95901   0.00000  Uiso   1.00
C725   C     0.75173   0.03328   0.04113   0.00000  Uiso   1.00
C726   C     0.53320   0.25292   0.95901   0.00000  Uiso   1.00
C727   C     0.96672   0.25173   0.04113   0.00000  Uiso   1.00
C728   C     0.74708   0.03320   0.95901   0.00000  Uiso   1.00
C729   C     0.96789   0.24176   0.91822   0.00000  Uiso   1.00
C730   C     0.74827   0.46672   0.04113   0.00000  Uiso   1.00
C731   C     0.96680   0.24707   0.95901   0.00000  Uiso   1.00
C732   C     0.53328   0.24827   0.04113   0.00000  Uiso   1.00
C733   C     0.59797   0.34800   0.24999   0.00000  Uiso   1.00
C734   C     0.90169   0.15166   0.74995   0.00000  Uiso   1.00
C735   C     0.65200   0.09797   0.24999   0.00000  Uiso   1.00
C736   C     0.84834   0.40169   0.74995   0.00000  Uiso   1.00
C737   C     0.90203   0.15200   0.24999   0.00000  Uiso   1.00
C738   C     0.59831   0.34834   0.74995   0.00000  Uiso   1.00
C739   C     0.84800   0.40203   0.24999   0.00000  Uiso   1.00
C740   C     0.53227   0.24251   0.08185   0.00000  Uiso   1.00
C741   C     0.65166   0.09831   0.74995   0.00000  Uiso   1.00
C742   C     0.59800   0.15203   0.75000   0.00000  Uiso   1.00
C743   C     0.90166   0.34831   0.24995   0.00000  Uiso   1.00
C744   C     0.65203   0.40200   0.75000   0.00000  Uiso   1.00
C745   C     0.84831   0.09834   0.24995   0.00000  Uiso   1.00
C746   C     0.90200   0.34797   0.74999   0.00000  Uiso   1.00
C747   C     0.59834   0.15169   0.24995   0.00000  Uiso   1.00
C748   C     0.84797   0.09800   0.75000   0.00000  Uiso   1.00
C749   C     0.65169   0.40166   0.24995   0.00000  Uiso   1.00
C750   C     0.50000   0.25000   0.47955   0.00000  Uiso   1.00
C751   C     0.75824   0.46789   0.91822   0.00000  Uiso   1.00
C752   C     0.50000   0.25000   0.52057   0.00000  Uiso   1.00
C753   C     0.75000  -0.00000   0.47955   0.00000  Uiso   1.00
C754   C     0.75000  -0.00000   0.52057   0.00000  Uiso   1.00
C755   C     0.75000  -0.00000   0.97955   0.00000  Uiso   1.00
C756   C     0.75000  -0.00000   0.02057   0.00000  Uiso   1.00
C757   C     0.50000   0.25000   0.97955   0.00000  Uiso   1.00
C758   C     0.50000   0.25000   0.02057   0.00000  Uiso   1.00
C759   C     0.96314   0.14236   0.45265   0.00000  Uiso   1.00
C760   C     0.96117   0.10567   0.43200   0.00000  Uiso   1.00
C761   C     0.92211   0.09559   0.42186   0.00000  Uiso   1.00
C762   C     0.75749   0.03227   0.08185   0.00000  Uiso   1.00
C763   C     0.96123   0.35460   0.55511   0.00000  Uiso   1.00
C764   C     0.93670   0.37396   0.52562   0.00000  Uiso   1.00
C765   C     0.89984   0.38299   0.54349   0.00000  Uiso   1.00
C766   C     0.85764   0.46315   0.45265   0.00000  Uiso   1.00
C767   C     0.89434   0.46119   0.43201   0.00000  Uiso   1.00
C768   C     0.90442   0.42212   0.42186   0.00000  Uiso   1.00
C769   C     0.64541   0.46122   0.55511   0.00000  Uiso   1.00
C770   C     0.62604   0.43668   0.52562   0.00000  Uiso   1.00
C771   C     0.61701   0.39982   0.54349   0.00000  Uiso   1.00
C772   C     0.53687   0.35763   0.45263   0.00000  Uiso   1.00
C773   C     0.53211   0.25824   0.91822   0.00000  Uiso   1.00
C774   C     0.53884   0.39436   0.43207   0.00000  Uiso   1.00
C775   C     0.57791   0.40441   0.42187   0.00000  Uiso   1.00
C776   C     0.53877   0.14541   0.55511   0.00000  Uiso   1.00
C777   C     0.56331   0.12604   0.52562   0.00000  Uiso   1.00
C778   C     0.60017   0.11701   0.54349   0.00000  Uiso   1.00
C779   C     0.64236   0.03685   0.45265   0.00000  Uiso   1.00
C780   C     0.60566   0.03881   0.43201   0.00000  Uiso   1.00
C781   C     0.59558   0.07788   0.42186   0.00000  Uiso   1.00
C782   C     0.85459   0.03879   0.55511   0.00000  Uiso   1.00
C783   C     0.87395   0.06333   0.52562   0.00000  Uiso   1.00
C784   C     0.96773   0.25749   0.08185   0.00000  Uiso   1.00
C785   C     0.88297   0.10019   0.54349   0.00000  Uiso   1.00
C786   C     0.71315   0.39236   0.95265   0.00000  Uiso   1.00
C787   C     0.71118   0.35567   0.93200   0.00000  Uiso   1.00
C788   C     0.67211   0.34559   0.92186   0.00000  Uiso   1.00
C789   C     0.71122   0.10459   0.05511   0.00000  Uiso   1.00
C790   C     0.68668   0.12395   0.02562   0.00000  Uiso   1.00
C791   C     0.64982   0.13298   0.04349   0.00000  Uiso   1.00
C792   C     0.60764   0.21315   0.95265   0.00000  Uiso   1.00
C793   C     0.64433   0.21118   0.93201   0.00000  Uiso   1.00
C794   C     0.65441   0.17212   0.92186   0.00000  Uiso   1.00
C795   C     0.50000   0.25000   0.39814   0.00000  Uiso   1.00
C796   C     0.89541   0.21122   0.05511   0.00000  Uiso   1.00
C797   C     0.87605   0.18668   0.02562   0.00000  Uiso   1.00
C798   C     0.86702   0.14982   0.04349   0.00000  Uiso   1.00
C799   C     0.78686   0.10764   0.95264   0.00000  Uiso   1.00
C800   C     0.78883   0.14434   0.93203   0.00000  Uiso   1.00
C801   C     0.82789   0.15441   0.92187   0.00000  Uiso   1.00
C802   C     0.78878   0.39541   0.05511   0.00000  Uiso   1.00
C803   C     0.81332   0.37605   0.02562   0.00000  Uiso   1.00
C804   C     0.85018   0.36702   0.04349   0.00000  Uiso   1.00
C805   C     0.89236   0.28685   0.95265   0.00000  Uiso   1.00
C806   C     0.50000   0.25000   0.60192   0.00000  Uiso   1.00
C807   C     0.85567   0.28882   0.93201   0.00000  Uiso   1.00
C808   C     0.84559   0.32788   0.92186   0.00000  Uiso   1.00
C809   C     0.60459   0.28878   0.05511   0.00000  Uiso   1.00
C810   C     0.62395   0.31332   0.02562   0.00000  Uiso   1.00
C811   C     0.63298   0.35018   0.04349   0.00000  Uiso   1.00
C812   C     0.59777   0.45756   0.21152   0.00000  Uiso   1.00
C813   C     0.88827   0.05094   0.81978   0.00000  Uiso   1.00
C814   C     0.54244   0.09777   0.21152   0.00000  Uiso   1.00
C815   C     0.94906   0.38827   0.81978   0.00000  Uiso   1.00
C816   C     0.90223   0.04244   0.21152   0.00000  Uiso   1.00
C817   C     0.75000  -0.00000   0.39814   0.00000  Uiso   1.00
C818   C     0.61172   0.44906   0.81978   0.00000  Uiso   1.00
C819   C     0.95756   0.40223   0.21152   0.00000  Uiso   1.00
C820   C     0.55094   0.11173   0.81978   0.00000  Uiso   1.00
C821   C     0.59755   0.04239   0.78768   0.00000  Uiso   1.00
C822   C     0.88812   0.44899   0.17999   0.00000  Uiso   1.00
C823   C     0.54239   0.40245   0.78767   0.00000  Uiso   1.00
C824   C     0.94899   0.11188   0.17999   0.00000  Uiso   1.00
C825   C     0.90245   0.45761   0.78767   0.00000  Uiso   1.00
C826   C     0.61188   0.05101   0.17999   0.00000  Uiso   1.00
C827   C     0.95761   0.09755   0.78767   0.00000  Uiso   1.00
C828   C     0.99251   0.21773   0.58185   0.00000  Uiso   1.00
C829   C     0.75000  -0.00000   0.60192   0.00000  Uiso   1.00
C830   C     0.55101   0.38812   0.17999   0.00000  Uiso   1.00
C831   C     0.84777   0.20756   0.71152   0.00000  Uiso   1.00
C832   C     0.63827   0.30094   0.31978   0.00000  Uiso   1.00
C833   C     0.79244   0.34777   0.71152   0.00000  Uiso   1.00
C834   C     0.69906   0.13827   0.31978   0.00000  Uiso   1.00
C835   C     0.65223   0.29244   0.71152   0.00000  Uiso   1.00
C836   C     0.86173   0.19906   0.31978   0.00000  Uiso   1.00
C837   C     0.70756   0.15223   0.71152   0.00000  Uiso   1.00
C838   C     0.80094   0.36173   0.31978   0.00000  Uiso   1.00
C839   C     0.84755   0.29239   0.28768   0.00000  Uiso   1.00
C840   C     0.75000  -0.00000   0.89814   0.00000  Uiso   1.00
C841   C     0.63812   0.19899   0.67999   0.00000  Uiso   1.00
C842   C     0.79239   0.15245   0.28767   0.00000  Uiso   1.00
C843   C     0.69899   0.36188   0.67999   0.00000  Uiso   1.00
C844   C     0.65245   0.20761   0.28767   0.00000  Uiso   1.00
C845   C     0.86188   0.30101   0.67999   0.00000  Uiso   1.00
C846   C     0.70761   0.34755   0.28767   0.00000  Uiso   1.00
C847   C     0.80101   0.13812   0.67999   0.00000  Uiso   1.00
C848   C     0.94457   0.32193   0.40649   0.00000  Uiso   1.00
C849   C     0.91693   0.29789   0.38538   0.00000  Uiso   1.00
C850   C     0.87817   0.30930   0.39527   0.00000  Uiso   1.00
C851   C     0.75000   0.00000   0.10192   0.00000  Uiso   1.00
C852   C     0.94610   0.17691   0.59304   0.00000  Uiso   1.00
C853   C     0.91778   0.20054   0.61367   0.00000  Uiso   1.00
C854   C     0.87934   0.18811   0.60382   0.00000  Uiso   1.00
C855   C     0.67808   0.44456   0.40649   0.00000  Uiso   1.00
C856   C     0.70212   0.41692   0.38538   0.00000  Uiso   1.00
C857   C     0.69072   0.37816   0.39526   0.00000  Uiso   1.00
C858   C     0.82310   0.44611   0.59304   0.00000  Uiso   1.00
C859   C     0.79947   0.41779   0.61367   0.00000  Uiso   1.00
C860   C     0.81191   0.37935   0.60382   0.00000  Uiso   1.00
C861   C     0.55543   0.17807   0.40649   0.00000  Uiso   1.00
C862   C     0.50000   0.25000   0.89814   0.00000  Uiso   1.00
C863   C     0.58307   0.20211   0.38538   0.00000  Uiso   1.00
C864   C     0.62183   0.19071   0.39526   0.00000  Uiso   1.00
C865   C     0.55390   0.32309   0.59304   0.00000  Uiso   1.00
C866   C     0.58222   0.29945   0.61367   0.00000  Uiso   1.00
C867   C     0.62067   0.31189   0.60382   0.00000  Uiso   1.00
C868   C     0.82192   0.05544   0.40649   0.00000  Uiso   1.00
C869   C     0.79788   0.08308   0.38538   0.00000  Uiso   1.00
C870   C     0.80928   0.12184   0.39526   0.00000  Uiso   1.00
C871   C     0.67690   0.05389   0.59304   0.00000  Uiso   1.00
C872   C     0.70053   0.08221   0.61367   0.00000  Uiso   1.00
C873   C     0.50000   0.25000   0.10192   0.00000  Uiso   1.00
C874   C     0.68810   0.12066   0.60382   0.00000  Uiso   1.00
C875   C     0.69456   0.07192   0.90649   0.00000  Uiso   1.00
C876   C     0.66692   0.04789   0.88538   0.00000  Uiso   1.00
C877   C     0.62817   0.05929   0.89527   0.00000  Uiso   1.00
C878   C     0.69611   0.42690   0.09304   0.00000  Uiso   1.00
C879   C     0.66778   0.45054   0.11367   0.00000  Uiso   1.00
C880   C     0.62934   0.43810   0.10382   0.00000  Uiso   1.00
C881   C     0.92808   0.19456   0.90649   0.00000  Uiso   1.00
C882   C     0.95212   0.16692   0.88538   0.00000  Uiso   1.00
C883   C     0.94072   0.12816   0.89527   0.00000  Uiso   1.00
C884   C     0.50119   0.18366   0.47972   0.00000  Uiso   1.00
C885   C     0.57310   0.19611   0.09304   0.00000  Uiso   1.00
C886   C     0.54947   0.16779   0.11367   0.00000  Uiso   1.00
C887   C     0.56190   0.12934   0.10382   0.00000  Uiso   1.00
C888   C     0.80544   0.42808   0.90649   0.00000  Uiso   1.00
C889   C     0.83308   0.45212   0.88538   0.00000  Uiso   1.00
C890   C     0.87184   0.44072   0.89526   0.00000  Uiso   1.00
C891   C     0.80389   0.07310   0.09304   0.00000  Uiso   1.00
C892   C     0.83222   0.04946   0.11367   0.00000  Uiso   1.00
C893   C     0.87066   0.06190   0.10382   0.00000  Uiso   1.00
C894   C     0.57192   0.30544   0.90649   0.00000  Uiso   1.00
C895   C     0.99853   0.31639   0.52049   0.00000  Uiso   1.00
C896   C     0.54788   0.33308   0.88538   0.00000  Uiso   1.00
C897   C     0.55928   0.37184   0.89526   0.00000  Uiso   1.00
C898   C     0.92690   0.30389   0.09304   0.00000  Uiso   1.00
C899   C     0.95053   0.33221   0.11367   0.00000  Uiso   1.00
C900   C     0.93810   0.37066   0.10382   0.00000  Uiso   1.00
C901   C     0.81634   0.00120   0.47972   0.00000  Uiso   1.00
C902   C     0.68361   0.49851   0.52049   0.00000  Uiso   1.00
C903   C     0.99882   0.31634   0.47972   0.00000  Uiso   1.00
C904   C     0.71789   0.49175   0.41822   0.00000  Uiso   1.00
C905   C     0.50148   0.18361   0.52050   0.00000  Uiso   1.00
C906   C     0.68366   0.49880   0.47972   0.00000  Uiso   1.00
C907   C     0.81639   0.00149   0.52050   0.00000  Uiso   1.00
C908   C     0.75119   0.43366   0.97972   0.00000  Uiso   1.00
C909   C     0.74852   0.06639   0.02049   0.00000  Uiso   1.00
C910   C     0.56634   0.25119   0.97972   0.00000  Uiso   1.00
C911   C     0.93361   0.24852   0.02049   0.00000  Uiso   1.00
C912   C     0.74881   0.06634   0.97972   0.00000  Uiso   1.00
C913   C     0.75148   0.43361   0.02049   0.00000  Uiso   1.00
C914   C     0.93366   0.24881   0.97972   0.00000  Uiso   1.00
C915   C     0.78227   0.49251   0.58185   0.00000  Uiso   1.00
C916   C     0.56639   0.25148   0.02049   0.00000  Uiso   1.00
C917   C     0.75000  -0.00000   0.35577   0.00000  Uiso   1.00
C918   C     0.75000   0.00000   0.64426   0.00000  Uiso   1.00
C919   C     0.50000   0.25000   0.35577   0.00000  Uiso   1.00
C920   C     0.50000   0.25000   0.64426   0.00000  Uiso   1.00
C921   C     0.50000   0.25000   0.85577   0.00000  Uiso   1.00
C922   C     0.50000   0.25000   0.14426   0.00000  Uiso   1.00
C923   C     0.75000  -0.00000   0.85577   0.00000  Uiso   1.00
C924   C     0.75000   0.00000   0.14426   0.00000  Uiso   1.00
C925   C     0.68000   0.06999   0.25000   0.00000  Uiso   1.00
C926   C     0.50824   0.21789   0.41822   0.00000  Uiso   1.00
C927   C     0.82013   0.42989   0.74998   0.00000  Uiso   1.00
C928   C     0.93001   0.18000   0.25000   0.00000  Uiso   1.00
C929   C     0.57011   0.32013   0.74998   0.00000  Uiso   1.00
C930   C     0.82000   0.43001   0.25000   0.00000  Uiso   1.00
C931   C     0.67987   0.07011   0.74998   0.00000  Uiso   1.00
C932   C     0.56999   0.32000   0.25000   0.00000  Uiso   1.00
C933   C     0.92989   0.17987   0.74998   0.00000  Uiso   1.00
C934   C     0.68001   0.43000   0.75000   0.00000  Uiso   1.00
C935   C     0.82011   0.07013   0.24998   0.00000  Uiso   1.00
C936   C     0.93000   0.31999   0.75000   0.00000  Uiso   1.00
C937   C     0.50750   0.28227   0.58185   0.00000  Uiso   1.00
C938   C     0.57013   0.17989   0.24998   0.00000  Uiso   1.00
C939   C     0.81999   0.07000   0.75000   0.00000  Uiso   1.00
C940   C     0.67989   0.42987   0.24998   0.00000  Uiso   1.00
C941   C     0.57000   0.18001   0.75000   0.00000  Uiso   1.00
C942   C     0.92987   0.32011   0.24998   0.00000  Uiso   1.00
C943   C     0.62354   0.40245   0.22187   0.00000  Uiso   1.00
C944   C     0.87313   0.09969   0.78087   0.00000  Uiso   1.00
C945   C     0.59755   0.12354   0.22187   0.00000  Uiso   1.00
C946   C     0.90031   0.37313   0.78087   0.00000  Uiso   1.00
C947   C     0.87646   0.09755   0.22187   0.00000  Uiso   1.00
C948   C     0.78211   0.00825   0.41822   0.00000  Uiso   1.00
C949   C     0.62687   0.40031   0.78087   0.00000  Uiso   1.00
C950   C     0.90245   0.37646   0.22186   0.00000  Uiso   1.00
C951   C     0.59969   0.12687   0.78087   0.00000  Uiso   1.00
C952   C     0.62349   0.09751   0.77800   0.00000  Uiso   1.00
C953   C     0.87311   0.40031   0.21907   0.00000  Uiso   1.00
C954   C     0.59751   0.37651   0.77800   0.00000  Uiso   1.00
C955   C     0.90031   0.12689   0.21907   0.00000  Uiso   1.00
C956   C     0.87651   0.40249   0.77800   0.00000  Uiso   1.00
C957   C     0.62689   0.09969   0.21907   0.00000  Uiso   1.00
C958   C     0.90249   0.12349   0.77800   0.00000  Uiso   1.00
C959   C     0.71773   0.00749   0.58185   0.00000  Uiso   1.00
C960   C     0.59969   0.37311   0.21907   0.00000  Uiso   1.00
C961   C     0.87354   0.15245   0.72187   0.00000  Uiso   1.00
C962   C     0.62313   0.34969   0.28087   0.00000  Uiso   1.00
C963   C     0.84755   0.37354   0.72187   0.00000  Uiso   1.00
C964   C     0.65031   0.12313   0.28087   0.00000  Uiso   1.00
C965   C     0.62646   0.34755   0.72187   0.00000  Uiso   1.00
C966   C     0.87687   0.15031   0.28087   0.00000  Uiso   1.00
C967   C     0.65245   0.12646   0.72187   0.00000  Uiso   1.00
C968   C     0.84969   0.37687   0.28087   0.00000  Uiso   1.00
C969   C     0.87349   0.34751   0.27800   0.00000  Uiso   1.00
C970   C     0.74176   0.03211   0.91822   0.00000  Uiso   1.00
C971   C     0.62311   0.15031   0.71907   0.00000  Uiso   1.00
C972   C     0.84751   0.12651   0.27800   0.00000  Uiso   1.00
C973   C     0.65031   0.37689   0.71907   0.00000  Uiso   1.00
C974   C     0.62651   0.15249   0.27800   0.00000  Uiso   1.00
C975   C     0.87689   0.34969   0.71907   0.00000  Uiso   1.00
C976   C     0.65249   0.37349   0.27800   0.00000  Uiso   1.00
C977   C     0.84969   0.12311   0.71907   0.00000  Uiso   1.00
C978   C     0.50292   0.21680   0.45901   0.00000  Uiso   1.00
C979   C     0.50173   0.28328   0.54113   0.00000  Uiso   1.00
C980   C     0.78320   0.00293   0.45901   0.00000  Uiso   1.00
H981   H     0.95077   0.16335   0.43335   0.00000  Uiso   1.00
H982   H     0.94995   0.39945   0.51573   0.00000  Uiso   1.00
H983   H     0.89064   0.30266   0.98032   0.00000  Uiso   1.00
H984   H     0.85674   0.27251   0.90474   0.00000  Uiso   1.00
H985   H     0.83438   0.27716   0.95129   0.00000  Uiso   1.00
H986   H     0.84413   0.34471   0.94869   0.00000  Uiso   1.00
H987   H     0.81864   0.32836   0.90736   0.00000  Uiso   1.00
H988   H     0.86597   0.33973   0.90165   0.00000  Uiso   1.00
H989   H     0.62203   0.28608   0.08139   0.00000  Uiso   1.00
H990   H     0.57891   0.30186   0.06514   0.00000  Uiso   1.00
H991   H     0.64945   0.30007   0.01573   0.00000  Uiso   1.00
H992   H     0.60624   0.31760   0.99983   0.00000  Uiso   1.00
H993   H     0.93241   0.35624   0.49983   0.00000  Uiso   1.00
H994   H     0.60779   0.36401   0.05329   0.00000  Uiso   1.00
H995   H     0.64652   0.36753   0.02139   0.00000  Uiso   1.00
H996   H     0.65155   0.34684   0.06877   0.00000  Uiso   1.00
H997   H     0.58872   0.47576   0.18770   0.00000  Uiso   1.00
H998   H     0.61263   0.47411   0.23335   0.00000  Uiso   1.00
H999   H     0.57290   0.44647   0.22554   0.00000  Uiso   1.00
H1000  H     0.89518   0.03800   0.79135   0.00000  Uiso   1.00
H1001  H     0.87325   0.03048   0.83721   0.00000  Uiso   1.00
H1002  H     0.91323   0.05772   0.83633   0.00000  Uiso   1.00
H1003  H     0.52424   0.08872   0.18770   0.00000  Uiso   1.00
H1004  H     0.88601   0.35780   0.55329   0.00000  Uiso   1.00
H1005  H     0.52589   0.11263   0.23335   0.00000  Uiso   1.00
H1006  H     0.55353   0.07290   0.22555   0.00000  Uiso   1.00
H1007  H     0.96200   0.39518   0.79135   0.00000  Uiso   1.00
H1008  H     0.96952   0.37325   0.83721   0.00000  Uiso   1.00
H1009  H     0.94228   0.41323   0.83633   0.00000  Uiso   1.00
H1010  H     0.91128   0.02424   0.18770   0.00000  Uiso   1.00
H1011  H     0.88737   0.02589   0.23335   0.00000  Uiso   1.00
H1012  H     0.92710   0.05353   0.22554   0.00000  Uiso   1.00
H1013  H     0.60482   0.46200   0.79135   0.00000  Uiso   1.00
H1014  H     0.62675   0.46952   0.83721   0.00000  Uiso   1.00
H1015  H     0.88248   0.39653   0.52139   0.00000  Uiso   1.00
H1016  H     0.58677   0.44229   0.83633   0.00000  Uiso   1.00
H1017  H     0.97576   0.41128   0.18770   0.00000  Uiso   1.00
H1018  H     0.97411   0.38737   0.23334   0.00000  Uiso   1.00
H1019  H     0.94647   0.42710   0.22554   0.00000  Uiso   1.00
H1020  H     0.53800   0.10482   0.79135   0.00000  Uiso   1.00
H1021  H     0.53048   0.12675   0.83721   0.00000  Uiso   1.00
H1022  H     0.55772   0.08677   0.83633   0.00000  Uiso   1.00
H1023  H     0.58822   0.02407   0.81127   0.00000  Uiso   1.00
H1024  H     0.61256   0.02592   0.76590   0.00000  Uiso   1.00
H1025  H     0.57283   0.05364   0.77347   0.00000  Uiso   1.00
H1026  H     0.90318   0.40157   0.56877   0.00000  Uiso   1.00
H1027  H     0.89516   0.46197   0.20836   0.00000  Uiso   1.00
H1028  H     0.87300   0.46942   0.16261   0.00000  Uiso   1.00
H1029  H     0.91299   0.44220   0.16330   0.00000  Uiso   1.00
H1030  H     0.52407   0.41178   0.81126   0.00000  Uiso   1.00
H1031  H     0.52591   0.38744   0.76590   0.00000  Uiso   1.00
H1032  H     0.55364   0.42717   0.77347   0.00000  Uiso   1.00
H1033  H     0.96197   0.10484   0.20836   0.00000  Uiso   1.00
H1034  H     0.96942   0.12700   0.16261   0.00000  Uiso   1.00
H1035  H     0.94220   0.08701   0.16330   0.00000  Uiso   1.00
H1036  H     0.91178   0.47593   0.81126   0.00000  Uiso   1.00
H1037  H     0.83666   0.45078   0.43334   0.00000  Uiso   1.00
H1038  H     0.88744   0.47408   0.76590   0.00000  Uiso   1.00
H1039  H     0.92717   0.44636   0.77347   0.00000  Uiso   1.00
H1040  H     0.60484   0.03803   0.20836   0.00000  Uiso   1.00
H1041  H     0.62700   0.03058   0.16261   0.00000  Uiso   1.00
H1042  H     0.58701   0.05780   0.16330   0.00000  Uiso   1.00
H1043  H     0.97593   0.08822   0.81127   0.00000  Uiso   1.00
H1044  H     0.97408   0.11256   0.76590   0.00000  Uiso   1.00
H1045  H     0.94636   0.07283   0.77347   0.00000  Uiso   1.00
H1046  H     0.53803   0.39516   0.20836   0.00000  Uiso   1.00
H1047  H     0.53058   0.37300   0.16261   0.00000  Uiso   1.00
H1048  H     0.85936   0.44735   0.48032   0.00000  Uiso   1.00
H1049  H     0.55780   0.41299   0.16330   0.00000  Uiso   1.00
H1050  H     0.83872   0.22576   0.68770   0.00000  Uiso   1.00
H1051  H     0.86263   0.22411   0.73335   0.00000  Uiso   1.00
H1052  H     0.82290   0.19647   0.72555   0.00000  Uiso   1.00
H1053  H     0.64518   0.28800   0.29135   0.00000  Uiso   1.00
H1054  H     0.62325   0.28048   0.33721   0.00000  Uiso   1.00
H1055  H     0.66323   0.30772   0.33633   0.00000  Uiso   1.00
H1056  H     0.77424   0.33872   0.68770   0.00000  Uiso   1.00
H1057  H     0.77589   0.36263   0.73335   0.00000  Uiso   1.00
H1058  H     0.80353   0.32290   0.72555   0.00000  Uiso   1.00
H1059  H     0.89326   0.47750   0.40474   0.00000  Uiso   1.00
H1060  H     0.71200   0.14518   0.29135   0.00000  Uiso   1.00
H1061  H     0.71952   0.12325   0.33721   0.00000  Uiso   1.00
H1062  H     0.69228   0.16323   0.33633   0.00000  Uiso   1.00
H1063  H     0.66128   0.27424   0.68770   0.00000  Uiso   1.00
H1064  H     0.63737   0.27589   0.73335   0.00000  Uiso   1.00
H1065  H     0.67710   0.30353   0.72555   0.00000  Uiso   1.00
H1066  H     0.85482   0.21200   0.29135   0.00000  Uiso   1.00
H1067  H     0.87675   0.21952   0.33721   0.00000  Uiso   1.00
H1068  H     0.83677   0.19228   0.33633   0.00000  Uiso   1.00
H1069  H     0.72576   0.16128   0.68770   0.00000  Uiso   1.00
H1070  H     0.91562   0.47285   0.45129   0.00000  Uiso   1.00
H1071  H     0.72411   0.13737   0.73335   0.00000  Uiso   1.00
H1072  H     0.69647   0.17710   0.72555   0.00000  Uiso   1.00
H1073  H     0.78800   0.35482   0.29135   0.00000  Uiso   1.00
H1074  H     0.78048   0.37676   0.33721   0.00000  Uiso   1.00
H1075  H     0.80772   0.33677   0.33633   0.00000  Uiso   1.00
H1076  H     0.83822   0.27407   0.31127   0.00000  Uiso   1.00
H1077  H     0.86256   0.27592   0.26590   0.00000  Uiso   1.00
H1078  H     0.82283   0.30364   0.27348   0.00000  Uiso   1.00
H1079  H     0.64516   0.21197   0.70836   0.00000  Uiso   1.00
H1080  H     0.62300   0.21942   0.66261   0.00000  Uiso   1.00
H1081  H     0.90587   0.40529   0.44869   0.00000  Uiso   1.00
H1082  H     0.66299   0.19220   0.66330   0.00000  Uiso   1.00
H1083  H     0.77407   0.16178   0.31126   0.00000  Uiso   1.00
H1084  H     0.77591   0.13744   0.26590   0.00000  Uiso   1.00
H1085  H     0.80364   0.17717   0.27347   0.00000  Uiso   1.00
H1086  H     0.71197   0.35484   0.70836   0.00000  Uiso   1.00
H1087  H     0.71942   0.37700   0.66261   0.00000  Uiso   1.00
H1088  H     0.69220   0.33701   0.66330   0.00000  Uiso   1.00
H1089  H     0.66178   0.22593   0.31127   0.00000  Uiso   1.00
H1090  H     0.63744   0.22409   0.26590   0.00000  Uiso   1.00
H1091  H     0.67717   0.19636   0.27347   0.00000  Uiso   1.00
H1092  H     0.94734   0.14063   0.48033   0.00000  Uiso   1.00
H1093  H     0.93136   0.42164   0.40737   0.00000  Uiso   1.00
H1094  H     0.85484   0.28803   0.70836   0.00000  Uiso   1.00
H1095  H     0.87700   0.28058   0.66261   0.00000  Uiso   1.00
H1096  H     0.83701   0.30780   0.66330   0.00000  Uiso   1.00
H1097  H     0.72593   0.33822   0.31127   0.00000  Uiso   1.00
H1098  H     0.72408   0.36256   0.26590   0.00000  Uiso   1.00
H1099  H     0.69636   0.32283   0.27347   0.00000  Uiso   1.00
H1100  H     0.78803   0.14516   0.70836   0.00000  Uiso   1.00
H1101  H     0.78058   0.12300   0.66261   0.00000  Uiso   1.00
H1102  H     0.80780   0.16299   0.66330   0.00000  Uiso   1.00
H1103  H     0.94034   0.35044   0.39703   0.00000  Uiso   1.00
H1104  H     0.88404   0.41027   0.40165   0.00000  Uiso   1.00
H1105  H     0.93896   0.32132   0.43836   0.00000  Uiso   1.00
H1106  H     0.92117   0.30010   0.35342   0.00000  Uiso   1.00
H1107  H     0.92066   0.26914   0.39425   0.00000  Uiso   1.00
H1108  H     0.87346   0.30747   0.42723   0.00000  Uiso   1.00
H1109  H     0.85869   0.29099   0.38035   0.00000  Uiso   1.00
H1110  H     0.87311   0.33758   0.38544   0.00000  Uiso   1.00
H1111  H     0.94233   0.14838   0.60269   0.00000  Uiso   1.00
H1112  H     0.94090   0.17712   0.56105   0.00000  Uiso   1.00
H1113  H     0.92194   0.19885   0.64568   0.00000  Uiso   1.00
H1114  H     0.92089   0.22927   0.60442   0.00000  Uiso   1.00
H1115  H     0.62796   0.46392   0.58140   0.00000  Uiso   1.00
H1116  H     0.87475   0.18923   0.57180   0.00000  Uiso   1.00
H1117  H     0.85938   0.20625   0.61825   0.00000  Uiso   1.00
H1118  H     0.87485   0.15992   0.61425   0.00000  Uiso   1.00
H1119  H     0.64957   0.44033   0.39702   0.00000  Uiso   1.00
H1120  H     0.67869   0.43895   0.43836   0.00000  Uiso   1.00
H1121  H     0.69991   0.42116   0.35342   0.00000  Uiso   1.00
H1122  H     0.73087   0.42066   0.39425   0.00000  Uiso   1.00
H1123  H     0.69254   0.37345   0.42723   0.00000  Uiso   1.00
H1124  H     0.70903   0.35868   0.38035   0.00000  Uiso   1.00
H1125  H     0.66244   0.37310   0.38544   0.00000  Uiso   1.00
H1126  H     0.67109   0.44814   0.56514   0.00000  Uiso   1.00
H1127  H     0.85163   0.44235   0.60269   0.00000  Uiso   1.00
H1128  H     0.82289   0.44091   0.56105   0.00000  Uiso   1.00
H1129  H     0.80116   0.42195   0.64569   0.00000  Uiso   1.00
H1130  H     0.77074   0.42089   0.60442   0.00000  Uiso   1.00
H1131  H     0.81079   0.37476   0.57180   0.00000  Uiso   1.00
H1132  H     0.79377   0.35939   0.61825   0.00000  Uiso   1.00
H1133  H     0.84010   0.37487   0.61425   0.00000  Uiso   1.00
H1134  H     0.55966   0.14957   0.39702   0.00000  Uiso   1.00
H1135  H     0.56105   0.17868   0.43836   0.00000  Uiso   1.00
H1136  H     0.57883   0.19990   0.35342   0.00000  Uiso   1.00
H1137  H     0.60055   0.44993   0.51573   0.00000  Uiso   1.00
H1138  H     0.57934   0.23087   0.39425   0.00000  Uiso   1.00
H1139  H     0.62654   0.19253   0.42723   0.00000  Uiso   1.00
H1140  H     0.64131   0.20902   0.38035   0.00000  Uiso   1.00
H1141  H     0.62689   0.16243   0.38544   0.00000  Uiso   1.00
H1142  H     0.55767   0.35162   0.60269   0.00000  Uiso   1.00
H1143  H     0.55911   0.32288   0.56105   0.00000  Uiso   1.00
H1144  H     0.57806   0.30115   0.64569   0.00000  Uiso   1.00
H1145  H     0.57911   0.27073   0.60442   0.00000  Uiso   1.00
H1146  H     0.62525   0.31076   0.57180   0.00000  Uiso   1.00
H1147  H     0.64062   0.29375   0.61825   0.00000  Uiso   1.00
H1148  H     0.64376   0.43239   0.49983   0.00000  Uiso   1.00
H1149  H     0.62515   0.34008   0.61425   0.00000  Uiso   1.00
H1150  H     0.85043   0.05968   0.39702   0.00000  Uiso   1.00
H1151  H     0.82131   0.06106   0.43836   0.00000  Uiso   1.00
H1152  H     0.80009   0.07884   0.35342   0.00000  Uiso   1.00
H1153  H     0.76912   0.07934   0.39425   0.00000  Uiso   1.00
H1154  H     0.80745   0.12655   0.42723   0.00000  Uiso   1.00
H1155  H     0.79096   0.14132   0.38035   0.00000  Uiso   1.00
H1156  H     0.83756   0.12691   0.38544   0.00000  Uiso   1.00
H1157  H     0.64837   0.05765   0.60269   0.00000  Uiso   1.00
H1158  H     0.67711   0.05910   0.56105   0.00000  Uiso   1.00
H1159  H     0.64220   0.38599   0.55330   0.00000  Uiso   1.00
H1160  H     0.69884   0.07806   0.64569   0.00000  Uiso   1.00
H1161  H     0.72926   0.07911   0.60442   0.00000  Uiso   1.00
H1162  H     0.68922   0.12524   0.57180   0.00000  Uiso   1.00
H1163  H     0.70623   0.14061   0.61825   0.00000  Uiso   1.00
H1164  H     0.65990   0.12514   0.61425   0.00000  Uiso   1.00
H1165  H     0.69033   0.10043   0.89703   0.00000  Uiso   1.00
H1166  H     0.68895   0.07131   0.93836   0.00000  Uiso   1.00
H1167  H     0.67117   0.05010   0.85342   0.00000  Uiso   1.00
H1168  H     0.67066   0.01913   0.89425   0.00000  Uiso   1.00
H1169  H     0.62346   0.05746   0.92723   0.00000  Uiso   1.00
H1170  H     0.60347   0.38247   0.52140   0.00000  Uiso   1.00
H1171  H     0.60868   0.04098   0.88035   0.00000  Uiso   1.00
H1172  H     0.62310   0.08757   0.88544   0.00000  Uiso   1.00
H1173  H     0.69234   0.39837   0.10269   0.00000  Uiso   1.00
H1174  H     0.69090   0.42711   0.06105   0.00000  Uiso   1.00
H1175  H     0.67194   0.44884   0.14568   0.00000  Uiso   1.00
H1176  H     0.67089   0.47927   0.10442   0.00000  Uiso   1.00
H1177  H     0.62475   0.43922   0.07180   0.00000  Uiso   1.00
H1178  H     0.60938   0.45624   0.11825   0.00000  Uiso   1.00
H1179  H     0.62486   0.40991   0.11425   0.00000  Uiso   1.00
H1180  H     0.89957   0.19033   0.89702   0.00000  Uiso   1.00
H1181  H     0.59844   0.40317   0.56877   0.00000  Uiso   1.00
H1182  H     0.92869   0.18895   0.93836   0.00000  Uiso   1.00
H1183  H     0.94991   0.17116   0.85342   0.00000  Uiso   1.00
H1184  H     0.98087   0.17066   0.89425   0.00000  Uiso   1.00
H1185  H     0.94254   0.12346   0.92723   0.00000  Uiso   1.00
H1186  H     0.95903   0.10868   0.88035   0.00000  Uiso   1.00
H1187  H     0.91243   0.12310   0.88544   0.00000  Uiso   1.00
H1188  H     0.60163   0.19234   0.10269   0.00000  Uiso   1.00
H1189  H     0.57289   0.19090   0.06105   0.00000  Uiso   1.00
H1190  H     0.55116   0.17194   0.14569   0.00000  Uiso   1.00
H1191  H     0.52074   0.17089   0.10442   0.00000  Uiso   1.00
H1192  H     0.54919   0.33667   0.43326   0.00000  Uiso   1.00
H1193  H     0.56078   0.12476   0.07180   0.00000  Uiso   1.00
H1194  H     0.54377   0.10939   0.11825   0.00000  Uiso   1.00
H1195  H     0.59009   0.12486   0.11425   0.00000  Uiso   1.00
H1196  H     0.80967   0.39957   0.89702   0.00000  Uiso   1.00
H1197  H     0.81105   0.42869   0.93836   0.00000  Uiso   1.00
H1198  H     0.82883   0.44991   0.85342   0.00000  Uiso   1.00
H1199  H     0.82934   0.48087   0.89425   0.00000  Uiso   1.00
H1200  H     0.87654   0.44254   0.92723   0.00000  Uiso   1.00
H1201  H     0.89132   0.45903   0.88035   0.00000  Uiso   1.00
H1202  H     0.87690   0.41243   0.88544   0.00000  Uiso   1.00
H1203  H     0.97748   0.10676   0.40473   0.00000  Uiso   1.00
H1204  H     0.55271   0.35928   0.48029   0.00000  Uiso   1.00
H1205  H     0.80766   0.10163   0.10269   0.00000  Uiso   1.00
H1206  H     0.80910   0.07288   0.06105   0.00000  Uiso   1.00
H1207  H     0.82806   0.05116   0.14569   0.00000  Uiso   1.00
H1208  H     0.82911   0.02073   0.10442   0.00000  Uiso   1.00
H1209  H     0.87525   0.06078   0.07180   0.00000  Uiso   1.00
H1210  H     0.89062   0.04376   0.11825   0.00000  Uiso   1.00
H1211  H     0.87514   0.09009   0.11425   0.00000  Uiso   1.00
H1212  H     0.60043   0.30967   0.89702   0.00000  Uiso   1.00
H1213  H     0.57131   0.31105   0.93836   0.00000  Uiso   1.00
H1214  H     0.55009   0.32884   0.85342   0.00000  Uiso   1.00
H1215  H     0.52249   0.39335   0.40482   0.00000  Uiso   1.00
H1216  H     0.51913   0.32934   0.89425   0.00000  Uiso   1.00
H1217  H     0.55746   0.37654   0.92723   0.00000  Uiso   1.00
H1218  H     0.54097   0.39132   0.88035   0.00000  Uiso   1.00
H1219  H     0.58756   0.37690   0.88544   0.00000  Uiso   1.00
H1220  H     0.89837   0.30766   0.10269   0.00000  Uiso   1.00
H1221  H     0.92711   0.30910   0.06105   0.00000  Uiso   1.00
H1222  H     0.94884   0.32806   0.14568   0.00000  Uiso   1.00
H1223  H     0.97926   0.32911   0.10442   0.00000  Uiso   1.00
H1224  H     0.93922   0.37524   0.07180   0.00000  Uiso   1.00
H1225  H     0.95624   0.39061   0.11825   0.00000  Uiso   1.00
H1226  H     0.52724   0.41562   0.45141   0.00000  Uiso   1.00
H1227  H     0.90991   0.37514   0.11425   0.00000  Uiso   1.00
H1228  H     0.59478   0.40578   0.44868   0.00000  Uiso   1.00
H1229  H     0.57840   0.43139   0.40746   0.00000  Uiso   1.00
H1230  H     0.58970   0.38406   0.40159   0.00000  Uiso   1.00
H1231  H     0.53607   0.12796   0.58140   0.00000  Uiso   1.00
H1232  H     0.55185   0.17109   0.56514   0.00000  Uiso   1.00
H1233  H     0.55006   0.10055   0.51573   0.00000  Uiso   1.00
H1234  H     0.56760   0.14376   0.49983   0.00000  Uiso   1.00
H1235  H     0.97284   0.08438   0.45127   0.00000  Uiso   1.00
H1236  H     0.61400   0.14220   0.55330   0.00000  Uiso   1.00
H1237  H     0.61752   0.10348   0.52139   0.00000  Uiso   1.00
H1238  H     0.59683   0.09844   0.56877   0.00000  Uiso   1.00
H1239  H     0.66334   0.04922   0.43334   0.00000  Uiso   1.00
H1240  H     0.64064   0.05266   0.48032   0.00000  Uiso   1.00
H1241  H     0.60674   0.02250   0.40474   0.00000  Uiso   1.00
H1242  H     0.58438   0.02716   0.45129   0.00000  Uiso   1.00
H1243  H     0.59413   0.09471   0.44869   0.00000  Uiso   1.00
H1244  H     0.56864   0.07836   0.40737   0.00000  Uiso   1.00
H1245  H     0.61597   0.08973   0.40165   0.00000  Uiso   1.00
H1246  H     0.90528   0.09413   0.44869   0.00000  Uiso   1.00
H1247  H     0.87204   0.03609   0.58139   0.00000  Uiso   1.00
H1248  H     0.82890   0.05186   0.56515   0.00000  Uiso   1.00
H1249  H     0.89944   0.05008   0.51573   0.00000  Uiso   1.00
H1250  H     0.85623   0.06761   0.49983   0.00000  Uiso   1.00
H1251  H     0.85778   0.11401   0.55330   0.00000  Uiso   1.00
H1252  H     0.89650   0.11754   0.52139   0.00000  Uiso   1.00
H1253  H     0.90155   0.09685   0.56876   0.00000  Uiso   1.00
H1254  H     0.70077   0.41335   0.93335   0.00000  Uiso   1.00
H1255  H     0.69734   0.39063   0.98033   0.00000  Uiso   1.00
H1256  H     0.72749   0.35676   0.90473   0.00000  Uiso   1.00
H1257  H     0.92163   0.06865   0.40735   0.00000  Uiso   1.00
H1258  H     0.72284   0.33438   0.95127   0.00000  Uiso   1.00
H1259  H     0.65529   0.34413   0.94869   0.00000  Uiso   1.00
H1260  H     0.67163   0.31865   0.90735   0.00000  Uiso   1.00
H1261  H     0.66026   0.36598   0.90166   0.00000  Uiso   1.00
H1262  H     0.71392   0.12204   0.08139   0.00000  Uiso   1.00
H1263  H     0.69814   0.07891   0.06514   0.00000  Uiso   1.00
H1264  H     0.69993   0.14945   0.01573   0.00000  Uiso   1.00
H1265  H     0.68240   0.10623   0.99983   0.00000  Uiso   1.00
H1266  H     0.63600   0.10779   0.05329   0.00000  Uiso   1.00
H1267  H     0.63247   0.14652   0.02139   0.00000  Uiso   1.00
H1268  H     0.91025   0.11598   0.40166   0.00000  Uiso   1.00
H1269  H     0.65316   0.15156   0.06876   0.00000  Uiso   1.00
H1270  H     0.58666   0.20078   0.93334   0.00000  Uiso   1.00
H1271  H     0.60936   0.19734   0.98033   0.00000  Uiso   1.00
H1272  H     0.64326   0.22750   0.90474   0.00000  Uiso   1.00
H1273  H     0.66562   0.22284   0.95129   0.00000  Uiso   1.00
H1274  H     0.65587   0.15529   0.94869   0.00000  Uiso   1.00
H1275  H     0.68136   0.17164   0.90736   0.00000  Uiso   1.00
H1276  H     0.63403   0.16027   0.90165   0.00000  Uiso   1.00
H1277  H     0.87796   0.21392   0.08139   0.00000  Uiso   1.00
H1278  H     0.92109   0.19814   0.06515   0.00000  Uiso   1.00
H1279  H     0.96394   0.37204   0.58140   0.00000  Uiso   1.00
H1280  H     0.85056   0.19993   0.01573   0.00000  Uiso   1.00
H1281  H     0.89377   0.18239   0.99983   0.00000  Uiso   1.00
H1282  H     0.89221   0.13600   0.05330   0.00000  Uiso   1.00
H1283  H     0.85348   0.13246   0.02139   0.00000  Uiso   1.00
H1284  H     0.84844   0.15316   0.06876   0.00000  Uiso   1.00
H1285  H     0.79921   0.08666   0.93332   0.00000  Uiso   1.00
H1286  H     0.80267   0.10934   0.98032   0.00000  Uiso   1.00
H1287  H     0.77250   0.14328   0.90476   0.00000  Uiso   1.00
H1288  H     0.77718   0.16562   0.95132   0.00000  Uiso   1.00
H1289  H     0.84473   0.15585   0.94869   0.00000  Uiso   1.00
H1290  H     0.94815   0.32891   0.56514   0.00000  Uiso   1.00
H1291  H     0.82837   0.18137   0.90739   0.00000  Uiso   1.00
H1292  H     0.83973   0.13404   0.90164   0.00000  Uiso   1.00
H1293  H     0.78608   0.37796   0.08139   0.00000  Uiso   1.00
H1294  H     0.80186   0.42109   0.06514   0.00000  Uiso   1.00
H1295  H     0.80007   0.35055   0.01573   0.00000  Uiso   1.00
H1296  H     0.81760   0.39377   0.99983   0.00000  Uiso   1.00
H1297  H     0.86400   0.39221   0.05329   0.00000  Uiso   1.00
H1298  H     0.86753   0.35348   0.02139   0.00000  Uiso   1.00
H1299  H     0.84684   0.34844   0.06876   0.00000  Uiso   1.00
H1300  H     0.91334   0.29922   0.93334   0.00000  Uiso   1.00
O1301  O     0.75000  -0.00000   0.25000   0.00000  Uiso   1.00
O1302  O     0.75000   0.46964   0.66245   0.00000  Uiso   1.00
O1303  O     0.83205   0.11604   0.68406   0.00000  Uiso   1.00
O1304  O     0.98088   0.31236   0.39698   0.00000  Uiso   1.00
O1305  O     0.98207   0.18728   0.60299   0.00000  Uiso   1.00
O1306  O     0.68765   0.48087   0.39698   0.00000  Uiso   1.00
O1307  O     0.81272   0.48208   0.60300   0.00000  Uiso   1.00
O1308  O     0.51913   0.18765   0.39698   0.00000  Uiso   1.00
O1309  O     0.51793   0.31272   0.60300   0.00000  Uiso   1.00
O1310  O     0.81235   0.01914   0.39698   0.00000  Uiso   1.00
O1311  O     0.68728   0.01792   0.60300   0.00000  Uiso   1.00
O1312  O     0.73087   0.06235   0.89698   0.00000  Uiso   1.00
O1313  O     0.96963   0.25000   0.33755   0.00000  Uiso   1.00
O1314  O     0.73208   0.43728   0.10300   0.00000  Uiso   1.00
O1315  O     0.93765   0.23087   0.89698   0.00000  Uiso   1.00
O1316  O     0.56272   0.23208   0.10300   0.00000  Uiso   1.00
O1317  O     0.76913   0.43765   0.89698   0.00000  Uiso   1.00
O1318  O     0.76792   0.06272   0.10300   0.00000  Uiso   1.00
O1319  O     0.56235   0.26913   0.89698   0.00000  Uiso   1.00
O1320  O     0.93728   0.26792   0.10300   0.00000  Uiso   1.00
O1321  O     0.53036   0.25000   0.66245   0.00000  Uiso   1.00
O1322  O     0.50000   0.21963   0.83755   0.00000  Uiso   1.00
O1323  O     0.50000   0.28036   0.16245   0.00000  Uiso   1.00
O1324  O     0.78036  -0.00000   0.83755   0.00000  Uiso   1.00
O1325  O     0.71963  -0.00000   0.16245   0.00000  Uiso   1.00
O1326  O     0.50000   0.28036   0.83755   0.00000  Uiso   1.00
O1327  O     0.50000   0.21963   0.16245   0.00000  Uiso   1.00
O1328  O     0.71963  -0.00000   0.83755   0.00000  Uiso   1.00
O1329  O     0.75000  -0.00000   0.75000   0.00000  Uiso   1.00
O1330  O     0.78036  -0.00000   0.16245   0.00000  Uiso   1.00
O1331  O     0.70724   0.07307   0.27302   0.00000  Uiso   1.00
O1332  O     0.79275   0.42693   0.72698   0.00000  Uiso   1.00
O1333  O     0.92692   0.20724   0.27302   0.00000  Uiso   1.00
O1334  O     0.57307   0.29276   0.72698   0.00000  Uiso   1.00
O1335  O     0.79275   0.42693   0.27302   0.00000  Uiso   1.00
O1336  O     0.70724   0.07307   0.72698   0.00000  Uiso   1.00
O1337  O     0.57307   0.29276   0.27302   0.00000  Uiso   1.00
O1338  O     0.92692   0.20724   0.72698   0.00000  Uiso   1.00
O1339  O     0.70724   0.42693   0.72698   0.00000  Uiso   1.00
O1340  O     0.50000   0.25000   0.25000   0.00000  Uiso   1.00
O1341  O     0.79275   0.07307   0.27302   0.00000  Uiso   1.00
O1342  O     0.92692   0.29275   0.72698   0.00000  Uiso   1.00
O1343  O     0.57307   0.20725   0.27302   0.00000  Uiso   1.00
O1344  O     0.79275   0.07307   0.72698   0.00000  Uiso   1.00
O1345  O     0.70724   0.42693   0.27302   0.00000  Uiso   1.00
O1346  O     0.57307   0.20725   0.72698   0.00000  Uiso   1.00
O1347  O     0.92692   0.29275   0.27302   0.00000  Uiso   1.00
O1348  O     0.95724   0.32307   0.77302   0.00000  Uiso   1.00
O1349  O     0.54275   0.17693   0.22698   0.00000  Uiso   1.00
O1350  O     0.67692   0.45725   0.77302   0.00000  Uiso   1.00
O1351  O     0.50000   0.25000   0.75000   0.00000  Uiso   1.00
O1352  O     0.82307   0.04275   0.22698   0.00000  Uiso   1.00
O1353  O     0.54275   0.17693   0.77302   0.00000  Uiso   1.00
O1354  O     0.95724   0.32307   0.22698   0.00000  Uiso   1.00
O1355  O     0.82307   0.04275   0.77302   0.00000  Uiso   1.00
O1356  O     0.67692   0.45725   0.22698   0.00000  Uiso   1.00
O1357  O     0.95724   0.17692   0.22698   0.00000  Uiso   1.00
O1358  O     0.54275   0.32308   0.77302   0.00000  Uiso   1.00
O1359  O     0.67692   0.04275   0.22698   0.00000  Uiso   1.00
O1360  O     0.82307   0.45725   0.77302   0.00000  Uiso   1.00
O1361  O     0.54275   0.32308   0.22698   0.00000  Uiso   1.00
O1362  O     0.75000   0.46964   0.33755   0.00000  Uiso   1.00
O1363  O     0.95724   0.17692   0.77302   0.00000  Uiso   1.00
O1364  O     0.82307   0.45725   0.22698   0.00000  Uiso   1.00
O1365  O     0.67692   0.04275   0.77302   0.00000  Uiso   1.00
O1366  O     0.99984   0.15071   0.46041   0.00000  Uiso   1.00
O1367  O     0.99651   0.34952   0.53954   0.00000  Uiso   1.00
O1368  O     0.84929   0.49985   0.46042   0.00000  Uiso   1.00
O1369  O     0.65048   0.49649   0.53954   0.00000  Uiso   1.00
O1370  O     0.50017   0.34929   0.46042   0.00000  Uiso   1.00
O1371  O     0.50350   0.15048   0.53954   0.00000  Uiso   1.00
O1372  O     0.65071   0.00015   0.46042   0.00000  Uiso   1.00
O1373  O     0.75000   0.03036   0.66245   0.00000  Uiso   1.00
O1374  O     0.84952   0.00351   0.53954   0.00000  Uiso   1.00
O1375  O     0.74984   0.40071   0.96042   0.00000  Uiso   1.00
O1376  O     0.74650   0.09952   0.03954   0.00000  Uiso   1.00
O1377  O     0.59929   0.24984   0.96042   0.00000  Uiso   1.00
O1378  O     0.90048   0.24649   0.03954   0.00000  Uiso   1.00
O1379  O     0.75016   0.09929   0.96042   0.00000  Uiso   1.00
O1380  O     0.75351   0.40048   0.03954   0.00000  Uiso   1.00
O1381  O     0.90071   0.25016   0.96042   0.00000  Uiso   1.00
O1382  O     0.59952   0.25351   0.03954   0.00000  Uiso   1.00
O1383  O     0.62040   0.43043   0.19528   0.00000  Uiso   1.00
O1384  O     0.53036   0.25000   0.33755   0.00000  Uiso   1.00
O1385  O     0.86616   0.08198   0.81586   0.00000  Uiso   1.00
O1386  O     0.56957   0.12040   0.19528   0.00000  Uiso   1.00
O1387  O     0.91802   0.36616   0.81586   0.00000  Uiso   1.00
O1388  O     0.87960   0.06957   0.19528   0.00000  Uiso   1.00
O1389  O     0.63384   0.41802   0.81586   0.00000  Uiso   1.00
O1390  O     0.93043   0.37960   0.19528   0.00000  Uiso   1.00
O1391  O     0.58198   0.13384   0.81586   0.00000  Uiso   1.00
O1392  O     0.62011   0.06935   0.80433   0.00000  Uiso   1.00
O1393  O     0.86604   0.41795   0.18406   0.00000  Uiso   1.00
O1394  O     0.56935   0.37989   0.80433   0.00000  Uiso   1.00
O1395  O     0.96963   0.25000   0.66245   0.00000  Uiso   1.00
O1396  O     0.91795   0.13396   0.18406   0.00000  Uiso   1.00
O1397  O     0.87989   0.43065   0.80433   0.00000  Uiso   1.00
O1398  O     0.63396   0.08205   0.18406   0.00000  Uiso   1.00
O1399  O     0.93065   0.12011   0.80433   0.00000  Uiso   1.00
O1400  O     0.58205   0.36604   0.18406   0.00000  Uiso   1.00
O1401  O     0.87040   0.18043   0.69528   0.00000  Uiso   1.00
O1402  O     0.61616   0.33198   0.31586   0.00000  Uiso   1.00
O1403  O     0.81957   0.37040   0.69528   0.00000  Uiso   1.00
O1404  O     0.66802   0.11616   0.31586   0.00000  Uiso   1.00
O1405  O     0.62960   0.31957   0.69528   0.00000  Uiso   1.00
O1406  O     0.75000   0.03036   0.33755   0.00000  Uiso   1.00
O1407  O     0.88384   0.16802   0.31586   0.00000  Uiso   1.00
O1408  O     0.68043   0.12960   0.69528   0.00000  Uiso   1.00
O1409  O     0.83198   0.38384   0.31586   0.00000  Uiso   1.00
O1410  O     0.87011   0.31935   0.30433   0.00000  Uiso   1.00
O1411  O     0.61604   0.16795   0.68406   0.00000  Uiso   1.00
O1412  O     0.81935   0.12989   0.30433   0.00000  Uiso   1.00
O1413  O     0.66795   0.38396   0.68406   0.00000  Uiso   1.00
O1414  O     0.62989   0.18065   0.30433   0.00000  Uiso   1.00
O1415  O     0.88396   0.33205   0.68406   0.00000  Uiso   1.00
O1416  O     0.68065   0.37011   0.30433   0.00000  Uiso   1.00
Zn1417 Zn    0.70659  -0.00000   0.21735   0.00000  Uiso   1.00
Zn1418 Zn    0.54340   0.25000   0.28265   0.00000  Uiso   1.00
Zn1419 Zn    0.75000   0.45660   0.71735   0.00000  Uiso   1.00
Zn1420 Zn    0.75000   0.04340   0.28265   0.00000  Uiso   1.00
Zn1421 Zn    0.54340   0.25000   0.71735   0.00000  Uiso   1.00
Zn1422 Zn    0.95659   0.25000   0.28265   0.00000  Uiso   1.00
Zn1423 Zn    0.75000   0.04340   0.71735   0.00000  Uiso   1.00
Zn1424 Zn    0.75000   0.45660   0.28265   0.00000  Uiso   1.00
Zn1425 Zn    0.79340  -0.00000   0.78265   0.00000  Uiso   1.00
Zn1426 Zn    0.50000   0.20660   0.21735   0.00000  Uiso   1.00
Zn1427 Zn    0.50000   0.29340   0.78265   0.00000  Uiso   1.00
Zn1428 Zn    0.79340  -0.00000   0.21735   0.00000  Uiso   1.00
Zn1429 Zn    0.70659  -0.00000   0.78265   0.00000  Uiso   1.00
Zn1430 Zn    0.50000   0.29340   0.21735   0.00000  Uiso   1.00
Zn1431 Zn    0.50000   0.20659   0.78265   0.00000  Uiso   1.00
Zn1432 Zn    0.95659   0.25000   0.71735   0.00000  Uiso   1.00
C1433  C     0.49176   0.78211   0.41822   0.00000  Uiso   1.00
C1434  C     0.24251   0.96773   0.08185   0.00000  Uiso   1.00
C1435  C     0.21672   0.50173   0.54113   0.00000  Uiso   1.00
C1436  C     0.49708   0.78320   0.45901   0.00000  Uiso   1.00
C1437  C     0.49827   0.71672   0.54113   0.00000  Uiso   1.00
C1438  C     0.21680   0.99707   0.45901   0.00000  Uiso   1.00
C1439  C     0.28328   0.99827   0.54113   0.00000  Uiso   1.00
C1440  C     0.25292   0.96680   0.95901   0.00000  Uiso   1.00
C1441  C     0.25173   0.53328   0.04113   0.00000  Uiso   1.00
C1442  C     0.03320   0.75292   0.95901   0.00000  Uiso   1.00
C1443  C     0.46672   0.75173   0.04113   0.00000  Uiso   1.00
C1444  C     0.24708   0.53320   0.95901   0.00000  Uiso   1.00
C1445  C     0.46789   0.74176   0.91822   0.00000  Uiso   1.00
C1446  C     0.24827   0.96672   0.04113   0.00000  Uiso   1.00
C1447  C     0.46680   0.74707   0.95901   0.00000  Uiso   1.00
C1448  C     0.03328   0.74827   0.04113   0.00000  Uiso   1.00
C1449  C     0.09797   0.84800   0.24999   0.00000  Uiso   1.00
C1450  C     0.40169   0.65166   0.74995   0.00000  Uiso   1.00
C1451  C     0.15200   0.59797   0.24999   0.00000  Uiso   1.00
C1452  C     0.34834   0.90169   0.74995   0.00000  Uiso   1.00
C1453  C     0.40203   0.65200   0.24999   0.00000  Uiso   1.00
C1454  C     0.09831   0.84834   0.74995   0.00000  Uiso   1.00
C1455  C     0.34800   0.90203   0.24999   0.00000  Uiso   1.00
C1456  C     0.03227   0.74251   0.08185   0.00000  Uiso   1.00
C1457  C     0.15166   0.59831   0.74995   0.00000  Uiso   1.00
C1458  C     0.09800   0.65203   0.75000   0.00000  Uiso   1.00
C1459  C     0.40166   0.84831   0.24995   0.00000  Uiso   1.00
C1460  C     0.15203   0.90200   0.75000   0.00000  Uiso   1.00
C1461  C     0.34831   0.59834   0.24995   0.00000  Uiso   1.00
C1462  C     0.40200   0.84797   0.74999   0.00000  Uiso   1.00
C1463  C     0.09834   0.65169   0.24995   0.00000  Uiso   1.00
C1464  C     0.34797   0.59800   0.75000   0.00000  Uiso   1.00
C1465  C     0.15169   0.90166   0.24995   0.00000  Uiso   1.00
C1466  C     0.00000   0.75000   0.47955   0.00000  Uiso   1.00
C1467  C     0.25824   0.96789   0.91822   0.00000  Uiso   1.00
C1468  C     0.00000   0.75000   0.52057   0.00000  Uiso   1.00
C1469  C     0.25000   0.50000   0.47955   0.00000  Uiso   1.00
C1470  C     0.25000   0.50000   0.52057   0.00000  Uiso   1.00
C1471  C     0.25000   0.50000   0.97955   0.00000  Uiso   1.00
C1472  C     0.25000   0.50000   0.02057   0.00000  Uiso   1.00
C1473  C    -0.00000   0.75000   0.97955   0.00000  Uiso   1.00
C1474  C    -0.00000   0.75000   0.02057   0.00000  Uiso   1.00
C1475  C     0.46314   0.64236   0.45265   0.00000  Uiso   1.00
C1476  C     0.46117   0.60567   0.43200   0.00000  Uiso   1.00
C1477  C     0.42211   0.59559   0.42186   0.00000  Uiso   1.00
C1478  C     0.25749   0.53227   0.08185   0.00000  Uiso   1.00
C1479  C     0.46123   0.85460   0.55511   0.00000  Uiso   1.00
C1480  C     0.43670   0.87396   0.52562   0.00000  Uiso   1.00
C1481  C     0.39984   0.88299   0.54349   0.00000  Uiso   1.00
C1482  C     0.35764   0.96315   0.45265   0.00000  Uiso   1.00
C1483  C     0.39434   0.96119   0.43201   0.00000  Uiso   1.00
C1484  C     0.40442   0.92212   0.42186   0.00000  Uiso   1.00
C1485  C     0.14541   0.96122   0.55511   0.00000  Uiso   1.00
C1486  C     0.12604   0.93668   0.52562   0.00000  Uiso   1.00
C1487  C     0.11701   0.89982   0.54349   0.00000  Uiso   1.00
C1488  C     0.03687   0.85763   0.45263   0.00000  Uiso   1.00
C1489  C     0.03211   0.75824   0.91822   0.00000  Uiso   1.00
C1490  C     0.03884   0.89436   0.43207   0.00000  Uiso   1.00
C1491  C     0.07791   0.90441   0.42187   0.00000  Uiso   1.00
C1492  C     0.03877   0.64541   0.55511   0.00000  Uiso   1.00
C1493  C     0.06331   0.62604   0.52562   0.00000  Uiso   1.00
C1494  C     0.10017   0.61701   0.54349   0.00000  Uiso   1.00
C1495  C     0.14236   0.53685   0.45265   0.00000  Uiso   1.00
C1496  C     0.10566   0.53881   0.43201   0.00000  Uiso   1.00
C1497  C     0.09558   0.57788   0.42186   0.00000  Uiso   1.00
C1498  C     0.35459   0.53879   0.55511   0.00000  Uiso   1.00
C1499  C     0.37395   0.56333   0.52562   0.00000  Uiso   1.00
C1500  C     0.46773   0.75749   0.08185   0.00000  Uiso   1.00
C1501  C     0.38297   0.60019   0.54349   0.00000  Uiso   1.00
C1502  C     0.21315   0.89236   0.95265   0.00000  Uiso   1.00
C1503  C     0.21118   0.85567   0.93200   0.00000  Uiso   1.00
C1504  C     0.17211   0.84559   0.92186   0.00000  Uiso   1.00
C1505  C     0.21122   0.60459   0.05511   0.00000  Uiso   1.00
C1506  C     0.18668   0.62395   0.02562   0.00000  Uiso   1.00
C1507  C     0.14982   0.63298   0.04349   0.00000  Uiso   1.00
C1508  C     0.10764   0.71315   0.95265   0.00000  Uiso   1.00
C1509  C     0.14433   0.71118   0.93201   0.00000  Uiso   1.00
C1510  C     0.15441   0.67212   0.92186   0.00000  Uiso   1.00
C1511  C     0.00000   0.75000   0.39814   0.00000  Uiso   1.00
C1512  C     0.39541   0.71122   0.05511   0.00000  Uiso   1.00
C1513  C     0.37605   0.68668   0.02562   0.00000  Uiso   1.00
C1514  C     0.36702   0.64982   0.04349   0.00000  Uiso   1.00
C1515  C     0.28686   0.60764   0.95264   0.00000  Uiso   1.00
C1516  C     0.28883   0.64434   0.93203   0.00000  Uiso   1.00
C1517  C     0.32789   0.65441   0.92187   0.00000  Uiso   1.00
C1518  C     0.28878   0.89541   0.05511   0.00000  Uiso   1.00
C1519  C     0.31332   0.87605   0.02562   0.00000  Uiso   1.00
C1520  C     0.35018   0.86702   0.04349   0.00000  Uiso   1.00
C1521  C     0.39236   0.78685   0.95265   0.00000  Uiso   1.00
C1522  C     0.00000   0.75000   0.60192   0.00000  Uiso   1.00
C1523  C     0.35567   0.78882   0.93201   0.00000  Uiso   1.00
C1524  C     0.34559   0.82788   0.92186   0.00000  Uiso   1.00
C1525  C     0.10459   0.78878   0.05511   0.00000  Uiso   1.00
C1526  C     0.12395   0.81332   0.02562   0.00000  Uiso   1.00
C1527  C     0.13298   0.85018   0.04349   0.00000  Uiso   1.00
C1528  C     0.09777   0.95756   0.21152   0.00000  Uiso   1.00
C1529  C     0.38827   0.55094   0.81978   0.00000  Uiso   1.00
C1530  C     0.04244   0.59777   0.21152   0.00000  Uiso   1.00
C1531  C     0.44906   0.88827   0.81978   0.00000  Uiso   1.00
C1532  C     0.40223   0.54244   0.21152   0.00000  Uiso   1.00
C1533  C     0.25000   0.50000   0.39814   0.00000  Uiso   1.00
C1534  C     0.11172   0.94906   0.81978   0.00000  Uiso   1.00
C1535  C     0.45756   0.90223   0.21152   0.00000  Uiso   1.00
C1536  C     0.05094   0.61173   0.81978   0.00000  Uiso   1.00
C1537  C     0.09755   0.54239   0.78768   0.00000  Uiso   1.00
C1538  C     0.38812   0.94899   0.17999   0.00000  Uiso   1.00
C1539  C     0.04239   0.90245   0.78767   0.00000  Uiso   1.00
C1540  C     0.44899   0.61188   0.17999   0.00000  Uiso   1.00
C1541  C     0.40245   0.95761   0.78767   0.00000  Uiso   1.00
C1542  C     0.11188   0.55101   0.17999   0.00000  Uiso   1.00
C1543  C     0.45761   0.59755   0.78767   0.00000  Uiso   1.00
C1544  C     0.49251   0.71773   0.58185   0.00000  Uiso   1.00
C1545  C     0.25000   0.50000   0.60192   0.00000  Uiso   1.00
C1546  C     0.05101   0.88812   0.17999   0.00000  Uiso   1.00
C1547  C     0.34777   0.70756   0.71152   0.00000  Uiso   1.00
C1548  C     0.13827   0.80094   0.31978   0.00000  Uiso   1.00
C1549  C     0.29244   0.84777   0.71152   0.00000  Uiso   1.00
C1550  C     0.19906   0.63827   0.31978   0.00000  Uiso   1.00
C1551  C     0.15223   0.79244   0.71152   0.00000  Uiso   1.00
C1552  C     0.36173   0.69906   0.31978   0.00000  Uiso   1.00
C1553  C     0.20756   0.65223   0.71152   0.00000  Uiso   1.00
C1554  C     0.30094   0.86173   0.31978   0.00000  Uiso   1.00
C1555  C     0.34755   0.79239   0.28768   0.00000  Uiso   1.00
C1556  C     0.25000   0.50000   0.89814   0.00000  Uiso   1.00
C1557  C     0.13812   0.69899   0.67999   0.00000  Uiso   1.00
C1558  C     0.29239   0.65245   0.28767   0.00000  Uiso   1.00
C1559  C     0.19899   0.86188   0.67999   0.00000  Uiso   1.00
C1560  C     0.15245   0.70761   0.28767   0.00000  Uiso   1.00
C1561  C     0.36188   0.80101   0.67999   0.00000  Uiso   1.00
C1562  C     0.20761   0.84755   0.28767   0.00000  Uiso   1.00
C1563  C     0.30101   0.63812   0.67999   0.00000  Uiso   1.00
C1564  C     0.44457   0.82193   0.40649   0.00000  Uiso   1.00
C1565  C     0.41693   0.79789   0.38538   0.00000  Uiso   1.00
C1566  C     0.37817   0.80930   0.39527   0.00000  Uiso   1.00
C1567  C     0.25000   0.50000   0.10192   0.00000  Uiso   1.00
C1568  C     0.44610   0.67691   0.59304   0.00000  Uiso   1.00
C1569  C     0.41778   0.70054   0.61367   0.00000  Uiso   1.00
C1570  C     0.37934   0.68811   0.60382   0.00000  Uiso   1.00
C1571  C     0.17808   0.94456   0.40649   0.00000  Uiso   1.00
C1572  C     0.20212   0.91692   0.38538   0.00000  Uiso   1.00
C1573  C     0.19072   0.87816   0.39526   0.00000  Uiso   1.00
C1574  C     0.32310   0.94611   0.59304   0.00000  Uiso   1.00
C1575  C     0.29947   0.91779   0.61367   0.00000  Uiso   1.00
C1576  C     0.31191   0.87935   0.60382   0.00000  Uiso   1.00
C1577  C     0.05543   0.67807   0.40649   0.00000  Uiso   1.00
C1578  C    -0.00000   0.75000   0.89814   0.00000  Uiso   1.00
C1579  C     0.08307   0.70211   0.38538   0.00000  Uiso   1.00
C1580  C     0.12183   0.69071   0.39526   0.00000  Uiso   1.00
C1581  C     0.05390   0.82309   0.59304   0.00000  Uiso   1.00
C1582  C     0.08222   0.79945   0.61367   0.00000  Uiso   1.00
C1583  C     0.12067   0.81189   0.60382   0.00000  Uiso   1.00
C1584  C     0.32192   0.55544   0.40649   0.00000  Uiso   1.00
C1585  C     0.29788   0.58308   0.38538   0.00000  Uiso   1.00
C1586  C     0.30928   0.62184   0.39526   0.00000  Uiso   1.00
C1587  C     0.17690   0.55389   0.59304   0.00000  Uiso   1.00
C1588  C     0.20053   0.58221   0.61367   0.00000  Uiso   1.00
C1589  C    -0.00000   0.75000   0.10192   0.00000  Uiso   1.00
C1590  C     0.18810   0.62066   0.60382   0.00000  Uiso   1.00
C1591  C     0.19456   0.57192   0.90649   0.00000  Uiso   1.00
C1592  C     0.16692   0.54789   0.88538   0.00000  Uiso   1.00
C1593  C     0.12817   0.55929   0.89527   0.00000  Uiso   1.00
C1594  C     0.19611   0.92690   0.09304   0.00000  Uiso   1.00
C1595  C     0.16778   0.95054   0.11367   0.00000  Uiso   1.00
C1596  C     0.12934   0.93810   0.10382   0.00000  Uiso   1.00
C1597  C     0.42808   0.69456   0.90649   0.00000  Uiso   1.00
C1598  C     0.45212   0.66692   0.88538   0.00000  Uiso   1.00
C1599  C     0.44072   0.62816   0.89527   0.00000  Uiso   1.00
C1600  C     0.00119   0.68366   0.47972   0.00000  Uiso   1.00
C1601  C     0.07310   0.69611   0.09304   0.00000  Uiso   1.00
C1602  C     0.04947   0.66779   0.11367   0.00000  Uiso   1.00
C1603  C     0.06190   0.62934   0.10382   0.00000  Uiso   1.00
C1604  C     0.30544   0.92808   0.90649   0.00000  Uiso   1.00
C1605  C     0.33308   0.95212   0.88538   0.00000  Uiso   1.00
C1606  C     0.37184   0.94072   0.89526   0.00000  Uiso   1.00
C1607  C     0.30389   0.57310   0.09304   0.00000  Uiso   1.00
C1608  C     0.33222   0.54946   0.11367   0.00000  Uiso   1.00
C1609  C     0.37066   0.56190   0.10382   0.00000  Uiso   1.00
C1610  C     0.07192   0.80544   0.90649   0.00000  Uiso   1.00
C1611  C     0.49853   0.81639   0.52049   0.00000  Uiso   1.00
C1612  C     0.04788   0.83308   0.88538   0.00000  Uiso   1.00
C1613  C     0.05928   0.87184   0.89526   0.00000  Uiso   1.00
C1614  C     0.42690   0.80389   0.09304   0.00000  Uiso   1.00
C1615  C     0.45053   0.83221   0.11367   0.00000  Uiso   1.00
C1616  C     0.43810   0.87066   0.10382   0.00000  Uiso   1.00
C1617  C     0.31634   0.50120   0.47972   0.00000  Uiso   1.00
C1618  C     0.18361   0.99851   0.52049   0.00000  Uiso   1.00
C1619  C     0.49882   0.81634   0.47972   0.00000  Uiso   1.00
C1620  C     0.21789   0.99175   0.41822   0.00000  Uiso   1.00
C1621  C     0.00148   0.68361   0.52050   0.00000  Uiso   1.00
C1622  C     0.18366   0.99880   0.47972   0.00000  Uiso   1.00
C1623  C     0.31639   0.50149   0.52050   0.00000  Uiso   1.00
C1624  C     0.25119   0.93366   0.97972   0.00000  Uiso   1.00
C1625  C     0.24852   0.56639   0.02049   0.00000  Uiso   1.00
C1626  C     0.06634   0.75119   0.97972   0.00000  Uiso   1.00
C1627  C     0.43361   0.74852   0.02049   0.00000  Uiso   1.00
C1628  C     0.24881   0.56634   0.97972   0.00000  Uiso   1.00
C1629  C     0.25148   0.93361   0.02049   0.00000  Uiso   1.00
C1630  C     0.43366   0.74881   0.97972   0.00000  Uiso   1.00
C1631  C     0.28227   0.99251   0.58185   0.00000  Uiso   1.00
C1632  C     0.06639   0.75148   0.02049   0.00000  Uiso   1.00
C1633  C     0.25000   0.50000   0.35577   0.00000  Uiso   1.00
C1634  C     0.25000   0.50000   0.64426   0.00000  Uiso   1.00
C1635  C    -0.00000   0.75000   0.35577   0.00000  Uiso   1.00
C1636  C     0.00000   0.75000   0.64426   0.00000  Uiso   1.00
C1637  C    -0.00000   0.75000   0.85577   0.00000  Uiso   1.00
C1638  C    -0.00000   0.75000   0.14426   0.00000  Uiso   1.00
C1639  C     0.25000   0.50000   0.85577   0.00000  Uiso   1.00
C1640  C     0.25000   0.50000   0.14426   0.00000  Uiso   1.00
C1641  C     0.18000   0.56999   0.25000   0.00000  Uiso   1.00
C1642  C     0.00824   0.71789   0.41822   0.00000  Uiso   1.00
C1643  C     0.32013   0.92989   0.74998   0.00000  Uiso   1.00
C1644  C     0.43001   0.68000   0.25000   0.00000  Uiso   1.00
C1645  C     0.07011   0.82013   0.74998   0.00000  Uiso   1.00
C1646  C     0.32000   0.93001   0.25000   0.00000  Uiso   1.00
C1647  C     0.17987   0.57011   0.74998   0.00000  Uiso   1.00
C1648  C     0.06999   0.82000   0.25000   0.00000  Uiso   1.00
C1649  C     0.42989   0.67987   0.74998   0.00000  Uiso   1.00
C1650  C     0.18001   0.93000   0.75000   0.00000  Uiso   1.00
C1651  C     0.32011   0.57013   0.24998   0.00000  Uiso   1.00
C1652  C     0.43000   0.81999   0.75000   0.00000  Uiso   1.00
C1653  C     0.00750   0.78227   0.58185   0.00000  Uiso   1.00
C1654  C     0.07013   0.67989   0.24998   0.00000  Uiso   1.00
C1655  C     0.31999   0.57000   0.75000   0.00000  Uiso   1.00
C1656  C     0.17989   0.92987   0.24998   0.00000  Uiso   1.00
C1657  C     0.07000   0.68001   0.75000   0.00000  Uiso   1.00
C1658  C     0.42987   0.82011   0.24998   0.00000  Uiso   1.00
C1659  C     0.12354   0.90245   0.22187   0.00000  Uiso   1.00
C1660  C     0.37313   0.59969   0.78087   0.00000  Uiso   1.00
C1661  C     0.09755   0.62354   0.22187   0.00000  Uiso   1.00
C1662  C     0.40031   0.87313   0.78087   0.00000  Uiso   1.00
C1663  C     0.37646   0.59755   0.22187   0.00000  Uiso   1.00
C1664  C     0.28211   0.50825   0.41822   0.00000  Uiso   1.00
C1665  C     0.12687   0.90031   0.78087   0.00000  Uiso   1.00
C1666  C     0.40245   0.87646   0.22186   0.00000  Uiso   1.00
C1667  C     0.09969   0.62687   0.78087   0.00000  Uiso   1.00
C1668  C     0.12349   0.59751   0.77800   0.00000  Uiso   1.00
C1669  C     0.37311   0.90031   0.21907   0.00000  Uiso   1.00
C1670  C     0.09751   0.87651   0.77800   0.00000  Uiso   1.00
C1671  C     0.40031   0.62689   0.21907   0.00000  Uiso   1.00
C1672  C     0.37651   0.90249   0.77800   0.00000  Uiso   1.00
C1673  C     0.12689   0.59969   0.21907   0.00000  Uiso   1.00
C1674  C     0.40249   0.62349   0.77800   0.00000  Uiso   1.00
C1675  C     0.21773   0.50749   0.58185   0.00000  Uiso   1.00
C1676  C     0.09969   0.87311   0.21907   0.00000  Uiso   1.00
C1677  C     0.37354   0.65245   0.72187   0.00000  Uiso   1.00
C1678  C     0.12313   0.84969   0.28087   0.00000  Uiso   1.00
C1679  C     0.34755   0.87354   0.72187   0.00000  Uiso   1.00
C1680  C     0.15031   0.62313   0.28087   0.00000  Uiso   1.00
C1681  C     0.12646   0.84755   0.72187   0.00000  Uiso   1.00
C1682  C     0.37687   0.65031   0.28087   0.00000  Uiso   1.00
C1683  C     0.15245   0.62646   0.72187   0.00000  Uiso   1.00
C1684  C     0.34969   0.87687   0.28087   0.00000  Uiso   1.00
C1685  C     0.37349   0.84751   0.27800   0.00000  Uiso   1.00
C1686  C     0.24176   0.53211   0.91822   0.00000  Uiso   1.00
C1687  C     0.12311   0.65031   0.71907   0.00000  Uiso   1.00
C1688  C     0.34751   0.62651   0.27800   0.00000  Uiso   1.00
C1689  C     0.15031   0.87689   0.71907   0.00000  Uiso   1.00
C1690  C     0.12651   0.65249   0.27800   0.00000  Uiso   1.00
C1691  C     0.37689   0.84969   0.71907   0.00000  Uiso   1.00
C1692  C     0.15249   0.87349   0.27800   0.00000  Uiso   1.00
C1693  C     0.34969   0.62311   0.71907   0.00000  Uiso   1.00
C1694  C     0.00292   0.71680   0.45901   0.00000  Uiso   1.00
C1695  C     0.00173   0.78328   0.54113   0.00000  Uiso   1.00
C1696  C     0.28320   0.50293   0.45901   0.00000  Uiso   1.00
H1697  H     0.45077   0.66335   0.43335   0.00000  Uiso   1.00
H1698  H     0.44995   0.89945   0.51573   0.00000  Uiso   1.00
H1699  H     0.39064   0.80266   0.98032   0.00000  Uiso   1.00
H1700  H     0.35674   0.77251   0.90474   0.00000  Uiso   1.00
H1701  H     0.33438   0.77716   0.95129   0.00000  Uiso   1.00
H1702  H     0.34413   0.84471   0.94869   0.00000  Uiso   1.00
H1703  H     0.31864   0.82836   0.90736   0.00000  Uiso   1.00
H1704  H     0.36597   0.83973   0.90165   0.00000  Uiso   1.00
H1705  H     0.12203   0.78608   0.08139   0.00000  Uiso   1.00
H1706  H     0.07891   0.80186   0.06514   0.00000  Uiso   1.00
H1707  H     0.14945   0.80007   0.01573   0.00000  Uiso   1.00
H1708  H     0.10624   0.81760   0.99983   0.00000  Uiso   1.00
H1709  H     0.43241   0.85624   0.49983   0.00000  Uiso   1.00
H1710  H     0.10779   0.86401   0.05329   0.00000  Uiso   1.00
H1711  H     0.14652   0.86753   0.02139   0.00000  Uiso   1.00
H1712  H     0.15155   0.84684   0.06877   0.00000  Uiso   1.00
H1713  H     0.08872   0.97576   0.18770   0.00000  Uiso   1.00
H1714  H     0.11263   0.97411   0.23335   0.00000  Uiso   1.00
H1715  H     0.07290   0.94647   0.22554   0.00000  Uiso   1.00
H1716  H     0.39518   0.53800   0.79135   0.00000  Uiso   1.00
H1717  H     0.37325   0.53048   0.83721   0.00000  Uiso   1.00
H1718  H     0.41323   0.55772   0.83633   0.00000  Uiso   1.00
H1719  H     0.02424   0.58872   0.18770   0.00000  Uiso   1.00
H1720  H     0.38601   0.85780   0.55329   0.00000  Uiso   1.00
H1721  H     0.02589   0.61263   0.23335   0.00000  Uiso   1.00
H1722  H     0.05353   0.57290   0.22555   0.00000  Uiso   1.00
H1723  H     0.46200   0.89518   0.79135   0.00000  Uiso   1.00
H1724  H     0.46952   0.87325   0.83721   0.00000  Uiso   1.00
H1725  H     0.44228   0.91323   0.83633   0.00000  Uiso   1.00
H1726  H     0.41128   0.52424   0.18770   0.00000  Uiso   1.00
H1727  H     0.38737   0.52589   0.23335   0.00000  Uiso   1.00
H1728  H     0.42710   0.55353   0.22554   0.00000  Uiso   1.00
H1729  H     0.10482   0.96200   0.79135   0.00000  Uiso   1.00
H1730  H     0.12675   0.96952   0.83721   0.00000  Uiso   1.00
H1731  H     0.38248   0.89653   0.52139   0.00000  Uiso   1.00
H1732  H     0.08677   0.94229   0.83633   0.00000  Uiso   1.00
H1733  H     0.47576   0.91128   0.18770   0.00000  Uiso   1.00
H1734  H     0.47411   0.88737   0.23334   0.00000  Uiso   1.00
H1735  H     0.44647   0.92710   0.22554   0.00000  Uiso   1.00
H1736  H     0.03800   0.60482   0.79135   0.00000  Uiso   1.00
H1737  H     0.03048   0.62675   0.83721   0.00000  Uiso   1.00
H1738  H     0.05772   0.58677   0.83633   0.00000  Uiso   1.00
H1739  H     0.08822   0.52407   0.81127   0.00000  Uiso   1.00
H1740  H     0.11256   0.52592   0.76590   0.00000  Uiso   1.00
H1741  H     0.07283   0.55364   0.77347   0.00000  Uiso   1.00
H1742  H     0.40318   0.90157   0.56877   0.00000  Uiso   1.00
H1743  H     0.39516   0.96197   0.20836   0.00000  Uiso   1.00
H1744  H     0.37300   0.96942   0.16261   0.00000  Uiso   1.00
H1745  H     0.41299   0.94220   0.16330   0.00000  Uiso   1.00
H1746  H     0.02407   0.91178   0.81126   0.00000  Uiso   1.00
H1747  H     0.02591   0.88744   0.76590   0.00000  Uiso   1.00
H1748  H     0.05364   0.92717   0.77347   0.00000  Uiso   1.00
H1749  H     0.46197   0.60484   0.20836   0.00000  Uiso   1.00
H1750  H     0.46942   0.62700   0.16261   0.00000  Uiso   1.00
H1751  H     0.44220   0.58701   0.16330   0.00000  Uiso   1.00
H1752  H     0.41178   0.97593   0.81126   0.00000  Uiso   1.00
H1753  H     0.33666   0.95078   0.43334   0.00000  Uiso   1.00
H1754  H     0.38744   0.97408   0.76590   0.00000  Uiso   1.00
H1755  H     0.42717   0.94636   0.77347   0.00000  Uiso   1.00
H1756  H     0.10484   0.53803   0.20836   0.00000  Uiso   1.00
H1757  H     0.12700   0.53058   0.16261   0.00000  Uiso   1.00
H1758  H     0.08701   0.55780   0.16330   0.00000  Uiso   1.00
H1759  H     0.47593   0.58822   0.81127   0.00000  Uiso   1.00
H1760  H     0.47408   0.61256   0.76590   0.00000  Uiso   1.00
H1761  H     0.44636   0.57283   0.77347   0.00000  Uiso   1.00
H1762  H     0.03803   0.89516   0.20836   0.00000  Uiso   1.00
H1763  H     0.03058   0.87300   0.16261   0.00000  Uiso   1.00
H1764  H     0.35936   0.94735   0.48032   0.00000  Uiso   1.00
H1765  H     0.05780   0.91299   0.16330   0.00000  Uiso   1.00
H1766  H     0.33872   0.72576   0.68770   0.00000  Uiso   1.00
H1767  H     0.36263   0.72411   0.73335   0.00000  Uiso   1.00
H1768  H     0.32290   0.69647   0.72555   0.00000  Uiso   1.00
H1769  H     0.14518   0.78800   0.29135   0.00000  Uiso   1.00
H1770  H     0.12325   0.78048   0.33721   0.00000  Uiso   1.00
H1771  H     0.16323   0.80772   0.33633   0.00000  Uiso   1.00
H1772  H     0.27424   0.83872   0.68770   0.00000  Uiso   1.00
H1773  H     0.27589   0.86263   0.73335   0.00000  Uiso   1.00
H1774  H     0.30353   0.82290   0.72555   0.00000  Uiso   1.00
H1775  H     0.39326   0.97750   0.40474   0.00000  Uiso   1.00
H1776  H     0.21200   0.64518   0.29135   0.00000  Uiso   1.00
H1777  H     0.21952   0.62325   0.33721   0.00000  Uiso   1.00
H1778  H     0.19228   0.66323   0.33633   0.00000  Uiso   1.00
H1779  H     0.16128   0.77424   0.68770   0.00000  Uiso   1.00
H1780  H     0.13737   0.77589   0.73335   0.00000  Uiso   1.00
H1781  H     0.17710   0.80353   0.72555   0.00000  Uiso   1.00
H1782  H     0.35482   0.71200   0.29135   0.00000  Uiso   1.00
H1783  H     0.37675   0.71952   0.33721   0.00000  Uiso   1.00
H1784  H     0.33677   0.69228   0.33633   0.00000  Uiso   1.00
H1785  H     0.22576   0.66128   0.68770   0.00000  Uiso   1.00
H1786  H     0.41562   0.97285   0.45129   0.00000  Uiso   1.00
H1787  H     0.22411   0.63737   0.73335   0.00000  Uiso   1.00
H1788  H     0.19647   0.67710   0.72555   0.00000  Uiso   1.00
H1789  H     0.28800   0.85482   0.29135   0.00000  Uiso   1.00
H1790  H     0.28048   0.87676   0.33721   0.00000  Uiso   1.00
H1791  H     0.30772   0.83677   0.33633   0.00000  Uiso   1.00
H1792  H     0.33822   0.77407   0.31127   0.00000  Uiso   1.00
H1793  H     0.36256   0.77592   0.26590   0.00000  Uiso   1.00
H1794  H     0.32283   0.80364   0.27348   0.00000  Uiso   1.00
H1795  H     0.14516   0.71197   0.70836   0.00000  Uiso   1.00
H1796  H     0.12300   0.71942   0.66261   0.00000  Uiso   1.00
H1797  H     0.40587   0.90529   0.44869   0.00000  Uiso   1.00
H1798  H     0.16299   0.69220   0.66330   0.00000  Uiso   1.00
H1799  H     0.27407   0.66178   0.31126   0.00000  Uiso   1.00
H1800  H     0.27591   0.63744   0.26590   0.00000  Uiso   1.00
H1801  H     0.30364   0.67717   0.27347   0.00000  Uiso   1.00
H1802  H     0.21197   0.85484   0.70836   0.00000  Uiso   1.00
H1803  H     0.21942   0.87700   0.66261   0.00000  Uiso   1.00
H1804  H     0.19220   0.83701   0.66330   0.00000  Uiso   1.00
H1805  H     0.16178   0.72593   0.31127   0.00000  Uiso   1.00
H1806  H     0.13744   0.72409   0.26590   0.00000  Uiso   1.00
H1807  H     0.17717   0.69636   0.27347   0.00000  Uiso   1.00
H1808  H     0.44734   0.64063   0.48033   0.00000  Uiso   1.00
H1809  H     0.43136   0.92164   0.40737   0.00000  Uiso   1.00
H1810  H     0.35484   0.78803   0.70836   0.00000  Uiso   1.00
H1811  H     0.37700   0.78058   0.66261   0.00000  Uiso   1.00
H1812  H     0.33701   0.80780   0.66330   0.00000  Uiso   1.00
H1813  H     0.22593   0.83822   0.31127   0.00000  Uiso   1.00
H1814  H     0.22408   0.86256   0.26590   0.00000  Uiso   1.00
H1815  H     0.19636   0.82283   0.27347   0.00000  Uiso   1.00
H1816  H     0.28803   0.64516   0.70836   0.00000  Uiso   1.00
H1817  H     0.28058   0.62300   0.66261   0.00000  Uiso   1.00
H1818  H     0.30780   0.66299   0.66330   0.00000  Uiso   1.00
H1819  H     0.44034   0.85044   0.39703   0.00000  Uiso   1.00
H1820  H     0.38404   0.91027   0.40165   0.00000  Uiso   1.00
H1821  H     0.43896   0.82132   0.43836   0.00000  Uiso   1.00
H1822  H     0.42117   0.80010   0.35342   0.00000  Uiso   1.00
H1823  H     0.42066   0.76914   0.39425   0.00000  Uiso   1.00
H1824  H     0.37346   0.80747   0.42723   0.00000  Uiso   1.00
H1825  H     0.35869   0.79099   0.38035   0.00000  Uiso   1.00
H1826  H     0.37311   0.83758   0.38544   0.00000  Uiso   1.00
H1827  H     0.44233   0.64838   0.60269   0.00000  Uiso   1.00
H1828  H     0.44090   0.67712   0.56105   0.00000  Uiso   1.00
H1829  H     0.42194   0.69885   0.64568   0.00000  Uiso   1.00
H1830  H     0.42089   0.72927   0.60442   0.00000  Uiso   1.00
H1831  H     0.12796   0.96392   0.58140   0.00000  Uiso   1.00
H1832  H     0.37475   0.68923   0.57180   0.00000  Uiso   1.00
H1833  H     0.35938   0.70625   0.61825   0.00000  Uiso   1.00
H1834  H     0.37485   0.65992   0.61425   0.00000  Uiso   1.00
H1835  H     0.14957   0.94033   0.39702   0.00000  Uiso   1.00
H1836  H     0.17869   0.93895   0.43836   0.00000  Uiso   1.00
H1837  H     0.19991   0.92116   0.35342   0.00000  Uiso   1.00
H1838  H     0.23087   0.92066   0.39425   0.00000  Uiso   1.00
H1839  H     0.19254   0.87345   0.42723   0.00000  Uiso   1.00
H1840  H     0.20903   0.85868   0.38035   0.00000  Uiso   1.00
H1841  H     0.16244   0.87310   0.38544   0.00000  Uiso   1.00
H1842  H     0.17109   0.94814   0.56514   0.00000  Uiso   1.00
H1843  H     0.35163   0.94235   0.60269   0.00000  Uiso   1.00
H1844  H     0.32289   0.94091   0.56105   0.00000  Uiso   1.00
H1845  H     0.30116   0.92195   0.64569   0.00000  Uiso   1.00
H1846  H     0.27074   0.92089   0.60442   0.00000  Uiso   1.00
H1847  H     0.31079   0.87476   0.57180   0.00000  Uiso   1.00
H1848  H     0.29377   0.85939   0.61825   0.00000  Uiso   1.00
H1849  H     0.34010   0.87487   0.61425   0.00000  Uiso   1.00
H1850  H     0.05966   0.64957   0.39702   0.00000  Uiso   1.00
H1851  H     0.06105   0.67868   0.43836   0.00000  Uiso   1.00
H1852  H     0.07883   0.69990   0.35342   0.00000  Uiso   1.00
H1853  H     0.10055   0.94993   0.51573   0.00000  Uiso   1.00
H1854  H     0.07934   0.73087   0.39425   0.00000  Uiso   1.00
H1855  H     0.12654   0.69253   0.42723   0.00000  Uiso   1.00
H1856  H     0.14131   0.70902   0.38035   0.00000  Uiso   1.00
H1857  H     0.12689   0.66243   0.38544   0.00000  Uiso   1.00
H1858  H     0.05767   0.85162   0.60269   0.00000  Uiso   1.00
H1859  H     0.05911   0.82288   0.56105   0.00000  Uiso   1.00
H1860  H     0.07806   0.80115   0.64569   0.00000  Uiso   1.00
H1861  H     0.07911   0.77073   0.60442   0.00000  Uiso   1.00
H1862  H     0.12525   0.81076   0.57180   0.00000  Uiso   1.00
H1863  H     0.14062   0.79375   0.61825   0.00000  Uiso   1.00
H1864  H     0.14376   0.93239   0.49983   0.00000  Uiso   1.00
H1865  H     0.12515   0.84008   0.61425   0.00000  Uiso   1.00
H1866  H     0.35043   0.55968   0.39702   0.00000  Uiso   1.00
H1867  H     0.32131   0.56106   0.43836   0.00000  Uiso   1.00
H1868  H     0.30009   0.57884   0.35342   0.00000  Uiso   1.00
H1869  H     0.26912   0.57934   0.39425   0.00000  Uiso   1.00
H1870  H     0.30745   0.62655   0.42723   0.00000  Uiso   1.00
H1871  H     0.29096   0.64132   0.38035   0.00000  Uiso   1.00
H1872  H     0.33756   0.62691   0.38544   0.00000  Uiso   1.00
H1873  H     0.14837   0.55765   0.60269   0.00000  Uiso   1.00
H1874  H     0.17711   0.55910   0.56105   0.00000  Uiso   1.00
H1875  H     0.14220   0.88599   0.55330   0.00000  Uiso   1.00
H1876  H     0.19884   0.57806   0.64569   0.00000  Uiso   1.00
H1877  H     0.22926   0.57911   0.60442   0.00000  Uiso   1.00
H1878  H     0.18922   0.62524   0.57180   0.00000  Uiso   1.00
H1879  H     0.20623   0.64061   0.61825   0.00000  Uiso   1.00
H1880  H     0.15990   0.62514   0.61425   0.00000  Uiso   1.00
H1881  H     0.19033   0.60043   0.89703   0.00000  Uiso   1.00
H1882  H     0.18895   0.57131   0.93836   0.00000  Uiso   1.00
H1883  H     0.17117   0.55010   0.85342   0.00000  Uiso   1.00
H1884  H     0.17066   0.51913   0.89425   0.00000  Uiso   1.00
H1885  H     0.12346   0.55746   0.92723   0.00000  Uiso   1.00
H1886  H     0.10347   0.88247   0.52140   0.00000  Uiso   1.00
H1887  H     0.10868   0.54098   0.88035   0.00000  Uiso   1.00
H1888  H     0.12310   0.58757   0.88544   0.00000  Uiso   1.00
H1889  H     0.19234   0.89837   0.10269   0.00000  Uiso   1.00
H1890  H     0.19090   0.92711   0.06105   0.00000  Uiso   1.00
H1891  H     0.17194   0.94884   0.14568   0.00000  Uiso   1.00
H1892  H     0.17089   0.97927   0.10442   0.00000  Uiso   1.00
H1893  H     0.12475   0.93922   0.07180   0.00000  Uiso   1.00
H1894  H     0.10938   0.95624   0.11825   0.00000  Uiso   1.00
H1895  H     0.12486   0.90991   0.11425   0.00000  Uiso   1.00
H1896  H     0.39957   0.69033   0.89702   0.00000  Uiso   1.00
H1897  H     0.09844   0.90317   0.56877   0.00000  Uiso   1.00
H1898  H     0.42869   0.68895   0.93836   0.00000  Uiso   1.00
H1899  H     0.44991   0.67116   0.85342   0.00000  Uiso   1.00
H1900  H     0.48087   0.67066   0.89425   0.00000  Uiso   1.00
H1901  H     0.44254   0.62346   0.92723   0.00000  Uiso   1.00
H1902  H     0.45903   0.60868   0.88035   0.00000  Uiso   1.00
H1903  H     0.41243   0.62310   0.88544   0.00000  Uiso   1.00
H1904  H     0.10163   0.69234   0.10269   0.00000  Uiso   1.00
H1905  H     0.07289   0.69090   0.06105   0.00000  Uiso   1.00
H1906  H     0.05116   0.67194   0.14569   0.00000  Uiso   1.00
H1907  H     0.02074   0.67089   0.10442   0.00000  Uiso   1.00
H1908  H     0.04919   0.83667   0.43326   0.00000  Uiso   1.00
H1909  H     0.06078   0.62476   0.07180   0.00000  Uiso   1.00
H1910  H     0.04377   0.60939   0.11825   0.00000  Uiso   1.00
H1911  H     0.09009   0.62486   0.11425   0.00000  Uiso   1.00
H1912  H     0.30967   0.89957   0.89702   0.00000  Uiso   1.00
H1913  H     0.31105   0.92869   0.93836   0.00000  Uiso   1.00
H1914  H     0.32883   0.94991   0.85342   0.00000  Uiso   1.00
H1915  H     0.32934   0.98087   0.89425   0.00000  Uiso   1.00
H1916  H     0.37654   0.94254   0.92723   0.00000  Uiso   1.00
H1917  H     0.39132   0.95903   0.88035   0.00000  Uiso   1.00
H1918  H     0.37690   0.91243   0.88544   0.00000  Uiso   1.00
H1919  H     0.47748   0.60676   0.40473   0.00000  Uiso   1.00
H1920  H     0.05271   0.85928   0.48029   0.00000  Uiso   1.00
H1921  H     0.30766   0.60163   0.10269   0.00000  Uiso   1.00
H1922  H     0.30910   0.57288   0.06105   0.00000  Uiso   1.00
H1923  H     0.32806   0.55116   0.14569   0.00000  Uiso   1.00
H1924  H     0.32911   0.52073   0.10442   0.00000  Uiso   1.00
H1925  H     0.37525   0.56078   0.07180   0.00000  Uiso   1.00
H1926  H     0.39062   0.54376   0.11825   0.00000  Uiso   1.00
H1927  H     0.37514   0.59009   0.11425   0.00000  Uiso   1.00
H1928  H     0.10043   0.80967   0.89702   0.00000  Uiso   1.00
H1929  H     0.07131   0.81105   0.93836   0.00000  Uiso   1.00
H1930  H     0.05009   0.82884   0.85342   0.00000  Uiso   1.00
H1931  H     0.02249   0.89335   0.40482   0.00000  Uiso   1.00
H1932  H     0.01913   0.82934   0.89425   0.00000  Uiso   1.00
H1933  H     0.05746   0.87654   0.92723   0.00000  Uiso   1.00
H1934  H     0.04097   0.89132   0.88035   0.00000  Uiso   1.00
H1935  H     0.08756   0.87690   0.88544   0.00000  Uiso   1.00
H1936  H     0.39837   0.80766   0.10269   0.00000  Uiso   1.00
H1937  H     0.42711   0.80910   0.06105   0.00000  Uiso   1.00
H1938  H     0.44884   0.82806   0.14568   0.00000  Uiso   1.00
H1939  H     0.47926   0.82911   0.10442   0.00000  Uiso   1.00
H1940  H     0.43922   0.87524   0.07180   0.00000  Uiso   1.00
H1941  H     0.45624   0.89061   0.11825   0.00000  Uiso   1.00
H1942  H     0.02724   0.91562   0.45141   0.00000  Uiso   1.00
H1943  H     0.40991   0.87514   0.11425   0.00000  Uiso   1.00
H1944  H     0.09478   0.90578   0.44868   0.00000  Uiso   1.00
H1945  H     0.07840   0.93139   0.40746   0.00000  Uiso   1.00
H1946  H     0.08970   0.88406   0.40159   0.00000  Uiso   1.00
H1947  H     0.03607   0.62796   0.58140   0.00000  Uiso   1.00
H1948  H     0.05185   0.67109   0.56514   0.00000  Uiso   1.00
H1949  H     0.05006   0.60055   0.51573   0.00000  Uiso   1.00
H1950  H     0.06760   0.64376   0.49983   0.00000  Uiso   1.00
H1951  H     0.47284   0.58438   0.45127   0.00000  Uiso   1.00
H1952  H     0.11400   0.64220   0.55330   0.00000  Uiso   1.00
H1953  H     0.11752   0.60348   0.52139   0.00000  Uiso   1.00
H1954  H     0.09683   0.59844   0.56877   0.00000  Uiso   1.00
H1955  H     0.16334   0.54922   0.43334   0.00000  Uiso   1.00
H1956  H     0.14064   0.55266   0.48032   0.00000  Uiso   1.00
H1957  H     0.10674   0.52250   0.40474   0.00000  Uiso   1.00
H1958  H     0.08438   0.52716   0.45129   0.00000  Uiso   1.00
H1959  H     0.09413   0.59471   0.44869   0.00000  Uiso   1.00
H1960  H     0.06864   0.57836   0.40737   0.00000  Uiso   1.00
H1961  H     0.11597   0.58973   0.40165   0.00000  Uiso   1.00
H1962  H     0.40528   0.59413   0.44869   0.00000  Uiso   1.00
H1963  H     0.37204   0.53609   0.58139   0.00000  Uiso   1.00
H1964  H     0.32890   0.55186   0.56515   0.00000  Uiso   1.00
H1965  H     0.39944   0.55008   0.51573   0.00000  Uiso   1.00
H1966  H     0.35623   0.56761   0.49983   0.00000  Uiso   1.00
H1967  H     0.35778   0.61401   0.55330   0.00000  Uiso   1.00
H1968  H     0.39650   0.61754   0.52139   0.00000  Uiso   1.00
H1969  H     0.40155   0.59685   0.56876   0.00000  Uiso   1.00
H1970  H     0.20077   0.91335   0.93335   0.00000  Uiso   1.00
H1971  H     0.19734   0.89063   0.98033   0.00000  Uiso   1.00
H1972  H     0.22749   0.85676   0.90473   0.00000  Uiso   1.00
H1973  H     0.42163   0.56865   0.40735   0.00000  Uiso   1.00
H1974  H     0.22284   0.83438   0.95127   0.00000  Uiso   1.00
H1975  H     0.15529   0.84413   0.94869   0.00000  Uiso   1.00
H1976  H     0.17163   0.81865   0.90735   0.00000  Uiso   1.00
H1977  H     0.16026   0.86598   0.90166   0.00000  Uiso   1.00
H1978  H     0.21392   0.62204   0.08139   0.00000  Uiso   1.00
H1979  H     0.19814   0.57891   0.06514   0.00000  Uiso   1.00
H1980  H     0.19993   0.64945   0.01573   0.00000  Uiso   1.00
H1981  H     0.18240   0.60623   0.99983   0.00000  Uiso   1.00
H1982  H     0.13600   0.60779   0.05329   0.00000  Uiso   1.00
H1983  H     0.13247   0.64652   0.02139   0.00000  Uiso   1.00
H1984  H     0.41025   0.61598   0.40166   0.00000  Uiso   1.00
H1985  H     0.15316   0.65156   0.06876   0.00000  Uiso   1.00
H1986  H     0.08666   0.70078   0.93334   0.00000  Uiso   1.00
H1987  H     0.10936   0.69734   0.98033   0.00000  Uiso   1.00
H1988  H     0.14326   0.72750   0.90474   0.00000  Uiso   1.00
H1989  H     0.16562   0.72284   0.95129   0.00000  Uiso   1.00
H1990  H     0.15587   0.65529   0.94869   0.00000  Uiso   1.00
H1991  H     0.18136   0.67164   0.90736   0.00000  Uiso   1.00
H1992  H     0.13403   0.66027   0.90165   0.00000  Uiso   1.00
H1993  H     0.37796   0.71392   0.08139   0.00000  Uiso   1.00
H1994  H     0.42109   0.69814   0.06515   0.00000  Uiso   1.00
H1995  H     0.46394   0.87204   0.58140   0.00000  Uiso   1.00
H1996  H     0.35056   0.69993   0.01573   0.00000  Uiso   1.00
H1997  H     0.39377   0.68239   0.99983   0.00000  Uiso   1.00
H1998  H     0.39221   0.63600   0.05330   0.00000  Uiso   1.00
H1999  H     0.35348   0.63246   0.02139   0.00000  Uiso   1.00
H2000  H     0.34844   0.65316   0.06876   0.00000  Uiso   1.00
H2001  H     0.29921   0.58666   0.93332   0.00000  Uiso   1.00
H2002  H     0.30267   0.60934   0.98032   0.00000  Uiso   1.00
H2003  H     0.27250   0.64328   0.90476   0.00000  Uiso   1.00
H2004  H     0.27718   0.66562   0.95132   0.00000  Uiso   1.00
H2005  H     0.34473   0.65585   0.94869   0.00000  Uiso   1.00
H2006  H     0.44815   0.82891   0.56514   0.00000  Uiso   1.00
H2007  H     0.32837   0.68137   0.90739   0.00000  Uiso   1.00
H2008  H     0.33973   0.63404   0.90164   0.00000  Uiso   1.00
H2009  H     0.28608   0.87796   0.08139   0.00000  Uiso   1.00
H2010  H     0.30186   0.92109   0.06514   0.00000  Uiso   1.00
H2011  H     0.30007   0.85055   0.01573   0.00000  Uiso   1.00
H2012  H     0.31760   0.89377   0.99983   0.00000  Uiso   1.00
H2013  H     0.36400   0.89221   0.05329   0.00000  Uiso   1.00
H2014  H     0.36753   0.85348   0.02139   0.00000  Uiso   1.00
H2015  H     0.34684   0.84844   0.06876   0.00000  Uiso   1.00
H2016  H     0.41334   0.79922   0.93334   0.00000  Uiso   1.00
O2017  O     0.25000   0.50000   0.25000   0.00000  Uiso   1.00
O2018  O     0.25000   0.96964   0.66245   0.00000  Uiso   1.00
O2019  O     0.33205   0.61604   0.68406   0.00000  Uiso   1.00
O2020  O     0.48088   0.81236   0.39698   0.00000  Uiso   1.00
O2021  O     0.48207   0.68728   0.60299   0.00000  Uiso   1.00
O2022  O     0.18765   0.98087   0.39698   0.00000  Uiso   1.00
O2023  O     0.31272   0.98208   0.60300   0.00000  Uiso   1.00
O2024  O     0.01913   0.68765   0.39698   0.00000  Uiso   1.00
O2025  O     0.01793   0.81272   0.60300   0.00000  Uiso   1.00
O2026  O     0.31235   0.51914   0.39698   0.00000  Uiso   1.00
O2027  O     0.18728   0.51792   0.60300   0.00000  Uiso   1.00
O2028  O     0.23087   0.56235   0.89698   0.00000  Uiso   1.00
O2029  O     0.46963   0.75000   0.33755   0.00000  Uiso   1.00
O2030  O     0.23208   0.93728   0.10300   0.00000  Uiso   1.00
O2031  O     0.43765   0.73087   0.89698   0.00000  Uiso   1.00
O2032  O     0.06272   0.73208   0.10300   0.00000  Uiso   1.00
O2033  O     0.26913   0.93765   0.89698   0.00000  Uiso   1.00
O2034  O     0.26792   0.56272   0.10300   0.00000  Uiso   1.00
O2035  O     0.06235   0.76913   0.89698   0.00000  Uiso   1.00
O2036  O     0.43728   0.76792   0.10300   0.00000  Uiso   1.00
O2037  O     0.03036   0.75000   0.66245   0.00000  Uiso   1.00
O2038  O    -0.00000   0.71963   0.83755   0.00000  Uiso   1.00
O2039  O    -0.00000   0.78036   0.16245   0.00000  Uiso   1.00
O2040  O     0.28036   0.50000   0.83755   0.00000  Uiso   1.00
O2041  O     0.21963   0.50000   0.16245   0.00000  Uiso   1.00
O2042  O    -0.00000   0.78036   0.83755   0.00000  Uiso   1.00
O2043  O    -0.00000   0.71963   0.16245   0.00000  Uiso   1.00
O2044  O     0.21963   0.50000   0.83755   0.00000  Uiso   1.00
O2045  O     0.25000   0.50000   0.75000   0.00000  Uiso   1.00
O2046  O     0.28036   0.50000   0.16245   0.00000  Uiso   1.00
O2047  O     0.20724   0.57307   0.27302   0.00000  Uiso   1.00
O2048  O     0.29275   0.92693   0.72698   0.00000  Uiso   1.00
O2049  O     0.42692   0.70724   0.27302   0.00000  Uiso   1.00
O2050  O     0.07307   0.79276   0.72698   0.00000  Uiso   1.00
O2051  O     0.29275   0.92693   0.27302   0.00000  Uiso   1.00
O2052  O     0.20724   0.57307   0.72698   0.00000  Uiso   1.00
O2053  O     0.07307   0.79276   0.27302   0.00000  Uiso   1.00
O2054  O     0.42692   0.70724   0.72698   0.00000  Uiso   1.00
O2055  O     0.20724   0.92693   0.72698   0.00000  Uiso   1.00
O2056  O    -0.00000   0.75000   0.25000   0.00000  Uiso   1.00
O2057  O     0.29275   0.57307   0.27302   0.00000  Uiso   1.00
O2058  O     0.42692   0.79275   0.72698   0.00000  Uiso   1.00
O2059  O     0.07307   0.70725   0.27302   0.00000  Uiso   1.00
O2060  O     0.29275   0.57307   0.72698   0.00000  Uiso   1.00
O2061  O     0.20724   0.92693   0.27302   0.00000  Uiso   1.00
O2062  O     0.07307   0.70725   0.72698   0.00000  Uiso   1.00
O2063  O     0.42692   0.79275   0.27302   0.00000  Uiso   1.00
O2064  O     0.45724   0.82307   0.77302   0.00000  Uiso   1.00
O2065  O     0.04275   0.67693   0.22698   0.00000  Uiso   1.00
O2066  O     0.17692   0.95725   0.77302   0.00000  Uiso   1.00
O2067  O    -0.00000   0.75000   0.75000   0.00000  Uiso   1.00
O2068  O     0.32307   0.54275   0.22698   0.00000  Uiso   1.00
O2069  O     0.04275   0.67693   0.77302   0.00000  Uiso   1.00
O2070  O     0.45724   0.82307   0.22698   0.00000  Uiso   1.00
O2071  O     0.32307   0.54275   0.77302   0.00000  Uiso   1.00
O2072  O     0.17692   0.95725   0.22698   0.00000  Uiso   1.00
O2073  O     0.45724   0.67692   0.22698   0.00000  Uiso   1.00
O2074  O     0.04275   0.82308   0.77302   0.00000  Uiso   1.00
O2075  O     0.17692   0.54275   0.22698   0.00000  Uiso   1.00
O2076  O     0.32307   0.95725   0.77302   0.00000  Uiso   1.00
O2077  O     0.04275   0.82308   0.22698   0.00000  Uiso   1.00
O2078  O     0.25000   0.96964   0.33755   0.00000  Uiso   1.00
O2079  O     0.45724   0.67692   0.77302   0.00000  Uiso   1.00
O2080  O     0.32307   0.95725   0.22698   0.00000  Uiso   1.00
O2081  O     0.17692   0.54275   0.77302   0.00000  Uiso   1.00
O2082  O     0.49984   0.65071   0.46041   0.00000  Uiso   1.00
O2083  O     0.49651   0.84952   0.53954   0.00000  Uiso   1.00
O2084  O     0.34929   0.99985   0.46042   0.00000  Uiso   1.00
O2085  O     0.15048   0.99649   0.53954   0.00000  Uiso   1.00
O2086  O     0.00017   0.84929   0.46042   0.00000  Uiso   1.00
O2087  O     0.00350   0.65048   0.53954   0.00000  Uiso   1.00
O2088  O     0.15071   0.50015   0.46042   0.00000  Uiso   1.00
O2089  O     0.25000   0.53036   0.66245   0.00000  Uiso   1.00
O2090  O     0.34952   0.50351   0.53954   0.00000  Uiso   1.00
O2091  O     0.24984   0.90071   0.96042   0.00000  Uiso   1.00
O2092  O     0.24650   0.59952   0.03954   0.00000  Uiso   1.00
O2093  O     0.09929   0.74984   0.96042   0.00000  Uiso   1.00
O2094  O     0.40048   0.74649   0.03954   0.00000  Uiso   1.00
O2095  O     0.25016   0.59929   0.96042   0.00000  Uiso   1.00
O2096  O     0.25351   0.90048   0.03954   0.00000  Uiso   1.00
O2097  O     0.40071   0.75016   0.96042   0.00000  Uiso   1.00
O2098  O     0.09952   0.75351   0.03954   0.00000  Uiso   1.00
O2099  O     0.12040   0.93043   0.19528   0.00000  Uiso   1.00
O2100  O     0.03036   0.75000   0.33755   0.00000  Uiso   1.00
O2101  O     0.36616   0.58198   0.81586   0.00000  Uiso   1.00
O2102  O     0.06957   0.62040   0.19528   0.00000  Uiso   1.00
O2103  O     0.41802   0.86616   0.81586   0.00000  Uiso   1.00
O2104  O     0.37960   0.56957   0.19528   0.00000  Uiso   1.00
O2105  O     0.13384   0.91802   0.81586   0.00000  Uiso   1.00
O2106  O     0.43043   0.87960   0.19528   0.00000  Uiso   1.00
O2107  O     0.08198   0.63384   0.81586   0.00000  Uiso   1.00
O2108  O     0.12011   0.56935   0.80433   0.00000  Uiso   1.00
O2109  O     0.36604   0.91795   0.18406   0.00000  Uiso   1.00
O2110  O     0.06935   0.87989   0.80433   0.00000  Uiso   1.00
O2111  O     0.46963   0.75000   0.66245   0.00000  Uiso   1.00
O2112  O     0.41795   0.63396   0.18406   0.00000  Uiso   1.00
O2113  O     0.37989   0.93065   0.80433   0.00000  Uiso   1.00
O2114  O     0.13396   0.58205   0.18406   0.00000  Uiso   1.00
O2115  O     0.43065   0.62011   0.80433   0.00000  Uiso   1.00
O2116  O     0.08205   0.86604   0.18406   0.00000  Uiso   1.00
O2117  O     0.37040   0.68043   0.69528   0.00000  Uiso   1.00
O2118  O     0.11616   0.83198   0.31586   0.00000  Uiso   1.00
O2119  O     0.31957   0.87040   0.69528   0.00000  Uiso   1.00
O2120  O     0.16802   0.61616   0.31586   0.00000  Uiso   1.00
O2121  O     0.12960   0.81957   0.69528   0.00000  Uiso   1.00
O2122  O     0.25000   0.53036   0.33755   0.00000  Uiso   1.00
O2123  O     0.38384   0.66802   0.31586   0.00000  Uiso   1.00
O2124  O     0.18043   0.62960   0.69528   0.00000  Uiso   1.00
O2125  O     0.33198   0.88384   0.31586   0.00000  Uiso   1.00
O2126  O     0.37011   0.81935   0.30433   0.00000  Uiso   1.00
O2127  O     0.11604   0.66795   0.68406   0.00000  Uiso   1.00
O2128  O     0.31935   0.62989   0.30433   0.00000  Uiso   1.00
O2129  O     0.16795   0.88396   0.68406   0.00000  Uiso   1.00
O2130  O     0.12989   0.68065   0.30433   0.00000  Uiso   1.00
O2131  O     0.38396   0.83205   0.68406   0.00000  Uiso   1.00
O2132  O     0.18065   0.87011   0.30433   0.00000  Uiso   1.00
Zn2133 Zn    0.20659   0.50000   0.21735   0.00000  Uiso   1.00
Zn2134 Zn    0.04340   0.75000   0.28265   0.00000  Uiso   1.00
Zn2135 Zn    0.25000   0.95660   0.71735   0.00000  Uiso   1.00
Zn2136 Zn    0.25000   0.54340   0.28265   0.00000  Uiso   1.00
Zn2137 Zn    0.04340   0.75000   0.71735   0.00000  Uiso   1.00
Zn2138 Zn    0.45659   0.75000   0.28265   0.00000  Uiso   1.00
Zn2139 Zn    0.25000   0.54340   0.71735   0.00000  Uiso   1.00
Zn2140 Zn    0.25000   0.95660   0.28265   0.00000  Uiso   1.00
Zn2141 Zn    0.29340   0.50000   0.78265   0.00000  Uiso   1.00
Zn2142 Zn    0.00000   0.70660   0.21735   0.00000  Uiso   1.00
Zn2143 Zn   -0.00000   0.79340   0.78265   0.00000  Uiso   1.00
Zn2144 Zn    0.29340   0.50000   0.21735   0.00000  Uiso   1.00
Zn2145 Zn    0.20659   0.50000   0.78265   0.00000  Uiso   1.00
Zn2146 Zn   -0.00000   0.79340   0.21735   0.00000  Uiso   1.00
Zn2147 Zn   -0.00000   0.70659   0.78265   0.00000  Uiso   1.00
Zn2148 Zn    0.45659   0.75000   0.71735   0.00000  Uiso   1.00
C2149  C     0.99176   0.78211   0.41822   0.00000  Uiso   1.00
C2150  C     0.74251   0.96773   0.08185   0.00000  Uiso   1.00
C2151  C     0.71672   0.50173   0.54113   0.00000  Uiso   1.00
C2152  C     0.99708   0.78320   0.45901   0.00000  Uiso   1.00
C2153  C     0.99827   0.71672   0.54113   0.00000  Uiso   1.00
C2154  C     0.71680   0.99707   0.45901   0.00000  Uiso   1.00
C2155  C     0.78328   0.99827   0.54113   0.00000  Uiso   1.00
C2156  C     0.75292   0.96680   0.95901   0.00000  Uiso   1.00
C2157  C     0.75173   0.53328   0.04113   0.00000  Uiso   1.00
C2158  C     0.53320   0.75292   0.95901   0.00000  Uiso   1.00
C2159  C     0.96672   0.75173   0.04113   0.00000  Uiso   1.00
C2160  C     0.74708   0.53320   0.95901   0.00000  Uiso   1.00
C2161  C     0.96789   0.74176   0.91822   0.00000  Uiso   1.00
C2162  C     0.74827   0.96672   0.04113   0.00000  Uiso   1.00
C2163  C     0.96680   0.74707   0.95901   0.00000  Uiso   1.00
C2164  C     0.53328   0.74827   0.04113   0.00000  Uiso   1.00
C2165  C     0.59797   0.84800   0.24999   0.00000  Uiso   1.00
C2166  C     0.90169   0.65166   0.74995   0.00000  Uiso   1.00
C2167  C     0.65200   0.59797   0.24999   0.00000  Uiso   1.00
C2168  C     0.84834   0.90169   0.74995   0.00000  Uiso   1.00
C2169  C     0.90203   0.65200   0.24999   0.00000  Uiso   1.00
C2170  C     0.59831   0.84834   0.74995   0.00000  Uiso   1.00
C2171  C     0.84800   0.90203   0.24999   0.00000  Uiso   1.00
C2172  C     0.53227   0.74251   0.08185   0.00000  Uiso   1.00
C2173  C     0.65166   0.59831   0.74995   0.00000  Uiso   1.00
C2174  C     0.59800   0.65203   0.75000   0.00000  Uiso   1.00
C2175  C     0.90166   0.84831   0.24995   0.00000  Uiso   1.00
C2176  C     0.65203   0.90200   0.75000   0.00000  Uiso   1.00
C2177  C     0.84831   0.59834   0.24995   0.00000  Uiso   1.00
C2178  C     0.90200   0.84797   0.74999   0.00000  Uiso   1.00
C2179  C     0.59834   0.65169   0.24995   0.00000  Uiso   1.00
C2180  C     0.84797   0.59800   0.75000   0.00000  Uiso   1.00
C2181  C     0.65169   0.90166   0.24995   0.00000  Uiso   1.00
C2182  C     0.50000   0.75000   0.47955   0.00000  Uiso   1.00
C2183  C     0.75824   0.96789   0.91822   0.00000  Uiso   1.00
C2184  C     0.50000   0.75000   0.52057   0.00000  Uiso   1.00
C2185  C     0.75000   0.50000   0.47955   0.00000  Uiso   1.00
C2186  C     0.75000   0.50000   0.52057   0.00000  Uiso   1.00
C2187  C     0.75000   0.50000   0.97955   0.00000  Uiso   1.00
C2188  C     0.75000   0.50000   0.02057   0.00000  Uiso   1.00
C2189  C     0.50000   0.75000   0.97955   0.00000  Uiso   1.00
C2190  C     0.50000   0.75000   0.02057   0.00000  Uiso   1.00
C2191  C     0.96314   0.64236   0.45265   0.00000  Uiso   1.00
C2192  C     0.96117   0.60567   0.43200   0.00000  Uiso   1.00
C2193  C     0.92211   0.59559   0.42186   0.00000  Uiso   1.00
C2194  C     0.75749   0.53227   0.08185   0.00000  Uiso   1.00
C2195  C     0.96123   0.85460   0.55511   0.00000  Uiso   1.00
C2196  C     0.93670   0.87396   0.52562   0.00000  Uiso   1.00
C2197  C     0.89984   0.88299   0.54349   0.00000  Uiso   1.00
C2198  C     0.85764   0.96315   0.45265   0.00000  Uiso   1.00
C2199  C     0.89434   0.96119   0.43201   0.00000  Uiso   1.00
C2200  C     0.90442   0.92212   0.42186   0.00000  Uiso   1.00
C2201  C     0.64541   0.96122   0.55511   0.00000  Uiso   1.00
C2202  C     0.62604   0.93668   0.52562   0.00000  Uiso   1.00
C2203  C     0.61701   0.89982   0.54349   0.00000  Uiso   1.00
C2204  C     0.53687   0.85763   0.45263   0.00000  Uiso   1.00
C2205  C     0.53211   0.75824   0.91822   0.00000  Uiso   1.00
C2206  C     0.53884   0.89436   0.43207   0.00000  Uiso   1.00
C2207  C     0.57791   0.90441   0.42187   0.00000  Uiso   1.00
C2208  C     0.53877   0.64541   0.55511   0.00000  Uiso   1.00
C2209  C     0.56331   0.62604   0.52562   0.00000  Uiso   1.00
C2210  C     0.60017   0.61701   0.54349   0.00000  Uiso   1.00
C2211  C     0.64236   0.53685   0.45265   0.00000  Uiso   1.00
C2212  C     0.60566   0.53881   0.43201   0.00000  Uiso   1.00
C2213  C     0.59558   0.57788   0.42186   0.00000  Uiso   1.00
C2214  C     0.85459   0.53879   0.55511   0.00000  Uiso   1.00
C2215  C     0.87395   0.56333   0.52562   0.00000  Uiso   1.00
C2216  C     0.96773   0.75749   0.08185   0.00000  Uiso   1.00
C2217  C     0.88297   0.60019   0.54349   0.00000  Uiso   1.00
C2218  C     0.71315   0.89236   0.95265   0.00000  Uiso   1.00
C2219  C     0.71118   0.85567   0.93200   0.00000  Uiso   1.00
C2220  C     0.67211   0.84559   0.92186   0.00000  Uiso   1.00
C2221  C     0.71122   0.60459   0.05511   0.00000  Uiso   1.00
C2222  C     0.68668   0.62395   0.02562   0.00000  Uiso   1.00
C2223  C     0.64982   0.63298   0.04349   0.00000  Uiso   1.00
C2224  C     0.60764   0.71315   0.95265   0.00000  Uiso   1.00
C2225  C     0.64433   0.71118   0.93201   0.00000  Uiso   1.00
C2226  C     0.65441   0.67212   0.92186   0.00000  Uiso   1.00
C2227  C     0.50000   0.75000   0.39814   0.00000  Uiso   1.00
C2228  C     0.89541   0.71122   0.05511   0.00000  Uiso   1.00
C2229  C     0.87605   0.68668   0.02562   0.00000  Uiso   1.00
C2230  C     0.86702   0.64982   0.04349   0.00000  Uiso   1.00
C2231  C     0.78686   0.60764   0.95264   0.00000  Uiso   1.00
C2232  C     0.78883   0.64434   0.93203   0.00000  Uiso   1.00
C2233  C     0.82789   0.65441   0.92187   0.00000  Uiso   1.00
C2234  C     0.78878   0.89541   0.05511   0.00000  Uiso   1.00
C2235  C     0.81332   0.87605   0.02562   0.00000  Uiso   1.00
C2236  C     0.85018   0.86702   0.04349   0.00000  Uiso   1.00
C2237  C     0.89236   0.78685   0.95265   0.00000  Uiso   1.00
C2238  C     0.50000   0.75000   0.60192   0.00000  Uiso   1.00
C2239  C     0.85567   0.78882   0.93201   0.00000  Uiso   1.00
C2240  C     0.84559   0.82788   0.92186   0.00000  Uiso   1.00
C2241  C     0.60459   0.78878   0.05511   0.00000  Uiso   1.00
C2242  C     0.62395   0.81332   0.02562   0.00000  Uiso   1.00
C2243  C     0.63298   0.85018   0.04349   0.00000  Uiso   1.00
C2244  C     0.59777   0.95756   0.21152   0.00000  Uiso   1.00
C2245  C     0.88827   0.55094   0.81978   0.00000  Uiso   1.00
C2246  C     0.54244   0.59777   0.21152   0.00000  Uiso   1.00
C2247  C     0.94906   0.88827   0.81978   0.00000  Uiso   1.00
C2248  C     0.90223   0.54244   0.21152   0.00000  Uiso   1.00
C2249  C     0.75000   0.50000   0.39814   0.00000  Uiso   1.00
C2250  C     0.61172   0.94906   0.81978   0.00000  Uiso   1.00
C2251  C     0.95756   0.90223   0.21152   0.00000  Uiso   1.00
C2252  C     0.55094   0.61173   0.81978   0.00000  Uiso   1.00
C2253  C     0.59755   0.54239   0.78768   0.00000  Uiso   1.00
C2254  C     0.88812   0.94899   0.17999   0.00000  Uiso   1.00
C2255  C     0.54239   0.90245   0.78767   0.00000  Uiso   1.00
C2256  C     0.94899   0.61188   0.17999   0.00000  Uiso   1.00
C2257  C     0.90245   0.95761   0.78767   0.00000  Uiso   1.00
C2258  C     0.61188   0.55101   0.17999   0.00000  Uiso   1.00
C2259  C     0.95761   0.59755   0.78767   0.00000  Uiso   1.00
C2260  C     0.99251   0.71773   0.58185   0.00000  Uiso   1.00
C2261  C     0.75000   0.50000   0.60192   0.00000  Uiso   1.00
C2262  C     0.55101   0.88812   0.17999   0.00000  Uiso   1.00
C2263  C     0.84777   0.70756   0.71152   0.00000  Uiso   1.00
C2264  C     0.63827   0.80094   0.31978   0.00000  Uiso   1.00
C2265  C     0.79244   0.84777   0.71152   0.00000  Uiso   1.00
C2266  C     0.69906   0.63827   0.31978   0.00000  Uiso   1.00
C2267  C     0.65223   0.79244   0.71152   0.00000  Uiso   1.00
C2268  C     0.86173   0.69906   0.31978   0.00000  Uiso   1.00
C2269  C     0.70756   0.65223   0.71152   0.00000  Uiso   1.00
C2270  C     0.80094   0.86173   0.31978   0.00000  Uiso   1.00
C2271  C     0.84755   0.79239   0.28768   0.00000  Uiso   1.00
C2272  C     0.75000   0.50000   0.89814   0.00000  Uiso   1.00
C2273  C     0.63812   0.69899   0.67999   0.00000  Uiso   1.00
C2274  C     0.79239   0.65245   0.28767   0.00000  Uiso   1.00
C2275  C     0.69899   0.86188   0.67999   0.00000  Uiso   1.00
C2276  C     0.65245   0.70761   0.28767   0.00000  Uiso   1.00
C2277  C     0.86188   0.80101   0.67999   0.00000  Uiso   1.00
C2278  C     0.70761   0.84755   0.28767   0.00000  Uiso   1.00
C2279  C     0.80101   0.63812   0.67999   0.00000  Uiso   1.00
C2280  C     0.94457   0.82193   0.40649   0.00000  Uiso   1.00
C2281  C     0.91693   0.79789   0.38538   0.00000  Uiso   1.00
C2282  C     0.87817   0.80930   0.39527   0.00000  Uiso   1.00
C2283  C     0.75000   0.50000   0.10192   0.00000  Uiso   1.00
C2284  C     0.94610   0.67691   0.59304   0.00000  Uiso   1.00
C2285  C     0.91778   0.70054   0.61367   0.00000  Uiso   1.00
C2286  C     0.87934   0.68811   0.60382   0.00000  Uiso   1.00
C2287  C     0.67808   0.94456   0.40649   0.00000  Uiso   1.00
C2288  C     0.70212   0.91692   0.38538   0.00000  Uiso   1.00
C2289  C     0.69072   0.87816   0.39526   0.00000  Uiso   1.00
C2290  C     0.82310   0.94611   0.59304   0.00000  Uiso   1.00
C2291  C     0.79947   0.91779   0.61367   0.00000  Uiso   1.00
C2292  C     0.81191   0.87935   0.60382   0.00000  Uiso   1.00
C2293  C     0.55543   0.67807   0.40649   0.00000  Uiso   1.00
C2294  C     0.50000   0.75000   0.89814   0.00000  Uiso   1.00
C2295  C     0.58307   0.70211   0.38538   0.00000  Uiso   1.00
C2296  C     0.62183   0.69071   0.39526   0.00000  Uiso   1.00
C2297  C     0.55390   0.82309   0.59304   0.00000  Uiso   1.00
C2298  C     0.58222   0.79945   0.61367   0.00000  Uiso   1.00
C2299  C     0.62067   0.81189   0.60382   0.00000  Uiso   1.00
C2300  C     0.82192   0.55544   0.40649   0.00000  Uiso   1.00
C2301  C     0.79788   0.58308   0.38538   0.00000  Uiso   1.00
C2302  C     0.80928   0.62184   0.39526   0.00000  Uiso   1.00
C2303  C     0.67690   0.55389   0.59304   0.00000  Uiso   1.00
C2304  C     0.70053   0.58221   0.61367   0.00000  Uiso   1.00
C2305  C     0.50000   0.75000   0.10192   0.00000  Uiso   1.00
C2306  C     0.68810   0.62066   0.60382   0.00000  Uiso   1.00
C2307  C     0.69456   0.57192   0.90649   0.00000  Uiso   1.00
C2308  C     0.66692   0.54789   0.88538   0.00000  Uiso   1.00
C2309  C     0.62817   0.55929   0.89527   0.00000  Uiso   1.00
C2310  C     0.69611   0.92690   0.09304   0.00000  Uiso   1.00
C2311  C     0.66778   0.95054   0.11367   0.00000  Uiso   1.00
C2312  C     0.62934   0.93810   0.10382   0.00000  Uiso   1.00
C2313  C     0.92808   0.69456   0.90649   0.00000  Uiso   1.00
C2314  C     0.95212   0.66692   0.88538   0.00000  Uiso   1.00
C2315  C     0.94072   0.62816   0.89527   0.00000  Uiso   1.00
C2316  C     0.50119   0.68366   0.47972   0.00000  Uiso   1.00
C2317  C     0.57310   0.69611   0.09304   0.00000  Uiso   1.00
C2318  C     0.54947   0.66779   0.11367   0.00000  Uiso   1.00
C2319  C     0.56190   0.62934   0.10382   0.00000  Uiso   1.00
C2320  C     0.80544   0.92808   0.90649   0.00000  Uiso   1.00
C2321  C     0.83308   0.95212   0.88538   0.00000  Uiso   1.00
C2322  C     0.87184   0.94072   0.89526   0.00000  Uiso   1.00
C2323  C     0.80389   0.57310   0.09304   0.00000  Uiso   1.00
C2324  C     0.83222   0.54946   0.11367   0.00000  Uiso   1.00
C2325  C     0.87066   0.56190   0.10382   0.00000  Uiso   1.00
C2326  C     0.57192   0.80544   0.90649   0.00000  Uiso   1.00
C2327  C     0.99853   0.81639   0.52049   0.00000  Uiso   1.00
C2328  C     0.54788   0.83308   0.88538   0.00000  Uiso   1.00
C2329  C     0.55928   0.87184   0.89526   0.00000  Uiso   1.00
C2330  C     0.92690   0.80389   0.09304   0.00000  Uiso   1.00
C2331  C     0.95053   0.83221   0.11367   0.00000  Uiso   1.00
C2332  C     0.93810   0.87066   0.10382   0.00000  Uiso   1.00
C2333  C     0.81634   0.50120   0.47972   0.00000  Uiso   1.00
C2334  C     0.68361   0.99851   0.52049   0.00000  Uiso   1.00
C2335  C     0.99882   0.81634   0.47972   0.00000  Uiso   1.00
C2336  C     0.71789   0.99175   0.41822   0.00000  Uiso   1.00
C2337  C     0.50148   0.68361   0.52050   0.00000  Uiso   1.00
C2338  C     0.68366   0.99880   0.47972   0.00000  Uiso   1.00
C2339  C     0.81639   0.50149   0.52050   0.00000  Uiso   1.00
C2340  C     0.75119   0.93366   0.97972   0.00000  Uiso   1.00
C2341  C     0.74852   0.56639   0.02049   0.00000  Uiso   1.00
C2342  C     0.56634   0.75119   0.97972   0.00000  Uiso   1.00
C2343  C     0.93361   0.74852   0.02049   0.00000  Uiso   1.00
C2344  C     0.74881   0.56634   0.97972   0.00000  Uiso   1.00
C2345  C     0.75148   0.93361   0.02049   0.00000  Uiso   1.00
C2346  C     0.93366   0.74881   0.97972   0.00000  Uiso   1.00
C2347  C     0.78227   0.99251   0.58185   0.00000  Uiso   1.00
C2348  C     0.56639   0.75148   0.02049   0.00000  Uiso   1.00
C2349  C     0.75000   0.50000   0.35577   0.00000  Uiso   1.00
C2350  C     0.75000   0.50000   0.64426   0.00000  Uiso   1.00
C2351  C     0.50000   0.75000   0.35577   0.00000  Uiso   1.00
C2352  C     0.50000   0.75000   0.64426   0.00000  Uiso   1.00
C2353  C     0.50000   0.75000   0.85577   0.00000  Uiso   1.00
C2354  C     0.50000   0.75000   0.14426   0.00000  Uiso   1.00
C2355  C     0.75000   0.50000   0.85577   0.00000  Uiso   1.00
C2356  C     0.75000   0.50000   0.14426   0.00000  Uiso   1.00
C2357  C     0.68000   0.56999   0.25000   0.00000  Uiso   1.00
C2358  C     0.50824   0.71789   0.41822   0.00000  Uiso   1.00
C2359  C     0.82013   0.92989   0.74998   0.00000  Uiso   1.00
C2360  C     0.93001   0.68000   0.25000   0.00000  Uiso   1.00
C2361  C     0.57011   0.82013   0.74998   0.00000  Uiso   1.00
C2362  C     0.82000   0.93001   0.25000   0.00000  Uiso   1.00
C2363  C     0.67987   0.57011   0.74998   0.00000  Uiso   1.00
C2364  C     0.56999   0.82000   0.25000   0.00000  Uiso   1.00
C2365  C     0.92989   0.67987   0.74998   0.00000  Uiso   1.00
C2366  C     0.68001   0.93000   0.75000   0.00000  Uiso   1.00
C2367  C     0.82011   0.57013   0.24998   0.00000  Uiso   1.00
C2368  C     0.93000   0.81999   0.75000   0.00000  Uiso   1.00
C2369  C     0.50750   0.78227   0.58185   0.00000  Uiso   1.00
C2370  C     0.57013   0.67989   0.24998   0.00000  Uiso   1.00
C2371  C     0.81999   0.57000   0.75000   0.00000  Uiso   1.00
C2372  C     0.67989   0.92987   0.24998   0.00000  Uiso   1.00
C2373  C     0.57000   0.68001   0.75000   0.00000  Uiso   1.00
C2374  C     0.92987   0.82011   0.24998   0.00000  Uiso   1.00
C2375  C     0.62354   0.90245   0.22187   0.00000  Uiso   1.00
C2376  C     0.87313   0.59969   0.78087   0.00000  Uiso   1.00
C2377  C     0.59755   0.62354   0.22187   0.00000  Uiso   1.00
C2378  C     0.90031   0.87313   0.78087   0.00000  Uiso   1.00
C2379  C     0.87646   0.59755   0.22187   0.00000  Uiso   1.00
C2380  C     0.78211   0.50825   0.41822   0.00000  Uiso   1.00
C2381  C     0.62687   0.90031   0.78087   0.00000  Uiso   1.00
C2382  C     0.90245   0.87646   0.22186   0.00000  Uiso   1.00
C2383  C     0.59969   0.62687   0.78087   0.00000  Uiso   1.00
C2384  C     0.62349   0.59751   0.77800   0.00000  Uiso   1.00
C2385  C     0.87311   0.90031   0.21907   0.00000  Uiso   1.00
C2386  C     0.59751   0.87651   0.77800   0.00000  Uiso   1.00
C2387  C     0.90031   0.62689   0.21907   0.00000  Uiso   1.00
C2388  C     0.87651   0.90249   0.77800   0.00000  Uiso   1.00
C2389  C     0.62689   0.59969   0.21907   0.00000  Uiso   1.00
C2390  C     0.90249   0.62349   0.77800   0.00000  Uiso   1.00
C2391  C     0.71773   0.50749   0.58185   0.00000  Uiso   1.00
C2392  C     0.59969   0.87311   0.21907   0.00000  Uiso   1.00
C2393  C     0.87354   0.65245   0.72187   0.00000  Uiso   1.00
C2394  C     0.62313   0.84969   0.28087   0.00000  Uiso   1.00
C2395  C     0.84755   0.87354   0.72187   0.00000  Uiso   1.00
C2396  C     0.65031   0.62313   0.28087   0.00000  Uiso   1.00
C2397  C     0.62646   0.84755   0.72187   0.00000  Uiso   1.00
C2398  C     0.87687   0.65031   0.28087   0.00000  Uiso   1.00
C2399  C     0.65245   0.62646   0.72187   0.00000  Uiso   1.00
C2400  C     0.84969   0.87687   0.28087   0.00000  Uiso   1.00
C2401  C     0.87349   0.84751   0.27800   0.00000  Uiso   1.00
C2402  C     0.74176   0.53211   0.91822   0.00000  Uiso   1.00
C2403  C     0.62311   0.65031   0.71907   0.00000  Uiso   1.00
C2404  C     0.84751   0.62651   0.27800   0.00000  Uiso   1.00
C2405  C     0.65031   0.87689   0.71907   0.00000  Uiso   1.00
C2406  C     0.62651   0.65249   0.27800   0.00000  Uiso   1.00
C2407  C     0.87689   0.84969   0.71907   0.00000  Uiso   1.00
C2408  C     0.65249   0.87349   0.27800   0.00000  Uiso   1.00
C2409  C     0.84969   0.62311   0.71907   0.00000  Uiso   1.00
C2410  C     0.50292   0.71680   0.45901   0.00000  Uiso   1.00
C2411  C     0.50173   0.78328   0.54113   0.00000  Uiso   1.00
C2412  C     0.78320   0.50293   0.45901   0.00000  Uiso   1.00
H2413  H     0.95077   0.66335   0.43335   0.00000  Uiso   1.00
H2414  H     0.94995   0.89945   0.51573   0.00000  Uiso   1.00
H2415  H     0.89064   0.80266   0.98032   0.00000  Uiso   1.00
H2416  H     0.85674   0.77251   0.90474   0.00000  Uiso   1.00
H2417  H     0.83438   0.77716   0.95129   0.00000  Uiso   1.00
H2418  H     0.84413   0.84471   0.94869   0.00000  Uiso   1.00
H2419  H     0.81864   0.82836   0.90736   0.00000  Uiso   1.00
H2420  H     0.86597   0.83973   0.90165   0.00000  Uiso   1.00
H2421  H     0.62203   0.78608   0.08139   0.00000  Uiso   1.00
H2422  H     0.57891   0.80186   0.06514   0.00000  Uiso   1.00
H2423  H     0.64945   0.80007   0.01573   0.00000  Uiso   1.00
H2424  H     0.60624   0.81760   0.99983   0.00000  Uiso   1.00
H2425  H     0.93241   0.85624   0.49983   0.00000  Uiso   1.00
H2426  H     0.60779   0.86401   0.05329   0.00000  Uiso   1.00
H2427  H     0.64652   0.86753   0.02139   0.00000  Uiso   1.00
H2428  H     0.65155   0.84684   0.06877   0.00000  Uiso   1.00
H2429  H     0.58872   0.97576   0.18770   0.00000  Uiso   1.00
H2430  H     0.61263   0.97411   0.23335   0.00000  Uiso   1.00
H2431  H     0.57290   0.94647   0.22554   0.00000  Uiso   1.00
H2432  H     0.89518   0.53800   0.79135   0.00000  Uiso   1.00
H2433  H     0.87325   0.53048   0.83721   0.00000  Uiso   1.00
H2434  H     0.91323   0.55772   0.83633   0.00000  Uiso   1.00
H2435  H     0.52424   0.58872   0.18770   0.00000  Uiso   1.00
H2436  H     0.88601   0.85780   0.55329   0.00000  Uiso   1.00
H2437  H     0.52589   0.61263   0.23335   0.00000  Uiso   1.00
H2438  H     0.55353   0.57290   0.22555   0.00000  Uiso   1.00
H2439  H     0.96200   0.89518   0.79135   0.00000  Uiso   1.00
H2440  H     0.96952   0.87325   0.83721   0.00000  Uiso   1.00
H2441  H     0.94228   0.91323   0.83633   0.00000  Uiso   1.00
H2442  H     0.91128   0.52424   0.18770   0.00000  Uiso   1.00
H2443  H     0.88737   0.52589   0.23335   0.00000  Uiso   1.00
H2444  H     0.92710   0.55353   0.22554   0.00000  Uiso   1.00
H2445  H     0.60482   0.96200   0.79135   0.00000  Uiso   1.00
H2446  H     0.62675   0.96952   0.83721   0.00000  Uiso   1.00
H2447  H     0.88248   0.89653   0.52139   0.00000  Uiso   1.00
H2448  H     0.58677   0.94229   0.83633   0.00000  Uiso   1.00
H2449  H     0.97576   0.91128   0.18770   0.00000  Uiso   1.00
H2450  H     0.97411   0.88737   0.23334   0.00000  Uiso   1.00
H2451  H     0.94647   0.92710   0.22554   0.00000  Uiso   1.00
H2452  H     0.53800   0.60482   0.79135   0.00000  Uiso   1.00
H2453  H     0.53048   0.62675   0.83721   0.00000  Uiso   1.00
H2454  H     0.55772   0.58677   0.83633   0.00000  Uiso   1.00
H2455  H     0.58822   0.52407   0.81127   0.00000  Uiso   1.00
H2456  H     0.61256   0.52592   0.76590   0.00000  Uiso   1.00
H2457  H     0.57283   0.55364   0.77347   0.00000  Uiso   1.00
H2458  H     0.90318   0.90157   0.56877   0.00000  Uiso   1.00
H2459  H     0.89516   0.96197   0.20836   0.00000  Uiso   1.00
H2460  H     0.87300   0.96942   0.16261   0.00000  Uiso   1.00
H2461  H     0.91299   0.94220   0.16330   0.00000  Uiso   1.00
H2462  H     0.52407   0.91178   0.81126   0.00000  Uiso   1.00
H2463  H     0.52591   0.88744   0.76590   0.00000  Uiso   1.00
H2464  H     0.55364   0.92717   0.77347   0.00000  Uiso   1.00
H2465  H     0.96197   0.60484   0.20836   0.00000  Uiso   1.00
H2466  H     0.96942   0.62700   0.16261   0.00000  Uiso   1.00
H2467  H     0.94220   0.58701   0.16330   0.00000  Uiso   1.00
H2468  H     0.91178   0.97593   0.81126   0.00000  Uiso   1.00
H2469  H     0.83666   0.95078   0.43334   0.00000  Uiso   1.00
H2470  H     0.88744   0.97408   0.76590   0.00000  Uiso   1.00
H2471  H     0.92717   0.94636   0.77347   0.00000  Uiso   1.00
H2472  H     0.60484   0.53803   0.20836   0.00000  Uiso   1.00
H2473  H     0.62700   0.53058   0.16261   0.00000  Uiso   1.00
H2474  H     0.58701   0.55780   0.16330   0.00000  Uiso   1.00
H2475  H     0.97593   0.58822   0.81127   0.00000  Uiso   1.00
H2476  H     0.97408   0.61256   0.76590   0.00000  Uiso   1.00
H2477  H     0.94636   0.57283   0.77347   0.00000  Uiso   1.00
H2478  H     0.53803   0.89516   0.20836   0.00000  Uiso   1.00
H2479  H     0.53058   0.87300   0.16261   0.00000  Uiso   1.00
H2480  H     0.85936   0.94735   0.48032   0.00000  Uiso   1.00
H2481  H     0.55780   0.91299   0.16330   0.00000  Uiso   1.00
H2482  H     0.83872   0.72576   0.68770   0.00000  Uiso   1.00
H2483  H     0.86263   0.72411   0.73335   0.00000  Uiso   1.00
H2484  H     0.82290   0.69647   0.72555   0.00000  Uiso   1.00
H2485  H     0.64518   0.78800   0.29135   0.00000  Uiso   1.00
H2486  H     0.62325   0.78048   0.33721   0.00000  Uiso   1.00
H2487  H     0.66323   0.80772   0.33633   0.00000  Uiso   1.00
H2488  H     0.77424   0.83872   0.68770   0.00000  Uiso   1.00
H2489  H     0.77589   0.86263   0.73335   0.00000  Uiso   1.00
H2490  H     0.80353   0.82290   0.72555   0.00000  Uiso   1.00
H2491  H     0.89326   0.97750   0.40474   0.00000  Uiso   1.00
H2492  H     0.71200   0.64518   0.29135   0.00000  Uiso   1.00
H2493  H     0.71952   0.62325   0.33721   0.00000  Uiso   1.00
H2494  H     0.69228   0.66323   0.33633   0.00000  Uiso   1.00
H2495  H     0.66128   0.77424   0.68770   0.00000  Uiso   1.00
H2496  H     0.63737   0.77589   0.73335   0.00000  Uiso   1.00
H2497  H     0.67710   0.80353   0.72555   0.00000  Uiso   1.00
H2498  H     0.85482   0.71200   0.29135   0.00000  Uiso   1.00
H2499  H     0.87675   0.71952   0.33721   0.00000  Uiso   1.00
H2500  H     0.83677   0.69228   0.33633   0.00000  Uiso   1.00
H2501  H     0.72576   0.66128   0.68770   0.00000  Uiso   1.00
H2502  H     0.91562   0.97285   0.45129   0.00000  Uiso   1.00
H2503  H     0.72411   0.63737   0.73335   0.00000  Uiso   1.00
H2504  H     0.69647   0.67710   0.72555   0.00000  Uiso   1.00
H2505  H     0.78800   0.85482   0.29135   0.00000  Uiso   1.00
H2506  H     0.78048   0.87676   0.33721   0.00000  Uiso   1.00
H2507  H     0.80772   0.83677   0.33633   0.00000  Uiso   1.00
H2508  H     0.83822   0.77407   0.31127   0.00000  Uiso   1.00
H2509  H     0.86256   0.77592   0.26590   0.00000  Uiso   1.00
H2510  H     0.82283   0.80364   0.27348   0.00000  Uiso   1.00
H2511  H     0.64516   0.71197   0.70836   0.00000  Uiso   1.00
H2512  H     0.62300   0.71942   0.66261   0.00000  Uiso   1.00
H2513  H     0.90587   0.90529   0.44869   0.00000  Uiso   1.00
H2514  H     0.66299   0.69220   0.66330   0.00000  Uiso   1.00
H2515  H     0.77407   0.66178   0.31126   0.00000  Uiso   1.00
H2516  H     0.77591   0.63744   0.26590   0.00000  Uiso   1.00
H2517  H     0.80364   0.67717   0.27347   0.00000  Uiso   1.00
H2518  H     0.71197   0.85484   0.70836   0.00000  Uiso   1.00
H2519  H     0.71942   0.87700   0.66261   0.00000  Uiso   1.00
H2520  H     0.69220   0.83701   0.66330   0.00000  Uiso   1.00
H2521  H     0.66178   0.72593   0.31127   0.00000  Uiso   1.00
H2522  H     0.63744   0.72409   0.26590   0.00000  Uiso   1.00
H2523  H     0.67717   0.69636   0.27347   0.00000  Uiso   1.00
H2524  H     0.94734   0.64063   0.48033   0.00000  Uiso   1.00
H2525  H     0.93136   0.92164   0.40737   0.00000  Uiso   1.00
H2526  H     0.85484   0.78803   0.70836   0.00000  Uiso   1.00
H2527  H     0.87700   0.78058   0.66261   0.00000  Uiso   1.00
H2528  H     0.83701   0.80780   0.66330   0.00000  Uiso   1.00
H2529  H     0.72593   0.83822   0.31127   0.00000  Uiso   1.00
H2530  H     0.72408   0.86256   0.26590   0.00000  Uiso   1.00
H2531  H     0.69636   0.82283   0.27347   0.00000  Uiso   1.00
H2532  H     0.78803   0.64516   0.70836   0.00000  Uiso   1.00
H2533  H     0.78058   0.62300   0.66261   0.00000  Uiso   1.00
H2534  H     0.80780   0.66299   0.66330   0.00000  Uiso   1.00
H2535  H     0.94034   0.85044   0.39703   0.00000  Uiso   1.00
H2536  H     0.88404   0.91027   0.40165   0.00000  Uiso   1.00
H2537  H     0.93896   0.82132   0.43836   0.00000  Uiso   1.00
H2538  H     0.92117   0.80010   0.35342   0.00000  Uiso   1.00
H2539  H     0.92066   0.76914   0.39425   0.00000  Uiso   1.00
H2540  H     0.87346   0.80747   0.42723   0.00000  Uiso   1.00
H2541  H     0.85869   0.79099   0.38035   0.00000  Uiso   1.00
H2542  H     0.87311   0.83758   0.38544   0.00000  Uiso   1.00
H2543  H     0.94233   0.64838   0.60269   0.00000  Uiso   1.00
H2544  H     0.94090   0.67712   0.56105   0.00000  Uiso   1.00
H2545  H     0.92194   0.69885   0.64568   0.00000  Uiso   1.00
H2546  H     0.92089   0.72927   0.60442   0.00000  Uiso   1.00
H2547  H     0.62796   0.96392   0.58140   0.00000  Uiso   1.00
H2548  H     0.87475   0.68923   0.57180   0.00000  Uiso   1.00
H2549  H     0.85938   0.70625   0.61825   0.00000  Uiso   1.00
H2550  H     0.87485   0.65992   0.61425   0.00000  Uiso   1.00
H2551  H     0.64957   0.94033   0.39702   0.00000  Uiso   1.00
H2552  H     0.67869   0.93895   0.43836   0.00000  Uiso   1.00
H2553  H     0.69991   0.92116   0.35342   0.00000  Uiso   1.00
H2554  H     0.73087   0.92066   0.39425   0.00000  Uiso   1.00
H2555  H     0.69254   0.87345   0.42723   0.00000  Uiso   1.00
H2556  H     0.70903   0.85868   0.38035   0.00000  Uiso   1.00
H2557  H     0.66244   0.87310   0.38544   0.00000  Uiso   1.00
H2558  H     0.67109   0.94814   0.56514   0.00000  Uiso   1.00
H2559  H     0.85163   0.94235   0.60269   0.00000  Uiso   1.00
H2560  H     0.82289   0.94091   0.56105   0.00000  Uiso   1.00
H2561  H     0.80116   0.92195   0.64569   0.00000  Uiso   1.00
H2562  H     0.77074   0.92089   0.60442   0.00000  Uiso   1.00
H2563  H     0.81079   0.87476   0.57180   0.00000  Uiso   1.00
H2564  H     0.79377   0.85939   0.61825   0.00000  Uiso   1.00
H2565  H     0.84010   0.87487   0.61425   0.00000  Uiso   1.00
H2566  H     0.55966   0.64957   0.39702   0.00000  Uiso   1.00
H2567  H     0.56105   0.67868   0.43836   0.00000  Uiso   1.00
H2568  H     0.57883   0.69990   0.35342   0.00000  Uiso   1.00
H2569  H     0.60055   0.94993   0.51573   0.00000  Uiso   1.00
H2570  H     0.57934   0.73087   0.39425   0.00000  Uiso   1.00
H2571  H     0.62654   0.69253   0.42723   0.00000  Uiso   1.00
H2572  H     0.64131   0.70902   0.38035   0.00000  Uiso   1.00
H2573  H     0.62689   0.66243   0.38544   0.00000  Uiso   1.00
H2574  H     0.55767   0.85162   0.60269   0.00000  Uiso   1.00
H2575  H     0.55911   0.82288   0.56105   0.00000  Uiso   1.00
H2576  H     0.57806   0.80115   0.64569   0.00000  Uiso   1.00
H2577  H     0.57911   0.77073   0.60442   0.00000  Uiso   1.00
H2578  H     0.62525   0.81076   0.57180   0.00000  Uiso   1.00
H2579  H     0.64062   0.79375   0.61825   0.00000  Uiso   1.00
H2580  H     0.64376   0.93239   0.49983   0.00000  Uiso   1.00
H2581  H     0.62515   0.84008   0.61425   0.00000  Uiso   1.00
H2582  H     0.85043   0.55968   0.39702   0.00000  Uiso   1.00
H2583  H     0.82131   0.56106   0.43836   0.00000  Uiso   1.00
H2584  H     0.80009   0.57884   0.35342   0.00000  Uiso   1.00
H2585  H     0.76912   0.57934   0.39425   0.00000  Uiso   1.00
H2586  H     0.80745   0.62655   0.42723   0.00000  Uiso   1.00
H2587  H     0.79096   0.64132   0.38035   0.00000  Uiso   1.00
H2588  H     0.83756   0.62691   0.38544   0.00000  Uiso   1.00
H2589  H     0.64837   0.55765   0.60269   0.00000  Uiso   1.00
H2590  H     0.67711   0.55910   0.56105   0.00000  Uiso   1.00
H2591  H     0.64220   0.88599   0.55330   0.00000  Uiso   1.00
H2592  H     0.69884   0.57806   0.64569   0.00000  Uiso   1.00
H2593  H     0.72926   0.57911   0.60442   0.00000  Uiso   1.00
H2594  H     0.68922   0.62524   0.57180   0.00000  Uiso   1.00
H2595  H     0.70623   0.64061   0.61825   0.00000  Uiso   1.00
H2596  H     0.65990   0.62514   0.61425   0.00000  Uiso   1.00
H2597  H     0.69033   0.60043   0.89703   0.00000  Uiso   1.00
H2598  H     0.68895   0.57131   0.93836   0.00000  Uiso   1.00
H2599  H     0.67117   0.55010   0.85342   0.00000  Uiso   1.00
H2600  H     0.67066   0.51913   0.89425   0.00000  Uiso   1.00
H2601  H     0.62346   0.55746   0.92723   0.00000  Uiso   1.00
H2602  H     0.60347   0.88247   0.52140   0.00000  Uiso   1.00
H2603  H     0.60868   0.54098   0.88035   0.00000  Uiso   1.00
H2604  H     0.62310   0.58757   0.88544   0.00000  Uiso   1.00
H2605  H     0.69234   0.89837   0.10269   0.00000  Uiso   1.00
H2606  H     0.69090   0.92711   0.06105   0.00000  Uiso   1.00
H2607  H     0.67194   0.94884   0.14568   0.00000  Uiso   1.00
H2608  H     0.67089   0.97927   0.10442   0.00000  Uiso   1.00
H2609  H     0.62475   0.93922   0.07180   0.00000  Uiso   1.00
H2610  H     0.60938   0.95624   0.11825   0.00000  Uiso   1.00
H2611  H     0.62486   0.90991   0.11425   0.00000  Uiso   1.00
H2612  H     0.89957   0.69033   0.89702   0.00000  Uiso   1.00
H2613  H     0.59844   0.90317   0.56877   0.00000  Uiso   1.00
H2614  H     0.92869   0.68895   0.93836   0.00000  Uiso   1.00
H2615  H     0.94991   0.67116   0.85342   0.00000  Uiso   1.00
H2616  H     0.98087   0.67066   0.89425   0.00000  Uiso   1.00
H2617  H     0.94254   0.62346   0.92723   0.00000  Uiso   1.00
H2618  H     0.95903   0.60868   0.88035   0.00000  Uiso   1.00
H2619  H     0.91243   0.62310   0.88544   0.00000  Uiso   1.00
H2620  H     0.60163   0.69234   0.10269   0.00000  Uiso   1.00
H2621  H     0.57289   0.69090   0.06105   0.00000  Uiso   1.00
H2622  H     0.55116   0.67194   0.14569   0.00000  Uiso   1.00
H2623  H     0.52074   0.67089   0.10442   0.00000  Uiso   1.00
H2624  H     0.54919   0.83667   0.43326   0.00000  Uiso   1.00
H2625  H     0.56078   0.62476   0.07180   0.00000  Uiso   1.00
H2626  H     0.54377   0.60939   0.11825   0.00000  Uiso   1.00
H2627  H     0.59009   0.62486   0.11425   0.00000  Uiso   1.00
H2628  H     0.80967   0.89957   0.89702   0.00000  Uiso   1.00
H2629  H     0.81105   0.92869   0.93836   0.00000  Uiso   1.00
H2630  H     0.82883   0.94991   0.85342   0.00000  Uiso   1.00
H2631  H     0.82934   0.98087   0.89425   0.00000  Uiso   1.00
H2632  H     0.87654   0.94254   0.92723   0.00000  Uiso   1.00
H2633  H     0.89132   0.95903   0.88035   0.00000  Uiso   1.00
H2634  H     0.87690   0.91243   0.88544   0.00000  Uiso   1.00
H2635  H     0.97748   0.60676   0.40473   0.00000  Uiso   1.00
H2636  H     0.55271   0.85928   0.48029   0.00000  Uiso   1.00
H2637  H     0.80766   0.60163   0.10269   0.00000  Uiso   1.00
H2638  H     0.80910   0.57288   0.06105   0.00000  Uiso   1.00
H2639  H     0.82806   0.55116   0.14569   0.00000  Uiso   1.00
H2640  H     0.82911   0.52073   0.10442   0.00000  Uiso   1.00
H2641  H     0.87525   0.56078   0.07180   0.00000  Uiso   1.00
H2642  H     0.89062   0.54376   0.11825   0.00000  Uiso   1.00
H2643  H     0.87514   0.59009   0.11425   0.00000  Uiso   1.00
H2644  H     0.60043   0.80967   0.89702   0.00000  Uiso   1.00
H2645  H     0.57131   0.81105   0.93836   0.00000  Uiso   1.00
H2646  H     0.55009   0.82884   0.85342   0.00000  Uiso   1.00
H2647  H     0.52249   0.89335   0.40482   0.00000  Uiso   1.00
H2648  H     0.51913   0.82934   0.89425   0.00000  Uiso   1.00
H2649  H     0.55746   0.87654   0.92723   0.00000  Uiso   1.00
H2650  H     0.54097   0.89132   0.88035   0.00000  Uiso   1.00
H2651  H     0.58756   0.87690   0.88544   0.00000  Uiso   1.00
H2652  H     0.89837   0.80766   0.10269   0.00000  Uiso   1.00
H2653  H     0.92711   0.80910   0.06105   0.00000  Uiso   1.00
H2654  H     0.94884   0.82806   0.14568   0.00000  Uiso   1.00
H2655  H     0.97926   0.82911   0.10442   0.00000  Uiso   1.00
H2656  H     0.93922   0.87524   0.07180   0.00000  Uiso   1.00
H2657  H     0.95624   0.89061   0.11825   0.00000  Uiso   1.00
H2658  H     0.52724   0.91562   0.45141   0.00000  Uiso   1.00
H2659  H     0.90991   0.87514   0.11425   0.00000  Uiso   1.00
H2660  H     0.59478   0.90578   0.44868   0.00000  Uiso   1.00
H2661  H     0.57840   0.93139   0.40746   0.00000  Uiso   1.00
H2662  H     0.58970   0.88406   0.40159   0.00000  Uiso   1.00
H2663  H     0.53607   0.62796   0.58140   0.00000  Uiso   1.00
H2664  H     0.55185   0.67109   0.56514   0.00000  Uiso   1.00
H2665  H     0.55006   0.60055   0.51573   0.00000  Uiso   1.00
H2666  H     0.56760   0.64376   0.49983   0.00000  Uiso   1.00
H2667  H     0.97284   0.58438   0.45127   0.00000  Uiso   1.00
H2668  H     0.61400   0.64220   0.55330   0.00000  Uiso   1.00
H2669  H     0.61752   0.60348   0.52139   0.00000  Uiso   1.00
H2670  H     0.59683   0.59844   0.56877   0.00000  Uiso   1.00
H2671  H     0.66334   0.54922   0.43334   0.00000  Uiso   1.00
H2672  H     0.64064   0.55266   0.48032   0.00000  Uiso   1.00
H2673  H     0.60674   0.52250   0.40474   0.00000  Uiso   1.00
H2674  H     0.58438   0.52716   0.45129   0.00000  Uiso   1.00
H2675  H     0.59413   0.59471   0.44869   0.00000  Uiso   1.00
H2676  H     0.56864   0.57836   0.40737   0.00000  Uiso   1.00
H2677  H     0.61597   0.58973   0.40165   0.00000  Uiso   1.00
H2678  H     0.90528   0.59413   0.44869   0.00000  Uiso   1.00
H2679  H     0.87204   0.53609   0.58139   0.00000  Uiso   1.00
H2680  H     0.82890   0.55186   0.56515   0.00000  Uiso   1.00
H2681  H     0.89944   0.55008   0.51573   0.00000  Uiso   1.00
H2682  H     0.85623   0.56761   0.49983   0.00000  Uiso   1.00
H2683  H     0.85778   0.61401   0.55330   0.00000  Uiso   1.00
H2684  H     0.89650   0.61754   0.52139   0.00000  Uiso   1.00
H2685  H     0.90155   0.59685   0.56876   0.00000  Uiso   1.00
H2686  H     0.70077   0.91335   0.93335   0.00000  Uiso   1.00
H2687  H     0.69734   0.89063   0.98033   0.00000  Uiso   1.00
H2688  H     0.72749   0.85676   0.90473   0.00000  Uiso   1.00
H2689  H     0.92163   0.56865   0.40735   0.00000  Uiso   1.00
H2690  H     0.72284   0.83438   0.95127   0.00000  Uiso   1.00
H2691  H     0.65529   0.84413   0.94869   0.00000  Uiso   1.00
H2692  H     0.67163   0.81865   0.90735   0.00000  Uiso   1.00
H2693  H     0.66026   0.86598   0.90166   0.00000  Uiso   1.00
H2694  H     0.71392   0.62204   0.08139   0.00000  Uiso   1.00
H2695  H     0.69814   0.57891   0.06514   0.00000  Uiso   1.00
H2696  H     0.69993   0.64945   0.01573   0.00000  Uiso   1.00
H2697  H     0.68240   0.60623   0.99983   0.00000  Uiso   1.00
H2698  H     0.63600   0.60779   0.05329   0.00000  Uiso   1.00
H2699  H     0.63247   0.64652   0.02139   0.00000  Uiso   1.00
H2700  H     0.91025   0.61598   0.40166   0.00000  Uiso   1.00
H2701  H     0.65316   0.65156   0.06876   0.00000  Uiso   1.00
H2702  H     0.58666   0.70078   0.93334   0.00000  Uiso   1.00
H2703  H     0.60936   0.69734   0.98033   0.00000  Uiso   1.00
H2704  H     0.64326   0.72750   0.90474   0.00000  Uiso   1.00
H2705  H     0.66562   0.72284   0.95129   0.00000  Uiso   1.00
H2706  H     0.65587   0.65529   0.94869   0.00000  Uiso   1.00
H2707  H     0.68136   0.67164   0.90736   0.00000  Uiso   1.00
H2708  H     0.63403   0.66027   0.90165   0.00000  Uiso   1.00
H2709  H     0.87796   0.71392   0.08139   0.00000  Uiso   1.00
H2710  H     0.92109   0.69814   0.06515   0.00000  Uiso   1.00
H2711  H     0.96394   0.87204   0.58140   0.00000  Uiso   1.00
H2712  H     0.85056   0.69993   0.01573   0.00000  Uiso   1.00
H2713  H     0.89377   0.68239   0.99983   0.00000  Uiso   1.00
H2714  H     0.89221   0.63600   0.05330   0.00000  Uiso   1.00
H2715  H     0.85348   0.63246   0.02139   0.00000  Uiso   1.00
H2716  H     0.84844   0.65316   0.06876   0.00000  Uiso   1.00
H2717  H     0.79921   0.58666   0.93332   0.00000  Uiso   1.00
H2718  H     0.80267   0.60934   0.98032   0.00000  Uiso   1.00
H2719  H     0.77250   0.64328   0.90476   0.00000  Uiso   1.00
H2720  H     0.77718   0.66562   0.95132   0.00000  Uiso   1.00
H2721  H     0.84473   0.65585   0.94869   0.00000  Uiso   1.00
H2722  H     0.94815   0.82891   0.56514   0.00000  Uiso   1.00
H2723  H     0.82837   0.68137   0.90739   0.00000  Uiso   1.00
H2724  H     0.83973   0.63404   0.90164   0.00000  Uiso   1.00
H2725  H     0.78608   0.87796   0.08139   0.00000  Uiso   1.00
H2726  H     0.80186   0.92109   0.06514   0.00000  Uiso   1.00
H2727  H     0.80007   0.85055   0.01573   0.00000  Uiso   1.00
H2728  H     0.81760   0.89377   0.99983   0.00000  Uiso   1.00
H2729  H     0.86400   0.89221   0.05329   0.00000  Uiso   1.00
H2730  H     0.86753   0.85348   0.02139   0.00000  Uiso   1.00
H2731  H     0.84684   0.84844   0.06876   0.00000  Uiso   1.00
H2732  H     0.91334   0.79922   0.93334   0.00000  Uiso   1.00
O2733  O     0.75000   0.50000   0.25000   0.00000  Uiso   1.00
O2734  O     0.75000   0.96964   0.66245   0.00000  Uiso   1.00
O2735  O     0.83205   0.61604   0.68406   0.00000  Uiso   1.00
O2736  O     0.98088   0.81236   0.39698   0.00000  Uiso   1.00
O2737  O     0.98207   0.68728   0.60299   0.00000  Uiso   1.00
O2738  O     0.68765   0.98087   0.39698   0.00000  Uiso   1.00
O2739  O     0.81272   0.98208   0.60300   0.00000  Uiso   1.00
O2740  O     0.51913   0.68765   0.39698   0.00000  Uiso   1.00
O2741  O     0.51793   0.81272   0.60300   0.00000  Uiso   1.00
O2742  O     0.81235   0.51914   0.39698   0.00000  Uiso   1.00
O2743  O     0.68728   0.51792   0.60300   0.00000  Uiso   1.00
O2744  O     0.73087   0.56235   0.89698   0.00000  Uiso   1.00
O2745  O     0.96963   0.75000   0.33755   0.00000  Uiso   1.00
O2746  O     0.73208   0.93728   0.10300   0.00000  Uiso   1.00
O2747  O     0.93765   0.73087   0.89698   0.00000  Uiso   1.00
O2748  O     0.56272   0.73208   0.10300   0.00000  Uiso   1.00
O2749  O     0.76913   0.93765   0.89698   0.00000  Uiso   1.00
O2750  O     0.76792   0.56272   0.10300   0.00000  Uiso   1.00
O2751  O     0.56235   0.76913   0.89698   0.00000  Uiso   1.00
O2752  O     0.93728   0.76792   0.10300   0.00000  Uiso   1.00
O2753  O     0.53036   0.75000   0.66245   0.00000  Uiso   1.00
O2754  O     0.50000   0.71963   0.83755   0.00000  Uiso   1.00
O2755  O     0.50000   0.78036   0.16245   0.00000  Uiso   1.00
O2756  O     0.78036   0.50000   0.83755   0.00000  Uiso   1.00
O2757  O     0.71963   0.50000   0.16245   0.00000  Uiso   1.00
O2758  O     0.50000   0.78036   0.83755   0.00000  Uiso   1.00
O2759  O     0.50000   0.71963   0.16245   0.00000  Uiso   1.00
O2760  O     0.71963   0.50000   0.83755   0.00000  Uiso   1.00
O2761  O     0.75000   0.50000   0.75000   0.00000  Uiso   1.00
O2762  O     0.78036   0.50000   0.16245   0.00000  Uiso   1.00
O2763  O     0.70724   0.57307   0.27302   0.00000  Uiso   1.00
O2764  O     0.79275   0.92693   0.72698   0.00000  Uiso   1.00
O2765  O     0.92692   0.70724   0.27302   0.00000  Uiso   1.00
O2766  O     0.57307   0.79276   0.72698   0.00000  Uiso   1.00
O2767  O     0.79275   0.92693   0.27302   0.00000  Uiso   1.00
O2768  O     0.70724   0.57307   0.72698   0.00000  Uiso   1.00
O2769  O     0.57307   0.79276   0.27302   0.00000  Uiso   1.00
O2770  O     0.92692   0.70724   0.72698   0.00000  Uiso   1.00
O2771  O     0.70724   0.92693   0.72698   0.00000  Uiso   1.00
O2772  O     0.50000   0.75000   0.25000   0.00000  Uiso   1.00
O2773  O     0.79275   0.57307   0.27302   0.00000  Uiso   1.00
O2774  O     0.92692   0.79275   0.72698   0.00000  Uiso   1.00
O2775  O     0.57307   0.70725   0.27302   0.00000  Uiso   1.00
O2776  O     0.79275   0.57307   0.72698   0.00000  Uiso   1.00
O2777  O     0.70724   0.92693   0.27302   0.00000  Uiso   1.00
O2778  O     0.57307   0.70725   0.72698   0.00000  Uiso   1.00
O2779  O     0.92692   0.79275   0.27302   0.00000  Uiso   1.00
O2780  O     0.95724   0.82307   0.77302   0.00000  Uiso   1.00
O2781  O     0.54275   0.67693   0.22698   0.00000  Uiso   1.00
O2782  O     0.67692   0.95725   0.77302   0.00000  Uiso   1.00
O2783  O     0.50000   0.75000   0.75000   0.00000  Uiso   1.00
O2784  O     0.82307   0.54275   0.22698   0.00000  Uiso   1.00
O2785  O     0.54275   0.67693   0.77302   0.00000  Uiso   1.00
O2786  O     0.95724   0.82307   0.22698   0.00000  Uiso   1.00
O2787  O     0.82307   0.54275   0.77302   0.00000  Uiso   1.00
O2788  O     0.67692   0.95725   0.22698   0.00000  Uiso   1.00
O2789  O     0.95724   0.67692   0.22698   0.00000  Uiso   1.00
O2790  O     0.54275   0.82308   0.77302   0.00000  Uiso   1.00
O2791  O     0.67692   0.54275   0.22698   0.00000  Uiso   1.00
O2792  O     0.82307   0.95725   0.77302   0.00000  Uiso   1.00
O2793  O     0.54275   0.82308   0.22698   0.00000  Uiso   1.00
O2794  O     0.75000   0.96964   0.33755   0.00000  Uiso   1.00
O2795  O     0.95724   0.67692   0.77302   0.00000  Uiso   1.00
O2796  O     0.82307   0.95725   0.22698   0.00000  Uiso   1.00
O2797  O     0.67692   0.54275   0.77302   0.00000  Uiso   1.00
O2798  O     0.99984   0.65071   0.46041   0.00000  Uiso   1.00
O2799  O     0.99651   0.84952   0.53954   0.00000  Uiso   1.00
O2800  O     0.84929   0.99985   0.46042   0.00000  Uiso   1.00
O2801  O     0.65048   0.99649   0.53954   0.00000  Uiso   1.00
O2802  O     0.50017   0.84929   0.46042   0.00000  Uiso   1.00
O2803  O     0.50350   0.65048   0.53954   0.00000  Uiso   1.00
O2804  O     0.65071   0.50015   0.46042   0.00000  Uiso   1.00
O2805  O     0.75000   0.53036   0.66245   0.00000  Uiso   1.00
O2806  O     0.84952   0.50351   0.53954   0.00000  Uiso   1.00
O2807  O     0.74984   0.90071   0.96042   0.00000  Uiso   1.00
O2808  O     0.74650   0.59952   0.03954   0.00000  Uiso   1.00
O2809  O     0.59929   0.74984   0.96042   0.00000  Uiso   1.00
O2810  O     0.90048   0.74649   0.03954   0.00000  Uiso   1.00
O2811  O     0.75016   0.59929   0.96042   0.00000  Uiso   1.00
O2812  O     0.75351   0.90048   0.03954   0.00000  Uiso   1.00
O2813  O     0.90071   0.75016   0.96042   0.00000  Uiso   1.00
O2814  O     0.59952   0.75351   0.03954   0.00000  Uiso   1.00
O2815  O     0.62040   0.93043   0.19528   0.00000  Uiso   1.00
O2816  O     0.53036   0.75000   0.33755   0.00000  Uiso   1.00
O2817  O     0.86616   0.58198   0.81586   0.00000  Uiso   1.00
O2818  O     0.56957   0.62040   0.19528   0.00000  Uiso   1.00
O2819  O     0.91802   0.86616   0.81586   0.00000  Uiso   1.00
O2820  O     0.87960   0.56957   0.19528   0.00000  Uiso   1.00
O2821  O     0.63384   0.91802   0.81586   0.00000  Uiso   1.00
O2822  O     0.93043   0.87960   0.19528   0.00000  Uiso   1.00
O2823  O     0.58198   0.63384   0.81586   0.00000  Uiso   1.00
O2824  O     0.62011   0.56935   0.80433   0.00000  Uiso   1.00
O2825  O     0.86604   0.91795   0.18406   0.00000  Uiso   1.00
O2826  O     0.56935   0.87989   0.80433   0.00000  Uiso   1.00
O2827  O     0.96963   0.75000   0.66245   0.00000  Uiso   1.00
O2828  O     0.91795   0.63396   0.18406   0.00000  Uiso   1.00
O2829  O     0.87989   0.93065   0.80433   0.00000  Uiso   1.00
O2830  O     0.63396   0.58205   0.18406   0.00000  Uiso   1.00
O2831  O     0.93065   0.62011   0.80433   0.00000  Uiso   1.00
O2832  O     0.58205   0.86604   0.18406   0.00000  Uiso   1.00
O2833  O     0.87040   0.68043   0.69528   0.00000  Uiso   1.00
O2834  O     0.61616   0.83198   0.31586   0.00000  Uiso   1.00
O2835  O     0.81957   0.87040   0.69528   0.00000  Uiso   1.00
O2836  O     0.66802   0.61616   0.31586   0.00000  Uiso   1.00
O2837  O     0.62960   0.81957   0.69528   0.00000  Uiso   1.00
O2838  O     0.75000   0.53036   0.33755   0.00000  Uiso   1.00
O2839  O     0.88384   0.66802   0.31586   0.00000  Uiso   1.00
O2840  O     0.68043   0.62960   0.69528   0.00000  Uiso   1.00
O2841  O     0.83198   0.88384   0.31586   0.00000  Uiso   1.00
O2842  O     0.87011   0.81935   0.30433   0.00000  Uiso   1.00
O2843  O     0.61604   0.66795   0.68406   0.00000  Uiso   1.00
O2844  O     0.81935   0.62989   0.30433   0.00000  Uiso   1.00
O2845  O     0.66795   0.88396   0.68406   0.00000  Uiso   1.00
O2846  O     0.62989   0.68065   0.30433   0.00000  Uiso   1.00
O2847  O     0.88396   0.83205   0.68406   0.00000  Uiso   1.00
O2848  O     0.68065   0.87011   0.30433   0.00000  Uiso   1.00
Zn2849 Zn    0.70659   0.50000   0.21735   0.00000  Uiso   1.00
Zn2850 Zn    0.54340   0.75000   0.28265   0.00000  Uiso   1.00
Zn2851 Zn    0.75000   0.95660   0.71735   0.00000  Uiso   1.00
Zn2852 Zn    0.75000   0.54340   0.28265   0.00000  Uiso   1.00
Zn2853 Zn    0.54340   0.75000   0.71735   0.00000  Uiso   1.00
Zn2854 Zn    0.95659   0.75000   0.28265   0.00000  Uiso   1.00
Zn2855 Zn    0.75000   0.54340   0.71735   0.00000  Uiso   1.00
Zn2856 Zn    0.75000   0.95660   0.28265   0.00000  Uiso   1.00
Zn2857 Zn    0.79340   0.50000   0.78265   0.00000  Uiso   1.00
Zn2858 Zn    0.50000   0.70660   0.21735   0.00000  Uiso   1.00
Zn2859 Zn    0.50000   0.79340   0.78265   0.00000  Uiso   1.00
Zn2860 Zn    0.79340   0.50000   0.21735   0.00000  Uiso   1.00
Zn2861 Zn    0.70659   0.50000   0.78265   0.00000  Uiso   1.00
Zn2862 Zn    0.50000   0.79340   0.21735   0.00000  Uiso   1.00
Zn2863 Zn    0.50000   0.70659   0.78265   0.00000  Uiso   1.00
Zn2864 Zn    0.95659   0.75000   0.71735   0.00000  Uiso   1.00
loop_
_geom_bond_atom_site_label_1
_geom_bond_atom_site_label_2
_geom_bond_distance
_geom_bond_site_symmetry_2
_ccdc_geom_bond_type
C1     O588    1.390   .     S
C1     C4      1.412   .     A
C1     C795    1.402   .     S
C2     C14     1.412   .     A
C2     C1567   1.401   .     A
C2     O598    1.390   .     S
C3     C38     1.416   .     A
C3     C243    1.412   .     A
C3     C1618   1.415   1_545 S
C4     C187    1.414   .     A
C4     C750    1.416   .     S
C5     C112    1.412   .     A
C5     C752    1.416   .     S
C5     C905    1.415   .     S
C6     C188    1.412   .     A
C6     C190    1.414   .     A
C6     C1469   1.416   .     S
C7     C199    1.412   .     A
C7     C1470   1.416   .     S
C7     C1623   1.415   .     S
C8     C35     1.412   .     A
C8     C192    1.414   .     A
C8     C1471   1.416   .     S
C9     C193    1.415   .     A
C9     C46     1.412   .     A
C9     C40     1.416   .     A
C10    C194    1.414   .     A
C10    C57     1.412   .     A
C10    C41     1.416   .     S
C11    C195    1.415   .     A
C11    C68     1.412   .     A
C11    C758    1.416   .     A
C12    C196    1.414   .     A
C12    C254    1.412   .     A
C12    C39     1.416   .     A
C13    C15     1.412   .     A
C13    O599    1.390   .     S
C13    C862    1.402   .     A
C14    C197    1.415   .     A
C14    C1472   1.416   .     S
C15    C198    1.414   .     A
C15    C757    1.416   .     A
C16    C200    1.415   .     A
C16    C24     1.412   .     A
C16    C42     1.416   .     S
C17    C216    1.458   .     S
C17    C244    1.408   .     A
C17    C246    1.408   .     A
C18    C245    1.415   .     A
C18    C242    1.415   .     A
C18    C217    1.470   .     S
C19    C241    1.408   .     A
C19    C248    1.408   .     A
C19    C209    1.458   .     S
C20    C247    1.415   .     A
C20    C240    1.415   .     A
C20    C211    1.470   .     S
C21    C250    1.408   .     A
C21    C239    1.408   .     A
C21    C212    1.458   .     S
C22    C213    1.470   .     S
C22    C238    1.415   .     A
C22    C249    1.415   .     A
C23    C214    1.458   .     S
C23    C252    1.408   .     A
C23    C237    1.408   .     A
C24    O600    1.390   .     S
C24    C157    1.401   .     S
C25    C251    1.415   .     A
C25    C215    1.470   .     S
C25    C236    1.415   .     A
C26    C255    1.408   .     A
C26    C225    1.458   .     S
C26    C235    1.408   .     A
C27    C234    1.415   .     A
C27    C253    1.415   .     A
C27    C226    1.470   .     S
C28    C218    1.458   .     S
C28    C233    1.408   .     A
C28    C257    1.408   .     A
C29    C231    1.415   .     A
C29    C256    1.415   .     A
C29    C219    1.470   .     S
C30    C220    1.458   .     S
C30    C259    1.408   .     A
C30    C230    1.408   .     A
C31    C229    1.415   .     A
C31    C222    1.470   .     S
C31    C258    1.415   .     A
C32    C228    1.408   .     A
C32    C223    1.458   .     S
C32    C261    1.408   .     A
C33    C227    1.415   .     A
C33    C224    1.470   .     S
C33    C260    1.415   .     A
C34    C36     1.406   .     A
C34    C262    1.416   .     A
C34    C720    1.416   1_455 S
C35    O601    1.390   .     S
C35    C1556   1.402   .     S
C36    C263    1.416   .     A
C36    C721    1.416   1_455 S
C37    C38     1.406   .     A
C37    C264    1.416   .     A
C37    C1438   1.416   1_545 S
C38    C1439   1.416   1_545 S
C39    C1440   1.416   1_545 S
C39    C40     1.406   1_556 S
C40    C1446   1.416   1_545 S
C40    C39     1.406   1_554 S
C41    C731    1.416   1_455 A
C41    C42     1.406   1_556 S
C42    C727    1.416   1_455 A
C42    C41     1.406   1_554 S
C43    C44     1.528   .     S
C43    O650    1.412   .     S
C43    H376    1.115   .     S
C43    H265    1.115   .     S
C44    C45     1.527   .     S
C44    H519    1.112   .     S
C44    H487    1.112   .     S
C45    H552    1.111   .     S
C45    H530    1.110   .     S
C45    H541    1.110   .     S
C46    O602    1.390   .     S
C46    C135    1.401   .     S
C47    C48     1.532   .     S
C47    H574    1.116   .     S
C47    H563    1.111   .     S
C47    O651    1.417   .     S
C48    H277    1.110   .     S
C48    H266    1.112   .     S
C48    C49     1.527   .     S
C49    H288    1.111   .     S
C49    H299    1.110   .     S
C49    H310    1.111   .     S
C50    H332    1.115   .     S
C50    C51     1.528   .     S
C50    O652    1.412   .     S
C50    H321    1.115   .     S
C51    C52     1.527   .     S
C51    H343    1.112   .     S
C51    H354    1.112   .     S
C52    H377    1.110   .     S
C52    H365    1.110   .     S
C52    H388    1.111   .     S
C53    H410    1.116   .     S
C53    H399    1.111   .     S
C53    C54     1.532   .     S
C53    O653    1.417   .     S
C54    C55     1.527   .     S
C54    H432    1.110   .     S
C54    H421    1.112   .     S
C55    H454    1.110   .     S
C55    H443    1.111   .     S
C55    H465    1.111   .     S
C56    H488    1.115   .     S
C56    C58     1.528   .     S
C56    H476    1.115   .     S
C56    O654    1.412   .     S
C57    O603    1.390   .     S
C57    C146    1.402   .     S
C58    H499    1.112   .     S
C58    H510    1.112   .     S
C58    C59     1.527   .     S
C59    H512    1.110   .     S
C59    H513    1.110   .     S
C59    H514    1.111   .     S
C60    H516    1.116   .     S
C60    O655    1.417   .     S
C60    C61     1.532   .     S
C60    H515    1.111   .     S
C61    H518    1.110   .     S
C61    H517    1.112   .     S
C61    C62     1.527   .     S
C62    H521    1.110   .     S
C62    H522    1.111   .     S
C62    H520    1.111   .     S
C63    H524    1.115   .     S
C63    O656    1.412   .     S
C63    C64     1.528   .     S
C63    H523    1.115   .     S
C64    H526    1.112   .     S
C64    H525    1.112   .     S
C64    C65     1.527   .     S
C65    H528    1.110   .     S
C65    H529    1.111   .     S
C65    H527    1.110   .     S
C66    H531    1.111   .     S
C66    H532    1.116   .     S
C66    C67     1.532   .     S
C66    O658    1.417   .     S
C67    H534    1.110   .     S
C67    H533    1.112   .     S
C67    C69     1.527   .     S
C68    C873    1.401   .     A
C68    O604    1.390   .     S
C69    H536    1.110   .     S
C69    H537    1.111   .     S
C69    H535    1.111   .     S
C70    C71     1.528   .     S
C70    O659    1.412   .     S
C70    H538    1.115   .     S
C70    H539    1.115   .     S
C71    C72     1.527   .     S
C71    H540    1.112   .     S
C71    H542    1.112   .     S
C72    H544    1.110   .     S
C72    H545    1.111   .     S
C72    H543    1.110   .     S
C73    C74     1.532   .     S
C73    H546    1.111   .     S
C73    H547    1.116   .     S
C73    O660    1.417   .     S
C74    H548    1.112   .     S
C74    C75     1.527   .     S
C74    H549    1.110   1_554 S
C75    H553    1.111   .     S
C75    H551    1.110   .     S
C75    H550    1.111   .     S
C76    O661    1.412   .     S
C76    H555    1.115   .     S
C76    H554    1.115   .     S
C76    C77     1.528   .     S
C77    H557    1.112   .     S
C77    H556    1.112   .     S
C77    C78     1.527   .     S
C78    H558    1.110   .     S
C78    H559    1.110   .     S
C78    H560    1.111   .     S
C79    C210    1.402   .     A
C79    C717    1.402   1_455 S
C79    C203    1.452   .     S
C80    H562    1.116   .     S
C80    O662    1.417   .     S
C80    H561    1.111   .     S
C80    C81     1.532   .     S
C81    H564    1.112   .     S
C81    C82     1.527   .     S
C81    H565    1.110   1_554 S
C82    H566    1.111   .     S
C82    H567    1.110   .     S
C82    H568    1.111   .     S
C83    H569    1.115   .     S
C83    C84     1.528   .     S
C83    H570    1.115   .     S
C83    O663    1.412   .     S
C84    H571    1.112   .     S
C84    H572    1.112   .     S
C84    C85     1.527   .     S
C85    H573    1.110   .     S
C85    H575    1.110   .     S
C85    H576    1.111   .     S
C86    H578    1.116   .     S
C86    H577    1.111   .     S
C86    C87     1.532   .     S
C86    O664    1.417   .     S
C87    H579    1.112   .     S
C87    C88     1.527   .     S
C87    H580    1.110   1_554 S
C88    H581    1.111   .     S
C88    H583    1.111   .     S
C88    H582    1.110   .     S
C89    H584    1.115   .     S
C89    C91     1.528   .     S
C89    H267    1.115   .     S
C89    O665    1.412   .     S
C90    C204    1.450   .     S
C90    C221    1.401   .     A
C90    C828    1.401   1_455 S
C91    C92     1.527   .     S
C91    H269    1.112   .     S
C91    H268    1.112   .     S
C92    H271    1.110   .     S
C92    H270    1.110   .     S
C92    H272    1.111   .     S
C93    H273    1.111   .     S
C93    O666    1.417   .     S
C93    C94     1.532   .     S
C93    H274    1.116   .     S
C94    H275    1.112   .     S
C94    C95     1.527   .     S
C94    H276    1.110   1_554 S
C95    H280    1.111   .     S
C95    H278    1.111   .     S
C95    H279    1.110   .     S
C96    H281    1.108   .     S
C96    O667    1.416   .     S
C96    H283    1.113   .     S
C96    H282    1.110   .     S
C97    H284    1.114   .     S
C97    O669    1.411   .     S
C97    H286    1.109   .     S
C97    H285    1.110   .     S
C98    O670    1.416   .     S
C98    H287    1.108   .     S
C98    H290    1.113   .     S
C98    H289    1.110   .     S
C99    H292    1.110   .     S
C99    O671    1.411   .     S
C99    H293    1.109   .     S
C99    H291    1.114   .     S
C100   H295    1.110   .     S
C100   H294    1.108   .     S
C100   H296    1.113   .     S
C100   O672    1.416   .     S
C101   C232    1.402   .     A
C101   C201    1.452   .     S
C101   C1620   1.402   1_545 S
C102   H297    1.114   .     S
C102   H300    1.109   .     S
C102   H298    1.110   .     S
C102   O673    1.411   .     S
C103   H301    1.108   .     S
C103   H302    1.110   .     S
C103   H303    1.113   .     S
C103   O674    1.416   .     S
C104   O675    1.411   .     S
C104   H304    1.114   .     S
C104   H305    1.110   .     S
C104   H306    1.109   .     S
C105   H307    1.108   .     S
C105   H309    1.113   .     S
C105   H308    1.110   .     S
C105   O676    1.416   .     S
C106   H311    1.114   .     S
C106   H313    1.109   .     S
C106   H312    1.110   .     S
C106   O677    1.411   .     S
C107   H315    1.110   .     S
C107   O678    1.416   .     S
C107   H316    1.113   .     S
C107   H314    1.108   .     S
C108   H317    1.114   .     S
C108   H319    1.109   .     S
C108   O680    1.411   .     S
C108   H318    1.110   .     S
C109   H323    1.113   .     S
C109   O681    1.416   .     S
C109   H320    1.108   .     S
C109   H322    1.110   .     S
C110   H326    1.109   .     S
C110   H324    1.114   .     S
C110   H325    1.110   .     S
C110   O682    1.411   .     S
C111   O683    1.416   .     S
C111   H329    1.113   .     S
C111   H328    1.110   .     S
C111   H327    1.108   .     S
C112   O589    1.390   .     S
C112   C806    1.401   .     S
C113   C243    1.401   .     A
C113   C1631   1.401   1_545 S
C113   C202    1.450   .     S
C114   H333    1.109   .     S
C114   H330    1.114   .     S
C114   O684    1.411   .     S
C114   H331    1.110   .     S
C115   H335    1.110   .     S
C115   O685    1.416   .     S
C115   H336    1.113   .     S
C115   H334    1.108   .     S
C116   H337    1.114   .     S
C116   O686    1.411   .     S
C116   H339    1.109   .     S
C116   H338    1.110   .     S
C117   H342    1.113   .     S
C117   H341    1.110   .     S
C117   H340    1.108   .     S
C117   O687    1.416   .     S
C118   H344    1.114   .     S
C118   O688    1.411   .     S
C118   H346    1.109   .     S
C118   H345    1.110   .     S
C119   H347    1.108   .     S
C119   H349    1.113   .     S
C119   O689    1.416   .     S
C119   H348    1.110   .     S
C120   O691    1.411   .     S
C120   H351    1.110   .     S
C120   H350    1.114   .     S
C120   H352    1.109   .     S
C121   H355    1.110   .     S
C121   O692    1.416   .     S
C121   H356    1.113   .     S
C121   H353    1.108   .     S
C122   H359    1.109   .     S
C122   H357    1.114   .     S
C122   O693    1.411   .     S
C122   H358    1.110   .     S
C123   H361    1.110   .     S
C123   O694    1.416   .     S
C123   H360    1.108   .     S
C123   H362    1.113   .     S
C124   C254    1.402   .     A
C124   C207    1.452   .     S
C124   C1467   1.402   1_545 S
C125   H364    1.110   .     S
C125   O695    1.411   .     S
C125   H363    1.114   .     S
C125   H366    1.109   .     S
C126   O696    1.416   .     S
C126   H367    1.108   .     S
C126   H369    1.113   .     S
C126   H368    1.110   .     S
C127   H372    1.109   .     S
C127   H370    1.114   .     S
C127   H371    1.110   .     S
C127   O697    1.411   .     S
C128   H373    1.108   .     S
C128   H375    1.113   .     S
C128   O698    1.416   .     S
C128   H374    1.110   .     S
C129   H378    1.114   .     S
C129   H380    1.109   .     S
C129   H379    1.110   .     S
C129   O699    1.411   .     S
C130   O700    1.416   .     S
C130   H383    1.113   .     S
C130   H381    1.108   .     S
C130   H382    1.110   .     S
C131   H384    1.114   .     S
C131   H386    1.109   .     S
C131   O587    1.411   .     S
C131   H385    1.110   .     S
C132   H387    1.110   .     S
C132   H389    1.112   .     S
C132   O588    1.421   .     S
C132   C133    1.531   .     S
C133   H390    1.109   .     S
C133   H391    1.111   .     S
C133   C134    1.527   .     S
C134   H393    1.110   .     S
C134   H392    1.111   .     S
C134   H394    1.111   .     S
C135   C1434   1.401   1_545 A
C135   C208    1.450   .     S
C136   H395    1.111   .     S
C136   C137    1.532   .     S
C136   O589    1.421   .     S
C136   H396    1.113   .     S
C137   H397    1.109   .     S
C137   H398    1.111   .     S
C137   C138    1.527   .     S
C138   H402    1.111   .     S
C138   H401    1.110   .     S
C138   H400    1.111   .     S
C139   H403    1.110   .     S
C139   C140    1.531   .     S
C139   O590    1.421   .     S
C139   H404    1.112   .     S
C140   C141    1.527   .     S
C140   H406    1.111   .     S
C140   H405    1.109   .     S
C141   H409    1.111   .     S
C141   H407    1.111   .     S
C141   H408    1.110   .     S
C142   H411    1.111   .     S
C142   C143    1.532   .     S
C142   H412    1.113   .     S
C142   O591    1.421   .     S
C143   C144    1.527   .     S
C143   H414    1.111   .     S
C143   H413    1.109   .     S
C144   H417    1.111   .     S
C144   H415    1.111   .     S
C144   H416    1.110   .     S
C145   O592    1.421   .     S
C145   H418    1.111   .     S
C145   C147    1.531   .     S
C145   H419    1.112   .     S
C146   C205    1.452   .     S
C146   C729    1.402   1_455 A
C147   H422    1.111   .     S
C147   C148    1.527   .     S
C147   H420    1.109   .     S
C148   H424    1.110   .     S
C148   H425    1.111   .     S
C148   H423    1.111   .     S
C149   H426    1.111   .     S
C149   O593    1.421   .     S
C149   C150    1.532   .     S
C149   H427    1.113   .     S
C150   H429    1.111   .     S
C150   C151    1.527   .     S
C150   H428    1.109   .     S
C151   H431    1.110   .     S
C151   H430    1.111   .     S
C151   H433    1.111   .     S
C152   H435    1.112   .     S
C152   C153    1.531   .     S
C152   H434    1.111   .     S
C152   O594    1.421   .     S
C153   H437    1.111   .     S
C153   H436    1.109   .     S
C153   C154    1.527   .     S
C154   H439    1.110   .     S
C154   H440    1.111   .     S
C154   H438    1.111   .     S
C155   C156    1.532   .     S
C155   O595    1.421   .     S
C155   H441    1.111   .     S
C155   H442    1.113   .     S
C156   C158    1.527   .     S
C156   H445    1.111   .     S
C156   H444    1.109   .     S
C157   C784    1.401   1_455 A
C157   C206    1.450   .     S
C158   H447    1.110   .     S
C158   H448    1.111   .     S
C158   H446    1.111   .     S
C159   H449    1.110   .     S
C159   O596    1.421   .     S
C159   H450    1.112   .     S
C159   C160    1.531   .     S
C160   H452    1.111   .     S
C160   H451    1.109   .     S
C160   C161    1.527   .     S
C161   H456    1.111   .     S
C161   H453    1.111   .     S
C161   H455    1.110   .     S
C162   H457    1.111   .     S
C162   O598    1.421   .     S
C162   C163    1.532   .     S
C162   H458    1.113   .     S
C163   H459    1.109   .     S
C163   C164    1.527   .     S
C163   H460    1.111   .     S
C164   H461    1.111   .     S
C164   H463    1.111   .     S
C164   H462    1.110   .     S
C165   H464    1.110   .     S
C165   O599    1.421   .     S
C165   C166    1.531   .     S
C165   H466    1.112   .     S
C166   H467    1.109   .     S
C166   H468    1.111   .     S
C166   C167    1.527   .     S
C167   H469    1.111   .     S
C167   H470    1.110   .     S
C167   H471    1.111   .     S
C168   C262    1.414   .     A
C168   C189    1.397   .     A
C168   O1366   1.383   1_455 S
C169   H473    1.113   .     S
C169   O600    1.421   .     S
C169   H472    1.111   .     S
C169   C170    1.532   .     S
C170   H475    1.111   .     S
C170   C171    1.527   .     S
C170   H474    1.109   .     S
C171   H478    1.110   .     S
C171   H477    1.111   .     S
C171   H479    1.111   .     S
C172   H480    1.110   .     S
C172   O601    1.421   .     S
C172   H481    1.112   .     S
C172   C173    1.531   .     S
C173   C174    1.527   .     S
C173   H483    1.111   .     S
C173   H482    1.109   .     S
C174   H485    1.110   .     S
C174   H486    1.111   .     S
C174   H484    1.111   .     S
C175   C176    1.532   .     S
C175   H490    1.113   .     S
C175   O602    1.421   .     S
C175   H489    1.111   .     S
C176   H491    1.109   .     S
C176   H492    1.111   .     S
C176   C177    1.527   .     S
C177   H494    1.110   .     S
C177   H493    1.111   .     S
C177   H495    1.111   .     S
C178   H496    1.110   .     S
C178   O603    1.421   .     S
C178   H497    1.112   .     S
C178   C180    1.531   .     S
C179   O651    1.386   .     S
C179   C187    1.397   .     A
C179   C979    1.415   .     S
C180   H498    1.109   .     S
C180   H500    1.111   .     S
C180   C181    1.527   .     S
C181   H501    1.111   .     S
C181   H503    1.111   .     S
C181   H502    1.110   .     S
C182   C183    1.532   .     S
C182   H505    1.113   .     S
C182   H504    1.111   .     S
C182   O604    1.421   .     S
C183   H507    1.111   .     S
C183   C184    1.527   .     S
C183   H506    1.109   .     S
C184   H509    1.110   .     S
C184   H508    1.111   .     S
C184   H511    1.111   .     S
C185   C191    1.397   .     A
C185   C264    1.414   .     A
C185   O2084   1.383   1_545 S
C186   C190    1.397   .     A
C186   O653    1.386   .     S
C186   C1435   1.415   .     S
C187   O1370   1.383   .     S
C188   O590    1.390   .     S
C188   C1533   1.402   .     S
C189   O655    1.386   .     S
C189   C721    1.415   1_455 S
C190   O2088   1.383   .     S
C191   O658    1.386   .     S
C191   C1439   1.415   1_545 S
C192   O659    1.383   .     S
C192   C197    1.397   1_556 S
C193   O660    1.386   .     S
C193   C196    1.397   1_554 S
C194   O661    1.383   .     S
C194   C200    1.397   1_556 S
C195   O662    1.386   .     S
C195   C198    1.397   1_554 S
C196   O663    1.383   .     S
C196   C193    1.397   1_556 S
C197   O664    1.386   .     S
C197   C192    1.397   1_554 S
C198   O665    1.383   .     S
C198   C195    1.397   1_556 S
C199   O591    1.390   .     S
C199   C1545   1.401   .     S
C200   O666    1.386   .     S
C200   C194    1.397   1_554 S
C201   O690    1.281   .     A
C201   O2078   1.281   1_545 S
C202   O2018   1.281   1_545 A
C202   O657    1.281   .     S
C203   O1313   1.281   1_455 A
C203   O668    1.281   .     S
C204   O605    1.281   .     A
C204   O1395   1.281   1_455 S
C205   O610    1.281   .     A
C205   O606    1.281   .     A
C206   O611    1.281   .     A
C206   O607    1.281   .     A
C207   O612    1.281   .     A
C207   O608    1.281   .     A
C208   O609    1.281   .     S
C208   O614    1.281   .     S
C209   O615    1.282   .     A
C209   O643    1.282   .     A
C210   C262    1.412   .     A
C210   O592    1.390   .     S
C211   O616    1.285   .     A
C211   O644    1.285   .     A
C212   O617    1.282   .     A
C212   O641    1.282   .     A
C213   O618    1.285   .     A
C213   O642    1.285   .     A
C214   O619    1.282   .     A
C214   O648    1.282   .     A
C215   O649    1.285   .     A
C215   O620    1.285   .     A
C216   O645    1.282   .     A
C216   O621    1.282   .     A
C217   O647    1.285   .     A
C217   O622    1.285   .     A
C218   O634    1.282   .     A
C218   O623    1.282   .     A
C219   O625    1.285   .     A
C219   O636    1.285   .     A
C220   O626    1.282   .     A
C220   O632    1.282   .     A
C221   C263    1.412   .     A
C221   O593    1.390   .     S
C222   O627    1.285   .     A
C222   O633    1.285   .     A
C223   O628    1.282   .     A
C223   O639    1.282   .     A
C224   O629    1.285   .     A
C224   O640    1.285   .     A
C225   O630    1.282   .     A
C225   O637    1.282   .     A
C226   O638    1.285   .     A
C226   O631    1.285   .     A
C227   O667    1.381   .     S
C227   C244    1.397   .     A
C228   O669    1.389   .     S
C228   C242    1.396   .     A
C229   O670    1.381   .     S
C229   C241    1.397   .     A
C230   O671    1.389   .     S
C230   C240    1.396   .     A
C231   O672    1.381   .     S
C231   C239    1.397   .     A
C232   O594    1.390   .     S
C232   C264    1.412   .     A
C233   C238    1.396   .     A
C233   O673    1.389   .     S
C234   C237    1.397   .     A
C234   O674    1.381   .     S
C235   C236    1.396   .     A
C235   O675    1.389   .     S
C236   O676    1.381   .     S
C237   O677    1.389   .     S
C238   O678    1.381   .     S
C239   O680    1.389   .     S
C240   O681    1.381   .     S
C241   O682    1.389   .     S
C242   O683    1.381   .     S
C243   O595    1.390   .     S
C244   O684    1.389   .     S
C245   C261    1.397   .     A
C245   O685    1.381   .     S
C246   O686    1.389   .     S
C246   C260    1.396   .     A
C247   O687    1.381   .     S
C247   C259    1.397   .     A
C248   C258    1.396   .     A
C248   O688    1.389   .     S
C249   C257    1.397   .     A
C249   O689    1.381   .     S
C250   O691    1.389   .     S
C250   C256    1.396   .     A
C251   O692    1.381   .     S
C251   C255    1.397   .     A
C252   O693    1.389   .     S
C252   C253    1.396   .     A
C253   O694    1.381   .     S
C254   O596    1.390   .     S
C255   O695    1.389   .     S
C256   O696    1.381   .     S
C257   O697    1.389   .     S
C258   O698    1.381   .     S
C259   O699    1.389   .     S
C260   O700    1.381   .     S
C261   O587    1.389   .     S
C263   C895    1.415   1_455 S
H276   C94     1.110   1_556 S
H549   C74     1.110   1_556 S
H565   C81     1.110   1_556 S
H580   C87     1.110   1_556 S
O585   Zn712   1.952   .     S
O585   Zn701   1.952   .     S
O585   Zn704   1.952   .     S
O585   Zn2140  1.952   1_545 S
O586   C1634   1.281   .     A
O586   Zn703   1.942   .     S
O597   C919    1.281   .     A
O597   Zn706   1.942   .     S
O605   Zn705   1.942   .     S
O606   Zn715   1.942   .     S
O607   Zn714   1.942   .     S
O608   Zn709   1.942   .     S
O609   Zn701   1.942   .     S
O610   Zn711   1.942   .     S
O611   Zn710   1.942   .     S
O612   Zn713   1.942   .     S
O613   Zn713   1.952   .     S
O613   Zn709   1.952   .     S
O613   Zn707   1.952   .     S
O613   Zn2135  1.952   1_545 S
O614   Zn712   1.942   .     S
O615   Zn704   1.946   .     S
O616   Zn703   1.946   .     S
O617   Zn706   1.946   .     S
O618   Zn705   1.946   .     S
O619   Zn708   1.946   .     S
O620   Zn707   1.946   .     S
O621   Zn702   1.946   .     S
O622   Zn716   1.946   .     S
O623   Zn703   1.946   .     S
O624   Zn714   1.952   .     S
O624   Zn1422  1.952   1_455 S
O624   Zn702   1.952   .     S
O624   Zn710   1.952   .     S
O625   Zn704   1.946   .     S
O626   Zn716   1.946   .     S
O627   Zn702   1.946   .     S
O628   Zn707   1.946   .     S
O629   Zn708   1.946   .     S
O630   Zn705   1.946   .     S
O631   Zn706   1.946   .     S
O632   Zn1427  1.946   .     S
O633   Zn710   1.946   .     S
O634   Zn2145  1.946   .     S
O635   Zn1432  1.952   1_455 S
O635   Zn715   1.952   .     S
O635   Zn711   1.952   .     S
O635   Zn705   1.952   .     S
O636   Zn712   1.946   .     S
O637   Zn715   1.946   .     S
O638   Zn1430  1.946   .     S
O639   Zn709   1.946   .     S
O640   Zn2133  1.946   .     S
O641   Zn1426  1.946   .     S
O642   Zn711   1.946   .     S
O643   Zn701   1.946   .     S
O644   Zn2141  1.946   .     S
O645   Zn714   1.946   .     S
O646   Zn708   1.942   .     S
O646   C1633   1.281   .     S
O647   Zn1431  1.946   .     S
O648   Zn2144  1.946   .     S
O649   Zn713   1.946   .     S
O650   C884    1.383   .     S
O652   C1617   1.383   .     S
O654   C903    1.383   1_455 S
O656   C1622   1.383   1_545 S
O657   Zn707   1.942   .     S
O668   Zn702   1.942   .     S
O679   Zn716   1.942   .     S
O679   C920    1.281   .     S
O690   Zn704   1.942   .     S
Zn701  O2072   1.946   1_545 S
Zn703  O2045   1.952   .     S
Zn706  O1340   1.952   .     S
Zn708  O2017   1.952   .     S
Zn709  O2076   1.946   1_545 S
Zn710  O1357   1.946   1_455 S
Zn711  O1348   1.946   1_455 S
Zn712  O2080   1.946   1_545 S
Zn713  O2066   1.946   1_545 S
Zn714  O1354   1.946   1_455 S
Zn715  O1363   1.946   1_455 S
Zn716  O1351   1.952   .     S
C717   O1304   1.390   .     S
C717   C720    1.412   .     A
C717   C79     1.402   1_655 S
C718   C730    1.412   .     A
C718   C2283   1.401   .     A
C718   O1314   1.390   .     S
C719   C754    1.416   .     A
C719   C959    1.412   .     A
C719   C2334   1.415   1_545 S
C720   C903    1.414   .     A
C720   C34     1.416   1_655 S
C721   C828    1.412   .     A
C721   C36     1.416   1_655 S
C721   C189    1.415   1_655 S
C722   C904    1.412   .     A
C722   C906    1.414   .     A
C722   C2185   1.416   .     S
C723   C915    1.412   .     A
C723   C2186   1.416   .     S
C723   C2339   1.415   .     S
C724   C751    1.412   .     A
C724   C908    1.414   .     A
C724   C2187   1.416   .     S
C725   C909    1.415   .     A
C725   C762    1.412   .     A
C725   C756    1.416   .     A
C726   C910    1.414   .     A
C726   C773    1.412   .     A
C726   C757    1.416   .     S
C727   C911    1.415   .     A
C727   C784    1.412   .     A
C727   C42     1.416   1_655 A
C728   C912    1.414   .     A
C728   C970    1.412   .     A
C728   C755    1.416   .     A
C729   C731    1.412   .     A
C729   O1315   1.390   .     S
C729   C146    1.402   1_655 A
C730   C913    1.415   .     A
C730   C2188   1.416   .     S
C731   C914    1.414   .     A
C731   C41     1.416   1_655 A
C732   C916    1.415   .     A
C732   C740    1.412   .     A
C732   C758    1.416   .     S
C733   C932    1.458   .     S
C733   C960    1.408   .     A
C733   C962    1.408   .     A
C734   C961    1.415   .     A
C734   C958    1.415   .     A
C734   C933    1.470   .     S
C735   C957    1.408   .     A
C735   C964    1.408   .     A
C735   C925    1.458   .     S
C736   C963    1.415   .     A
C736   C956    1.415   .     A
C736   C927    1.470   .     S
C737   C966    1.408   .     A
C737   C955    1.408   .     A
C737   C928    1.458   .     S
C738   C929    1.470   .     S
C738   C954    1.415   .     A
C738   C965    1.415   .     A
C739   C930    1.458   .     S
C739   C968    1.408   .     A
C739   C953    1.408   .     A
C740   O1316   1.390   .     S
C740   C873    1.401   .     S
C741   C967    1.415   .     A
C741   C931    1.470   .     S
C741   C952    1.415   .     A
C742   C971    1.408   .     A
C742   C941    1.458   .     S
C742   C951    1.408   .     A
C743   C950    1.415   .     A
C743   C969    1.415   .     A
C743   C942    1.470   .     S
C744   C934    1.458   .     S
C744   C949    1.408   .     A
C744   C973    1.408   .     A
C745   C947    1.415   .     A
C745   C972    1.415   .     A
C745   C935    1.470   .     S
C746   C936    1.458   .     S
C746   C975    1.408   .     A
C746   C946    1.408   .     A
C747   C945    1.415   .     A
C747   C938    1.470   .     S
C747   C974    1.415   .     A
C748   C944    1.408   .     A
C748   C939    1.458   .     S
C748   C977    1.408   .     A
C749   C943    1.415   .     A
C749   C940    1.470   .     S
C749   C976    1.415   .     A
C750   C752    1.406   .     A
C750   C978    1.416   .     A
C751   O1317   1.390   .     S
C751   C2272   1.402   .     S
C752   C979    1.416   .     A
C753   C754    1.406   .     A
C753   C980    1.416   .     A
C753   C2154   1.416   1_545 S
C754   C2155   1.416   1_545 S
C755   C2156   1.416   1_545 S
C755   C756    1.406   1_556 S
C756   C2162   1.416   1_545 S
C756   C755    1.406   1_554 S
C757   C758    1.406   1_556 S
C758   C757    1.406   1_554 S
C759   C760    1.528   .     S
C759   O1366   1.412   .     S
C759   H1092   1.115   .     S
C759   H981    1.115   .     S
C760   C761    1.527   .     S
C760   H1235   1.112   .     S
C760   H1203   1.112   .     S
C761   H1268   1.111   .     S
C761   H1246   1.110   .     S
C761   H1257   1.110   .     S
C762   O1318   1.390   .     S
C762   C851    1.401   .     S
C763   C764    1.532   .     S
C763   H1290   1.116   .     S
C763   H1279   1.111   .     S
C763   O1367   1.417   .     S
C764   H993    1.110   .     S
C764   H982    1.112   .     S
C764   C765    1.527   .     S
C765   H1004   1.111   .     S
C765   H1015   1.110   .     S
C765   H1026   1.111   .     S
C766   H1048   1.115   .     S
C766   C767    1.528   .     S
C766   O1368   1.412   .     S
C766   H1037   1.115   .     S
C767   C768    1.527   .     S
C767   H1059   1.112   .     S
C767   H1070   1.112   .     S
C768   H1093   1.110   .     S
C768   H1081   1.110   .     S
C768   H1104   1.111   .     S
C769   H1126   1.116   .     S
C769   H1115   1.111   .     S
C769   C770    1.532   .     S
C769   O1369   1.417   .     S
C770   C771    1.527   .     S
C770   H1148   1.110   .     S
C770   H1137   1.112   .     S
C771   H1170   1.110   .     S
C771   H1159   1.111   .     S
C771   H1181   1.111   .     S
C772   H1204   1.115   .     S
C772   C774    1.528   .     S
C772   H1192   1.115   .     S
C772   O1370   1.412   .     S
C773   O1319   1.390   .     S
C773   C862    1.402   .     S
C774   H1215   1.112   .     S
C774   H1226   1.112   .     S
C774   C775    1.527   .     S
C775   H1228   1.110   .     S
C775   H1229   1.110   .     S
C775   H1230   1.111   .     S
C776   H1232   1.116   .     S
C776   O1371   1.417   .     S
C776   C777    1.532   .     S
C776   H1231   1.111   .     S
C777   H1234   1.110   .     S
C777   H1233   1.112   .     S
C777   C778    1.527   .     S
C778   H1237   1.110   .     S
C778   H1238   1.111   .     S
C778   H1236   1.111   .     S
C779   H1240   1.115   .     S
C779   O1372   1.412   .     S
C779   C780    1.528   .     S
C779   H1239   1.115   .     S
C780   H1242   1.112   .     S
C780   H1241   1.112   .     S
C780   C781    1.527   .     S
C781   H1244   1.110   .     S
C781   H1245   1.111   .     S
C781   H1243   1.110   .     S
C782   H1247   1.111   .     S
C782   H1248   1.116   .     S
C782   C783    1.532   .     S
C782   O1374   1.417   .     S
C783   H1250   1.110   .     S
C783   H1249   1.112   .     S
C783   C785    1.527   .     S
C784   C157    1.401   1_655 A
C784   O1320   1.390   .     S
C785   H1252   1.110   .     S
C785   H1253   1.111   .     S
C785   H1251   1.111   .     S
C786   C787    1.528   .     S
C786   O1375   1.412   .     S
C786   H1254   1.115   .     S
C786   H1255   1.115   .     S
C787   C788    1.527   .     S
C787   H1256   1.112   .     S
C787   H1258   1.112   .     S
C788   H1260   1.110   .     S
C788   H1261   1.111   .     S
C788   H1259   1.110   .     S
C789   C790    1.532   .     S
C789   H1262   1.111   .     S
C789   H1263   1.116   .     S
C789   O1376   1.417   .     S
C790   H1264   1.112   .     S
C790   C791    1.527   .     S
C790   H1265   1.110   1_554 S
C791   H1269   1.111   .     S
C791   H1267   1.110   .     S
C791   H1266   1.111   .     S
C792   O1377   1.412   .     S
C792   H1271   1.115   .     S
C792   H1270   1.115   .     S
C792   C793    1.528   .     S
C793   H1273   1.112   .     S
C793   H1272   1.112   .     S
C793   C794    1.527   .     S
C794   H1274   1.110   .     S
C794   H1275   1.110   .     S
C794   H1276   1.111   .     S
C795   C926    1.402   .     A
C795   C919    1.452   .     S
C796   H1278   1.116   .     S
C796   O1378   1.417   .     S
C796   H1277   1.111   .     S
C796   C797    1.532   .     S
C797   H1280   1.112   .     S
C797   C798    1.527   .     S
C797   H1281   1.110   1_554 S
C798   H1282   1.111   .     S
C798   H1283   1.110   .     S
C798   H1284   1.111   .     S
C799   H1285   1.115   .     S
C799   C800    1.528   .     S
C799   H1286   1.115   .     S
C799   O1379   1.412   .     S
C800   H1287   1.112   .     S
C800   H1288   1.112   .     S
C800   C801    1.527   .     S
C801   H1289   1.110   .     S
C801   H1291   1.110   .     S
C801   H1292   1.111   .     S
C802   H1294   1.116   .     S
C802   H1293   1.111   .     S
C802   C803    1.532   .     S
C802   O1380   1.417   .     S
C803   H1295   1.112   .     S
C803   C804    1.527   .     S
C803   H1296   1.110   1_554 S
C804   H1297   1.111   .     S
C804   H1299   1.111   .     S
C804   H1298   1.110   .     S
C805   H1300   1.115   .     S
C805   C807    1.528   .     S
C805   H983    1.115   .     S
C805   O1381   1.412   .     S
C806   C920    1.450   .     S
C806   C937    1.401   .     A
C807   C808    1.527   .     S
C807   H985    1.112   .     S
C807   H984    1.112   .     S
C808   H987    1.110   .     S
C808   H986    1.110   .     S
C808   H988    1.111   .     S
C809   H989    1.111   .     S
C809   O1382   1.417   .     S
C809   C810    1.532   .     S
C809   H990    1.116   .     S
C810   H991    1.112   .     S
C810   C811    1.527   .     S
C810   H992    1.110   1_554 S
C811   H996    1.111   .     S
C811   H994    1.111   .     S
C811   H995    1.110   .     S
C812   H997    1.108   .     S
C812   O1383   1.416   .     S
C812   H999    1.113   .     S
C812   H998    1.110   .     S
C813   H1000   1.114   .     S
C813   O1385   1.411   .     S
C813   H1002   1.109   .     S
C813   H1001   1.110   .     S
C814   O1386   1.416   .     S
C814   H1003   1.108   .     S
C814   H1006   1.113   .     S
C814   H1005   1.110   .     S
C815   H1008   1.110   .     S
C815   O1387   1.411   .     S
C815   H1009   1.109   .     S
C815   H1007   1.114   .     S
C816   H1011   1.110   .     S
C816   H1010   1.108   .     S
C816   H1012   1.113   .     S
C816   O1388   1.416   .     S
C817   C948    1.402   .     A
C817   C917    1.452   .     S
C817   C2336   1.402   1_545 S
C818   H1013   1.114   .     S
C818   H1016   1.109   .     S
C818   H1014   1.110   .     S
C818   O1389   1.411   .     S
C819   H1017   1.108   .     S
C819   H1018   1.110   .     S
C819   H1019   1.113   .     S
C819   O1390   1.416   .     S
C820   O1391   1.411   .     S
C820   H1020   1.114   .     S
C820   H1021   1.110   .     S
C820   H1022   1.109   .     S
C821   H1023   1.108   .     S
C821   H1025   1.113   .     S
C821   H1024   1.110   .     S
C821   O1392   1.416   .     S
C822   H1027   1.114   .     S
C822   H1029   1.109   .     S
C822   H1028   1.110   .     S
C822   O1393   1.411   .     S
C823   H1031   1.110   .     S
C823   O1394   1.416   .     S
C823   H1032   1.113   .     S
C823   H1030   1.108   .     S
C824   H1033   1.114   .     S
C824   H1035   1.109   .     S
C824   O1396   1.411   .     S
C824   H1034   1.110   .     S
C825   H1039   1.113   .     S
C825   O1397   1.416   .     S
C825   H1036   1.108   .     S
C825   H1038   1.110   .     S
C826   H1042   1.109   .     S
C826   H1040   1.114   .     S
C826   H1041   1.110   .     S
C826   O1398   1.411   .     S
C827   O1399   1.416   .     S
C827   H1045   1.113   .     S
C827   H1044   1.110   .     S
C827   H1043   1.108   .     S
C828   O1305   1.390   .     S
C828   C90     1.401   1_655 S
C829   C959    1.401   .     A
C829   C2347   1.401   1_545 S
C829   C918    1.450   .     S
C830   H1049   1.109   .     S
C830   H1046   1.114   .     S
C830   O1400   1.411   .     S
C830   H1047   1.110   .     S
C831   H1051   1.110   .     S
C831   O1401   1.416   .     S
C831   H1052   1.113   .     S
C831   H1050   1.108   .     S
C832   H1053   1.114   .     S
C832   O1402   1.411   .     S
C832   H1055   1.109   .     S
C832   H1054   1.110   .     S
C833   H1058   1.113   .     S
C833   H1057   1.110   .     S
C833   H1056   1.108   .     S
C833   O1403   1.416   .     S
C834   H1060   1.114   .     S
C834   O1404   1.411   .     S
C834   H1062   1.109   .     S
C834   H1061   1.110   .     S
C835   H1063   1.108   .     S
C835   H1065   1.113   .     S
C835   O1405   1.416   .     S
C835   H1064   1.110   .     S
C836   O1407   1.411   .     S
C836   H1067   1.110   .     S
C836   H1066   1.114   .     S
C836   H1068   1.109   .     S
C837   H1071   1.110   .     S
C837   O1408   1.416   .     S
C837   H1072   1.113   .     S
C837   H1069   1.108   .     S
C838   H1075   1.109   .     S
C838   H1073   1.114   .     S
C838   O1409   1.411   .     S
C838   H1074   1.110   .     S
C839   H1077   1.110   .     S
C839   O1410   1.416   .     S
C839   H1076   1.108   .     S
C839   H1078   1.113   .     S
C840   C970    1.402   .     A
C840   C923    1.452   .     S
C840   C2183   1.402   1_545 S
C841   H1080   1.110   .     S
C841   O1411   1.411   .     S
C841   H1079   1.114   .     S
C841   H1082   1.109   .     S
C842   O1412   1.416   .     S
C842   H1083   1.108   .     S
C842   H1085   1.113   .     S
C842   H1084   1.110   .     S
C843   H1088   1.109   .     S
C843   H1086   1.114   .     S
C843   H1087   1.110   .     S
C843   O1413   1.411   .     S
C844   H1089   1.108   .     S
C844   H1091   1.113   .     S
C844   O1414   1.416   .     S
C844   H1090   1.110   .     S
C845   H1094   1.114   .     S
C845   H1096   1.109   .     S
C845   H1095   1.110   .     S
C845   O1415   1.411   .     S
C846   O1416   1.416   .     S
C846   H1099   1.113   .     S
C846   H1097   1.108   .     S
C846   H1098   1.110   .     S
C847   H1100   1.114   .     S
C847   H1102   1.109   .     S
C847   O1303   1.411   .     S
C847   H1101   1.110   .     S
C848   H1103   1.110   .     S
C848   H1105   1.112   .     S
C848   O1304   1.421   .     S
C848   C849    1.531   .     S
C849   H1106   1.109   .     S
C849   H1107   1.111   .     S
C849   C850    1.527   .     S
C850   H1109   1.110   .     S
C850   H1108   1.111   .     S
C850   H1110   1.111   .     S
C851   C2150   1.401   1_545 A
C851   C924    1.450   .     S
C852   H1111   1.111   .     S
C852   C853    1.532   .     S
C852   O1305   1.421   .     S
C852   H1112   1.113   .     S
C853   H1113   1.109   .     S
C853   H1114   1.111   .     S
C853   C854    1.527   .     S
C854   H1118   1.111   .     S
C854   H1117   1.110   .     S
C854   H1116   1.111   .     S
C855   H1119   1.110   .     S
C855   C856    1.531   .     S
C855   O1306   1.421   .     S
C855   H1120   1.112   .     S
C856   C857    1.527   .     S
C856   H1122   1.111   .     S
C856   H1121   1.109   .     S
C857   H1125   1.111   .     S
C857   H1123   1.111   .     S
C857   H1124   1.110   .     S
C858   H1127   1.111   .     S
C858   C859    1.532   .     S
C858   H1128   1.113   .     S
C858   O1307   1.421   .     S
C859   C860    1.527   .     S
C859   H1130   1.111   .     S
C859   H1129   1.109   .     S
C860   H1133   1.111   .     S
C860   H1131   1.111   .     S
C860   H1132   1.110   .     S
C861   O1308   1.421   .     S
C861   H1134   1.111   .     S
C861   C863    1.531   .     S
C861   H1135   1.112   .     S
C862   C921    1.452   .     S
C863   H1138   1.111   .     S
C863   C864    1.527   .     S
C863   H1136   1.109   .     S
C864   H1140   1.110   .     S
C864   H1141   1.111   .     S
C864   H1139   1.111   .     S
C865   H1142   1.111   .     S
C865   O1309   1.421   .     S
C865   C866    1.532   .     S
C865   H1143   1.113   .     S
C866   H1145   1.111   .     S
C866   C867    1.527   .     S
C866   H1144   1.109   .     S
C867   H1147   1.110   .     S
C867   H1146   1.111   .     S
C867   H1149   1.111   .     S
C868   H1151   1.112   .     S
C868   C869    1.531   .     S
C868   H1150   1.111   .     S
C868   O1310   1.421   .     S
C869   H1153   1.111   .     S
C869   H1152   1.109   .     S
C869   C870    1.527   .     S
C870   H1155   1.110   .     S
C870   H1156   1.111   .     S
C870   H1154   1.111   .     S
C871   C872    1.532   .     S
C871   O1311   1.421   .     S
C871   H1157   1.111   .     S
C871   H1158   1.113   .     S
C872   C874    1.527   .     S
C872   H1161   1.111   .     S
C872   H1160   1.109   .     S
C873   C922    1.450   .     S
C874   H1163   1.110   .     S
C874   H1164   1.111   .     S
C874   H1162   1.111   .     S
C875   H1165   1.110   .     S
C875   O1312   1.421   .     S
C875   H1166   1.112   .     S
C875   C876    1.531   .     S
C876   H1168   1.111   .     S
C876   H1167   1.109   .     S
C876   C877    1.527   .     S
C877   H1172   1.111   .     S
C877   H1169   1.111   .     S
C877   H1171   1.110   .     S
C878   H1173   1.111   .     S
C878   O1314   1.421   .     S
C878   C879    1.532   .     S
C878   H1174   1.113   .     S
C879   H1175   1.109   .     S
C879   C880    1.527   .     S
C879   H1176   1.111   .     S
C880   H1177   1.111   .     S
C880   H1179   1.111   .     S
C880   H1178   1.110   .     S
C881   H1180   1.110   .     S
C881   O1315   1.421   .     S
C881   C882    1.531   .     S
C881   H1182   1.112   .     S
C882   H1183   1.109   .     S
C882   H1184   1.111   .     S
C882   C883    1.527   .     S
C883   H1185   1.111   .     S
C883   H1186   1.110   .     S
C883   H1187   1.111   .     S
C884   C978    1.414   .     A
C884   C905    1.397   .     A
C885   H1189   1.113   .     S
C885   O1316   1.421   .     S
C885   H1188   1.111   .     S
C885   C886    1.532   .     S
C886   H1191   1.111   .     S
C886   C887    1.527   .     S
C886   H1190   1.109   .     S
C887   H1194   1.110   .     S
C887   H1193   1.111   .     S
C887   H1195   1.111   .     S
C888   H1196   1.110   .     S
C888   O1317   1.421   .     S
C888   H1197   1.112   .     S
C888   C889    1.531   .     S
C889   C890    1.527   .     S
C889   H1199   1.111   .     S
C889   H1198   1.109   .     S
C890   H1201   1.110   .     S
C890   H1202   1.111   .     S
C890   H1200   1.111   .     S
C891   C892    1.532   .     S
C891   H1206   1.113   .     S
C891   O1318   1.421   .     S
C891   H1205   1.111   .     S
C892   H1207   1.109   .     S
C892   H1208   1.111   .     S
C892   C893    1.527   .     S
C893   H1210   1.110   .     S
C893   H1209   1.111   .     S
C893   H1211   1.111   .     S
C894   H1212   1.110   .     S
C894   O1319   1.421   .     S
C894   H1213   1.112   .     S
C894   C896    1.531   .     S
C895   O1367   1.386   .     S
C895   C903    1.397   .     A
C895   C263    1.415   1_655 S
C896   H1214   1.109   .     S
C896   H1216   1.111   .     S
C896   C897    1.527   .     S
C897   H1217   1.111   .     S
C897   H1219   1.111   .     S
C897   H1218   1.110   .     S
C898   C899    1.532   .     S
C898   H1221   1.113   .     S
C898   H1220   1.111   .     S
C898   O1320   1.421   .     S
C899   H1223   1.111   .     S
C899   C900    1.527   .     S
C899   H1222   1.109   .     S
C900   H1225   1.110   .     S
C900   H1224   1.111   .     S
C900   H1227   1.111   .     S
C901   C907    1.397   .     A
C901   C980    1.414   .     A
C901   O2800   1.383   1_545 S
C902   C906    1.397   .     A
C902   O1369   1.386   .     S
C902   C2151   1.415   .     S
C903   O654    1.383   1_655 S
C904   O1306   1.390   .     S
C904   C2249   1.402   .     S
C905   O1371   1.386   .     S
C906   O2804   1.383   .     S
C907   O1374   1.386   .     S
C907   C2155   1.415   1_545 S
C908   O1375   1.383   .     S
C908   C913    1.397   1_556 S
C909   O1376   1.386   .     S
C909   C912    1.397   1_554 S
C910   O1377   1.383   .     S
C910   C916    1.397   1_556 S
C911   O1378   1.386   .     S
C911   C914    1.397   1_554 S
C912   O1379   1.383   .     S
C912   C909    1.397   1_556 S
C913   O1380   1.386   .     S
C913   C908    1.397   1_554 S
C914   O1381   1.383   .     S
C914   C911    1.397   1_556 S
C915   O1307   1.390   .     S
C915   C2261   1.401   .     S
C916   O1382   1.386   .     S
C916   C910    1.397   1_554 S
C917   O1406   1.281   .     A
C917   O2794   1.281   1_545 S
C918   O2734   1.281   1_545 A
C918   O1373   1.281   .     S
C919   O1384   1.281   .     S
C920   O1321   1.281   .     A
C921   O1326   1.281   .     A
C921   O1322   1.281   .     A
C922   O1327   1.281   .     A
C922   O1323   1.281   .     A
C923   O1328   1.281   .     A
C923   O1324   1.281   .     A
C924   O1325   1.281   .     S
C924   O1330   1.281   .     S
C925   O1331   1.282   .     A
C925   O1359   1.282   .     A
C926   C978    1.412   .     A
C926   O1308   1.390   .     S
C927   O1332   1.285   .     A
C927   O1360   1.285   .     A
C928   O1333   1.282   .     A
C928   O1357   1.282   .     A
C929   O1334   1.285   .     A
C929   O1358   1.285   .     A
C930   O1335   1.282   .     A
C930   O1364   1.282   .     A
C931   O1365   1.285   .     A
C931   O1336   1.285   .     A
C932   O1361   1.282   .     A
C932   O1337   1.282   .     A
C933   O1363   1.285   .     A
C933   O1338   1.285   .     A
C934   O1350   1.282   .     A
C934   O1339   1.282   .     A
C935   O1341   1.285   .     A
C935   O1352   1.285   .     A
C936   O1342   1.282   .     A
C936   O1348   1.282   .     A
C937   C979    1.412   .     A
C937   O1309   1.390   .     S
C938   O1343   1.285   .     A
C938   O1349   1.285   .     A
C939   O1344   1.282   .     A
C939   O1355   1.282   .     A
C940   O1345   1.285   .     A
C940   O1356   1.285   .     A
C941   O1346   1.282   .     A
C941   O1353   1.282   .     A
C942   O1354   1.285   .     A
C942   O1347   1.285   .     A
C943   O1383   1.381   .     S
C943   C960    1.397   .     A
C944   O1385   1.389   .     S
C944   C958    1.396   .     A
C945   O1386   1.381   .     S
C945   C957    1.397   .     A
C946   O1387   1.389   .     S
C946   C956    1.396   .     A
C947   O1388   1.381   .     S
C947   C955    1.397   .     A
C948   O1310   1.390   .     S
C948   C980    1.412   .     A
C949   C954    1.396   .     A
C949   O1389   1.389   .     S
C950   C953    1.397   .     A
C950   O1390   1.381   .     S
C951   C952    1.396   .     A
C951   O1391   1.389   .     S
C952   O1392   1.381   .     S
C953   O1393   1.389   .     S
C954   O1394   1.381   .     S
C955   O1396   1.389   .     S
C956   O1397   1.381   .     S
C957   O1398   1.389   .     S
C958   O1399   1.381   .     S
C959   O1311   1.390   .     S
C960   O1400   1.389   .     S
C961   C977    1.397   .     A
C961   O1401   1.381   .     S
C962   O1402   1.389   .     S
C962   C976    1.396   .     A
C963   O1403   1.381   .     S
C963   C975    1.397   .     A
C964   C974    1.396   .     A
C964   O1404   1.389   .     S
C965   C973    1.397   .     A
C965   O1405   1.381   .     S
C966   O1407   1.389   .     S
C966   C972    1.396   .     A
C967   O1408   1.381   .     S
C967   C971    1.397   .     A
C968   O1409   1.389   .     S
C968   C969    1.396   .     A
C969   O1410   1.381   .     S
C970   O1312   1.390   .     S
C971   O1411   1.389   .     S
C972   O1412   1.381   .     S
C973   O1413   1.389   .     S
C974   O1414   1.381   .     S
C975   O1415   1.389   .     S
C976   O1416   1.381   .     S
C977   O1303   1.389   .     S
H992   C810    1.110   1_556 S
H1265  C790    1.110   1_556 S
H1281  C797    1.110   1_556 S
H1296  C803    1.110   1_556 S
O1301  Zn1428  1.952   .     S
O1301  Zn1417  1.952   .     S
O1301  Zn1420  1.952   .     S
O1301  Zn2856  1.952   1_545 S
O1302  C2350   1.281   .     A
O1302  Zn1419  1.942   .     S
O1313  C203    1.281   1_655 A
O1313  Zn1422  1.942   .     S
O1321  Zn1421  1.942   .     S
O1322  Zn1431  1.942   .     S
O1323  Zn1430  1.942   .     S
O1324  Zn1425  1.942   .     S
O1325  Zn1417  1.942   .     S
O1326  Zn1427  1.942   .     S
O1327  Zn1426  1.942   .     S
O1328  Zn1429  1.942   .     S
O1329  Zn1429  1.952   .     S
O1329  Zn1425  1.952   .     S
O1329  Zn1423  1.952   .     S
O1329  Zn2851  1.952   1_545 S
O1330  Zn1428  1.942   .     S
O1331  Zn1420  1.946   .     S
O1332  Zn1419  1.946   .     S
O1333  Zn1422  1.946   .     S
O1334  Zn1421  1.946   .     S
O1335  Zn1424  1.946   .     S
O1336  Zn1423  1.946   .     S
O1337  Zn1418  1.946   .     S
O1338  Zn1432  1.946   .     S
O1339  Zn1419  1.946   .     S
O1340  Zn1430  1.952   .     S
O1340  Zn1418  1.952   .     S
O1340  Zn1426  1.952   .     S
O1341  Zn1420  1.946   .     S
O1342  Zn1432  1.946   .     S
O1343  Zn1418  1.946   .     S
O1344  Zn1423  1.946   .     S
O1345  Zn1424  1.946   .     S
O1346  Zn1421  1.946   .     S
O1347  Zn1422  1.946   .     S
O1348  Zn711   1.946   1_655 S
O1349  Zn1426  1.946   .     S
O1350  Zn2861  1.946   .     S
O1351  Zn1431  1.952   .     S
O1351  Zn1427  1.952   .     S
O1351  Zn1421  1.952   .     S
O1352  Zn1428  1.946   .     S
O1353  Zn1431  1.946   .     S
O1354  Zn714   1.946   1_655 S
O1355  Zn1425  1.946   .     S
O1356  Zn2849  1.946   .     S
O1357  Zn710   1.946   1_655 S
O1358  Zn1427  1.946   .     S
O1359  Zn1417  1.946   .     S
O1360  Zn2857  1.946   .     S
O1361  Zn1430  1.946   .     S
O1362  Zn1424  1.942   .     S
O1362  C2349   1.281   .     S
O1363  Zn715   1.946   1_655 S
O1364  Zn2860  1.946   .     S
O1365  Zn1429  1.946   .     S
O1366  C168    1.383   1_655 S
O1368  C2333   1.383   .     S
O1372  C2338   1.383   1_545 S
O1373  Zn1423  1.942   .     S
O1384  Zn1418  1.942   .     S
O1395  Zn1432  1.942   .     S
O1395  C204    1.281   1_655 S
O1406  Zn1420  1.942   .     S
Zn1417 O2788   1.946   1_545 S
Zn1419 O2761   1.952   .     S
Zn1422 O624    1.952   1_655 S
Zn1424 O2733   1.952   .     S
Zn1425 O2792   1.946   1_545 S
Zn1428 O2796   1.946   1_545 S
Zn1429 O2782   1.946   1_545 S
Zn1432 O635    1.952   1_655 S
C1433  O2020   1.390   .     S
C1433  C1436   1.412   .     A
C1433  C2227   1.402   .     S
C1434  C1446   1.412   .     A
C1434  C135    1.401   1_565 A
C1434  O2030   1.390   .     S
C1435  C1470   1.416   .     A
C1435  C1675   1.412   .     A
C1436  C1619   1.414   .     A
C1436  C2182   1.416   .     S
C1437  C1544   1.412   .     A
C1437  C2184   1.416   .     S
C1437  C2337   1.415   .     S
C1438  C1620   1.412   .     A
C1438  C1622   1.414   .     A
C1438  C37     1.416   1_565 S
C1439  C1631   1.412   .     A
C1439  C38     1.416   1_565 S
C1439  C191    1.415   1_565 S
C1440  C1467   1.412   .     A
C1440  C1624   1.414   .     A
C1440  C39     1.416   1_565 S
C1441  C1625   1.415   .     A
C1441  C1478   1.412   .     A
C1441  C1472   1.416   .     A
C1442  C1626   1.414   .     A
C1442  C1489   1.412   .     A
C1442  C1473   1.416   .     S
C1443  C1627   1.415   .     A
C1443  C1500   1.412   .     A
C1443  C2190   1.416   .     A
C1444  C1628   1.414   .     A
C1444  C1686   1.412   .     A
C1444  C1471   1.416   .     A
C1445  C1447   1.412   .     A
C1445  O2031   1.390   .     S
C1445  C2294   1.402   .     A
C1446  C1629   1.415   .     A
C1446  C40     1.416   1_565 S
C1447  C1630   1.414   .     A
C1447  C2189   1.416   .     A
C1448  C1632   1.415   .     A
C1448  C1456   1.412   .     A
C1448  C1474   1.416   .     S
C1449  C1648   1.458   .     S
C1449  C1676   1.408   .     A
C1449  C1678   1.408   .     A
C1450  C1677   1.415   .     A
C1450  C1674   1.415   .     A
C1450  C1649   1.470   .     S
C1451  C1673   1.408   .     A
C1451  C1680   1.408   .     A
C1451  C1641   1.458   .     S
C1452  C1679   1.415   .     A
C1452  C1672   1.415   .     A
C1452  C1643   1.470   .     S
C1453  C1682   1.408   .     A
C1453  C1671   1.408   .     A
C1453  C1644   1.458   .     S
C1454  C1645   1.470   .     S
C1454  C1670   1.415   .     A
C1454  C1681   1.415   .     A
C1455  C1646   1.458   .     S
C1455  C1684   1.408   .     A
C1455  C1669   1.408   .     A
C1456  O2032   1.390   .     S
C1456  C1589   1.401   .     S
C1457  C1683   1.415   .     A
C1457  C1647   1.470   .     S
C1457  C1668   1.415   .     A
C1458  C1687   1.408   .     A
C1458  C1657   1.458   .     S
C1458  C1667   1.408   .     A
C1459  C1666   1.415   .     A
C1459  C1685   1.415   .     A
C1459  C1658   1.470   .     S
C1460  C1650   1.458   .     S
C1460  C1665   1.408   .     A
C1460  C1689   1.408   .     A
C1461  C1663   1.415   .     A
C1461  C1688   1.415   .     A
C1461  C1651   1.470   .     S
C1462  C1652   1.458   .     S
C1462  C1691   1.408   .     A
C1462  C1662   1.408   .     A
C1463  C1661   1.415   .     A
C1463  C1654   1.470   .     S
C1463  C1690   1.415   .     A
C1464  C1660   1.408   .     A
C1464  C1655   1.458   .     S
C1464  C1693   1.408   .     A
C1465  C1659   1.415   .     A
C1465  C1656   1.470   .     S
C1465  C1692   1.415   .     A
C1466  C1468   1.406   .     A
C1466  C1694   1.416   .     A
C1466  C2152   1.416   1_455 S
C1467  O2033   1.390   .     S
C1467  C124    1.402   1_565 S
C1468  C1695   1.416   .     A
C1468  C2153   1.416   1_455 S
C1469  C1470   1.406   .     A
C1469  C1696   1.416   .     A
C1471  C1472   1.406   1_556 S
C1472  C1471   1.406   1_554 S
C1473  C2163   1.416   1_455 A
C1473  C1474   1.406   1_556 S
C1474  C2159   1.416   1_455 A
C1474  C1473   1.406   1_554 S
C1475  C1476   1.528   .     S
C1475  O2082   1.412   .     S
C1475  H1808   1.115   .     S
C1475  H1697   1.115   .     S
C1476  C1477   1.527   .     S
C1476  H1951   1.112   .     S
C1476  H1919   1.112   .     S
C1477  H1984   1.111   .     S
C1477  H1962   1.110   .     S
C1477  H1973   1.110   .     S
C1478  O2034   1.390   .     S
C1478  C1567   1.401   .     S
C1479  C1480   1.532   .     S
C1479  H2006   1.116   .     S
C1479  H1995   1.111   .     S
C1479  O2083   1.417   .     S
C1480  H1709   1.110   .     S
C1480  H1698   1.112   .     S
C1480  C1481   1.527   .     S
C1481  H1720   1.111   .     S
C1481  H1731   1.110   .     S
C1481  H1742   1.111   .     S
C1482  H1764   1.115   .     S
C1482  C1483   1.528   .     S
C1482  O2084   1.412   .     S
C1482  H1753   1.115   .     S
C1483  C1484   1.527   .     S
C1483  H1775   1.112   .     S
C1483  H1786   1.112   .     S
C1484  H1809   1.110   .     S
C1484  H1797   1.110   .     S
C1484  H1820   1.111   .     S
C1485  H1842   1.116   .     S
C1485  H1831   1.111   .     S
C1485  C1486   1.532   .     S
C1485  O2085   1.417   .     S
C1486  C1487   1.527   .     S
C1486  H1864   1.110   .     S
C1486  H1853   1.112   .     S
C1487  H1886   1.110   .     S
C1487  H1875   1.111   .     S
C1487  H1897   1.111   .     S
C1488  H1920   1.115   .     S
C1488  C1490   1.528   .     S
C1488  H1908   1.115   .     S
C1488  O2086   1.412   .     S
C1489  O2035   1.390   .     S
C1489  C1578   1.402   .     S
C1490  H1931   1.112   .     S
C1490  H1942   1.112   .     S
C1490  C1491   1.527   .     S
C1491  H1944   1.110   .     S
C1491  H1945   1.110   .     S
C1491  H1946   1.111   .     S
C1492  H1948   1.116   .     S
C1492  O2087   1.417   .     S
C1492  C1493   1.532   .     S
C1492  H1947   1.111   .     S
C1493  H1950   1.110   .     S
C1493  H1949   1.112   .     S
C1493  C1494   1.527   .     S
C1494  H1953   1.110   .     S
C1494  H1954   1.111   .     S
C1494  H1952   1.111   .     S
C1495  H1956   1.115   .     S
C1495  O2088   1.412   .     S
C1495  C1496   1.528   .     S
C1495  H1955   1.115   .     S
C1496  H1958   1.112   .     S
C1496  H1957   1.112   .     S
C1496  C1497   1.527   .     S
C1497  H1960   1.110   .     S
C1497  H1961   1.111   .     S
C1497  H1959   1.110   .     S
C1498  H1963   1.111   .     S
C1498  H1964   1.116   .     S
C1498  C1499   1.532   .     S
C1498  O2090   1.417   .     S
C1499  H1966   1.110   .     S
C1499  H1965   1.112   .     S
C1499  C1501   1.527   .     S
C1500  C2305   1.401   .     A
C1500  O2036   1.390   .     S
C1501  H1968   1.110   .     S
C1501  H1969   1.111   .     S
C1501  H1967   1.111   .     S
C1502  C1503   1.528   .     S
C1502  O2091   1.412   .     S
C1502  H1970   1.115   .     S
C1502  H1971   1.115   .     S
C1503  C1504   1.527   .     S
C1503  H1972   1.112   .     S
C1503  H1974   1.112   .     S
C1504  H1976   1.110   .     S
C1504  H1977   1.111   .     S
C1504  H1975   1.110   .     S
C1505  C1506   1.532   .     S
C1505  H1978   1.111   .     S
C1505  H1979   1.116   .     S
C1505  O2092   1.417   .     S
C1506  H1980   1.112   .     S
C1506  C1507   1.527   .     S
C1506  H1981   1.110   1_554 S
C1507  H1985   1.111   .     S
C1507  H1983   1.110   .     S
C1507  H1982   1.111   .     S
C1508  O2093   1.412   .     S
C1508  H1987   1.115   .     S
C1508  H1986   1.115   .     S
C1508  C1509   1.528   .     S
C1509  H1989   1.112   .     S
C1509  H1988   1.112   .     S
C1509  C1510   1.527   .     S
C1510  H1990   1.110   .     S
C1510  H1991   1.110   .     S
C1510  H1992   1.111   .     S
C1511  C1642   1.402   .     A
C1511  C2149   1.402   1_455 S
C1511  C1635   1.452   .     S
C1512  H1994   1.116   .     S
C1512  O2094   1.417   .     S
C1512  H1993   1.111   .     S
C1512  C1513   1.532   .     S
C1513  H1996   1.112   .     S
C1513  C1514   1.527   .     S
C1513  H1997   1.110   1_554 S
C1514  H1998   1.111   .     S
C1514  H1999   1.110   .     S
C1514  H2000   1.111   .     S
C1515  H2001   1.115   .     S
C1515  C1516   1.528   .     S
C1515  H2002   1.115   .     S
C1515  O2095   1.412   .     S
C1516  H2003   1.112   .     S
C1516  H2004   1.112   .     S
C1516  C1517   1.527   .     S
C1517  H2005   1.110   .     S
C1517  H2007   1.110   .     S
C1517  H2008   1.111   .     S
C1518  H2010   1.116   .     S
C1518  H2009   1.111   .     S
C1518  C1519   1.532   .     S
C1518  O2096   1.417   .     S
C1519  H2011   1.112   .     S
C1519  C1520   1.527   .     S
C1519  H2012   1.110   1_554 S
C1520  H2013   1.111   .     S
C1520  H2015   1.111   .     S
C1520  H2014   1.110   .     S
C1521  H2016   1.115   .     S
C1521  C1523   1.528   .     S
C1521  H1699   1.115   .     S
C1521  O2097   1.412   .     S
C1522  C1636   1.450   .     S
C1522  C1653   1.401   .     A
C1522  C2260   1.401   1_455 S
C1523  C1524   1.527   .     S
C1523  H1701   1.112   .     S
C1523  H1700   1.112   .     S
C1524  H1703   1.110   .     S
C1524  H1702   1.110   .     S
C1524  H1704   1.111   .     S
C1525  H1705   1.111   .     S
C1525  O2098   1.417   .     S
C1525  C1526   1.532   .     S
C1525  H1706   1.116   .     S
C1526  H1707   1.112   .     S
C1526  C1527   1.527   .     S
C1526  H1708   1.110   1_554 S
C1527  H1712   1.111   .     S
C1527  H1710   1.111   .     S
C1527  H1711   1.110   .     S
C1528  H1713   1.108   .     S
C1528  O2099   1.416   .     S
C1528  H1715   1.113   .     S
C1528  H1714   1.110   .     S
C1529  H1716   1.114   .     S
C1529  O2101   1.411   .     S
C1529  H1718   1.109   .     S
C1529  H1717   1.110   .     S
C1530  O2102   1.416   .     S
C1530  H1719   1.108   .     S
C1530  H1722   1.113   .     S
C1530  H1721   1.110   .     S
C1531  H1724   1.110   .     S
C1531  O2103   1.411   .     S
C1531  H1725   1.109   .     S
C1531  H1723   1.114   .     S
C1532  H1727   1.110   .     S
C1532  H1726   1.108   .     S
C1532  H1728   1.113   .     S
C1532  O2104   1.416   .     S
C1533  C1664   1.402   .     A
C1533  C1633   1.452   .     S
C1534  H1729   1.114   .     S
C1534  H1732   1.109   .     S
C1534  H1730   1.110   .     S
C1534  O2105   1.411   .     S
C1535  H1733   1.108   .     S
C1535  H1734   1.110   .     S
C1535  H1735   1.113   .     S
C1535  O2106   1.416   .     S
C1536  O2107   1.411   .     S
C1536  H1736   1.114   .     S
C1536  H1737   1.110   .     S
C1536  H1738   1.109   .     S
C1537  H1739   1.108   .     S
C1537  H1741   1.113   .     S
C1537  H1740   1.110   .     S
C1537  O2108   1.416   .     S
C1538  H1743   1.114   .     S
C1538  H1745   1.109   .     S
C1538  H1744   1.110   .     S
C1538  O2109   1.411   .     S
C1539  H1747   1.110   .     S
C1539  O2110   1.416   .     S
C1539  H1748   1.113   .     S
C1539  H1746   1.108   .     S
C1540  H1749   1.114   .     S
C1540  H1751   1.109   .     S
C1540  O2112   1.411   .     S
C1540  H1750   1.110   .     S
C1541  H1755   1.113   .     S
C1541  O2113   1.416   .     S
C1541  H1752   1.108   .     S
C1541  H1754   1.110   .     S
C1542  H1758   1.109   .     S
C1542  H1756   1.114   .     S
C1542  H1757   1.110   .     S
C1542  O2114   1.411   .     S
C1543  O2115   1.416   .     S
C1543  H1761   1.113   .     S
C1543  H1760   1.110   .     S
C1543  H1759   1.108   .     S
C1544  O2021   1.390   .     S
C1544  C2238   1.401   .     S
C1545  C1675   1.401   .     A
C1545  C1634   1.450   .     S
C1546  H1765   1.109   .     S
C1546  H1762   1.114   .     S
C1546  O2116   1.411   .     S
C1546  H1763   1.110   .     S
C1547  H1767   1.110   .     S
C1547  O2117   1.416   .     S
C1547  H1768   1.113   .     S
C1547  H1766   1.108   .     S
C1548  H1769   1.114   .     S
C1548  O2118   1.411   .     S
C1548  H1771   1.109   .     S
C1548  H1770   1.110   .     S
C1549  H1774   1.113   .     S
C1549  H1773   1.110   .     S
C1549  H1772   1.108   .     S
C1549  O2119   1.416   .     S
C1550  H1776   1.114   .     S
C1550  O2120   1.411   .     S
C1550  H1778   1.109   .     S
C1550  H1777   1.110   .     S
C1551  H1779   1.108   .     S
C1551  H1781   1.113   .     S
C1551  O2121   1.416   .     S
C1551  H1780   1.110   .     S
C1552  O2123   1.411   .     S
C1552  H1783   1.110   .     S
C1552  H1782   1.114   .     S
C1552  H1784   1.109   .     S
C1553  H1787   1.110   .     S
C1553  O2124   1.416   .     S
C1553  H1788   1.113   .     S
C1553  H1785   1.108   .     S
C1554  H1791   1.109   .     S
C1554  H1789   1.114   .     S
C1554  O2125   1.411   .     S
C1554  H1790   1.110   .     S
C1555  H1793   1.110   .     S
C1555  O2126   1.416   .     S
C1555  H1792   1.108   .     S
C1555  H1794   1.113   .     S
C1556  C1686   1.402   .     A
C1556  C1639   1.452   .     S
C1557  H1796   1.110   .     S
C1557  O2127   1.411   .     S
C1557  H1795   1.114   .     S
C1557  H1798   1.109   .     S
C1558  O2128   1.416   .     S
C1558  H1799   1.108   .     S
C1558  H1801   1.113   .     S
C1558  H1800   1.110   .     S
C1559  H1804   1.109   .     S
C1559  H1802   1.114   .     S
C1559  H1803   1.110   .     S
C1559  O2129   1.411   .     S
C1560  H1805   1.108   .     S
C1560  H1807   1.113   .     S
C1560  O2130   1.416   .     S
C1560  H1806   1.110   .     S
C1561  H1810   1.114   .     S
C1561  H1812   1.109   .     S
C1561  H1811   1.110   .     S
C1561  O2131   1.411   .     S
C1562  O2132   1.416   .     S
C1562  H1815   1.113   .     S
C1562  H1813   1.108   .     S
C1562  H1814   1.110   .     S
C1563  H1816   1.114   .     S
C1563  H1818   1.109   .     S
C1563  O2019   1.411   .     S
C1563  H1817   1.110   .     S
C1564  H1819   1.110   .     S
C1564  H1821   1.112   .     S
C1564  O2020   1.421   .     S
C1564  C1565   1.531   .     S
C1565  H1822   1.109   .     S
C1565  H1823   1.111   .     S
C1565  C1566   1.527   .     S
C1566  H1825   1.110   .     S
C1566  H1824   1.111   .     S
C1566  H1826   1.111   .     S
C1567  C1640   1.450   .     S
C1568  H1827   1.111   .     S
C1568  C1569   1.532   .     S
C1568  O2021   1.421   .     S
C1568  H1828   1.113   .     S
C1569  H1829   1.109   .     S
C1569  H1830   1.111   .     S
C1569  C1570   1.527   .     S
C1570  H1834   1.111   .     S
C1570  H1833   1.110   .     S
C1570  H1832   1.111   .     S
C1571  H1835   1.110   .     S
C1571  C1572   1.531   .     S
C1571  O2022   1.421   .     S
C1571  H1836   1.112   .     S
C1572  C1573   1.527   .     S
C1572  H1838   1.111   .     S
C1572  H1837   1.109   .     S
C1573  H1841   1.111   .     S
C1573  H1839   1.111   .     S
C1573  H1840   1.110   .     S
C1574  H1843   1.111   .     S
C1574  C1575   1.532   .     S
C1574  H1844   1.113   .     S
C1574  O2023   1.421   .     S
C1575  C1576   1.527   .     S
C1575  H1846   1.111   .     S
C1575  H1845   1.109   .     S
C1576  H1849   1.111   .     S
C1576  H1847   1.111   .     S
C1576  H1848   1.110   .     S
C1577  O2024   1.421   .     S
C1577  H1850   1.111   .     S
C1577  C1579   1.531   .     S
C1577  H1851   1.112   .     S
C1578  C1637   1.452   .     S
C1578  C2161   1.402   1_455 A
C1579  H1854   1.111   .     S
C1579  C1580   1.527   .     S
C1579  H1852   1.109   .     S
C1580  H1856   1.110   .     S
C1580  H1857   1.111   .     S
C1580  H1855   1.111   .     S
C1581  H1858   1.111   .     S
C1581  O2025   1.421   .     S
C1581  C1582   1.532   .     S
C1581  H1859   1.113   .     S
C1582  H1861   1.111   .     S
C1582  C1583   1.527   .     S
C1582  H1860   1.109   .     S
C1583  H1863   1.110   .     S
C1583  H1862   1.111   .     S
C1583  H1865   1.111   .     S
C1584  H1867   1.112   .     S
C1584  C1585   1.531   .     S
C1584  H1866   1.111   .     S
C1584  O2026   1.421   .     S
C1585  H1869   1.111   .     S
C1585  H1868   1.109   .     S
C1585  C1586   1.527   .     S
C1586  H1871   1.110   .     S
C1586  H1872   1.111   .     S
C1586  H1870   1.111   .     S
C1587  C1588   1.532   .     S
C1587  O2027   1.421   .     S
C1587  H1873   1.111   .     S
C1587  H1874   1.113   .     S
C1588  C1590   1.527   .     S
C1588  H1877   1.111   .     S
C1588  H1876   1.109   .     S
C1589  C2216   1.401   1_455 A
C1589  C1638   1.450   .     S
C1590  H1879   1.110   .     S
C1590  H1880   1.111   .     S
C1590  H1878   1.111   .     S
C1591  H1881   1.110   .     S
C1591  O2028   1.421   .     S
C1591  H1882   1.112   .     S
C1591  C1592   1.531   .     S
C1592  H1884   1.111   .     S
C1592  H1883   1.109   .     S
C1592  C1593   1.527   .     S
C1593  H1888   1.111   .     S
C1593  H1885   1.111   .     S
C1593  H1887   1.110   .     S
C1594  H1889   1.111   .     S
C1594  O2030   1.421   .     S
C1594  C1595   1.532   .     S
C1594  H1890   1.113   .     S
C1595  H1891   1.109   .     S
C1595  C1596   1.527   .     S
C1595  H1892   1.111   .     S
C1596  H1893   1.111   .     S
C1596  H1895   1.111   .     S
C1596  H1894   1.110   .     S
C1597  H1896   1.110   .     S
C1597  O2031   1.421   .     S
C1597  C1598   1.531   .     S
C1597  H1898   1.112   .     S
C1598  H1899   1.109   .     S
C1598  H1900   1.111   .     S
C1598  C1599   1.527   .     S
C1599  H1901   1.111   .     S
C1599  H1902   1.110   .     S
C1599  H1903   1.111   .     S
C1600  C1694   1.414   .     A
C1600  C1621   1.397   .     A
C1600  O2798   1.383   1_455 S
C1601  H1905   1.113   .     S
C1601  O2032   1.421   .     S
C1601  H1904   1.111   .     S
C1601  C1602   1.532   .     S
C1602  H1907   1.111   .     S
C1602  C1603   1.527   .     S
C1602  H1906   1.109   .     S
C1603  H1910   1.110   .     S
C1603  H1909   1.111   .     S
C1603  H1911   1.111   .     S
C1604  H1912   1.110   .     S
C1604  O2033   1.421   .     S
C1604  H1913   1.112   .     S
C1604  C1605   1.531   .     S
C1605  C1606   1.527   .     S
C1605  H1915   1.111   .     S
C1605  H1914   1.109   .     S
C1606  H1917   1.110   .     S
C1606  H1918   1.111   .     S
C1606  H1916   1.111   .     S
C1607  C1608   1.532   .     S
C1607  H1922   1.113   .     S
C1607  O2034   1.421   .     S
C1607  H1921   1.111   .     S
C1608  H1923   1.109   .     S
C1608  H1924   1.111   .     S
C1608  C1609   1.527   .     S
C1609  H1926   1.110   .     S
C1609  H1925   1.111   .     S
C1609  H1927   1.111   .     S
C1610  H1928   1.110   .     S
C1610  O2035   1.421   .     S
C1610  H1929   1.112   .     S
C1610  C1612   1.531   .     S
C1611  O2083   1.386   .     S
C1611  C1619   1.397   .     A
C1611  C2411   1.415   .     S
C1612  H1930   1.109   .     S
C1612  H1932   1.111   .     S
C1612  C1613   1.527   .     S
C1613  H1933   1.111   .     S
C1613  H1935   1.111   .     S
C1613  H1934   1.110   .     S
C1614  C1615   1.532   .     S
C1614  H1937   1.113   .     S
C1614  H1936   1.111   .     S
C1614  O2036   1.421   .     S
C1615  H1939   1.111   .     S
C1615  C1616   1.527   .     S
C1615  H1938   1.109   .     S
C1616  H1941   1.110   .     S
C1616  H1940   1.111   .     S
C1616  H1943   1.111   .     S
C1617  C1623   1.397   .     A
C1617  C1696   1.414   .     A
C1618  C1622   1.397   .     A
C1618  O2085   1.386   .     S
C1618  C3      1.415   1_565 S
C1619  O2802   1.383   .     S
C1620  O2022   1.390   .     S
C1620  C101    1.402   1_565 S
C1621  O2087   1.386   .     S
C1621  C2153   1.415   1_455 S
C1622  O656    1.383   1_565 S
C1623  O2090   1.386   .     S
C1624  O2091   1.383   .     S
C1624  C1629   1.397   1_556 S
C1625  O2092   1.386   .     S
C1625  C1628   1.397   1_554 S
C1626  O2093   1.383   .     S
C1626  C1632   1.397   1_556 S
C1627  O2094   1.386   .     S
C1627  C1630   1.397   1_554 S
C1628  O2095   1.383   .     S
C1628  C1625   1.397   1_556 S
C1629  O2096   1.386   .     S
C1629  C1624   1.397   1_554 S
C1630  O2097   1.383   .     S
C1630  C1627   1.397   1_556 S
C1631  O2023   1.390   .     S
C1631  C113    1.401   1_565 S
C1632  O2098   1.386   .     S
C1632  C1626   1.397   1_554 S
C1633  O2122   1.281   .     A
C1634  O2089   1.281   .     S
C1635  O2745   1.281   1_455 A
C1635  O2100   1.281   .     S
C1636  O2037   1.281   .     A
C1636  O2827   1.281   1_455 S
C1637  O2042   1.281   .     A
C1637  O2038   1.281   .     A
C1638  O2043   1.281   .     A
C1638  O2039   1.281   .     A
C1639  O2044   1.281   .     A
C1639  O2040   1.281   .     A
C1640  O2041   1.281   .     S
C1640  O2046   1.281   .     S
C1641  O2047   1.282   .     A
C1641  O2075   1.282   .     A
C1642  C1694   1.412   .     A
C1642  O2024   1.390   .     S
C1643  O2048   1.285   .     A
C1643  O2076   1.285   .     A
C1644  O2049   1.282   .     A
C1644  O2073   1.282   .     A
C1645  O2050   1.285   .     A
C1645  O2074   1.285   .     A
C1646  O2051   1.282   .     A
C1646  O2080   1.282   .     A
C1647  O2081   1.285   .     A
C1647  O2052   1.285   .     A
C1648  O2077   1.282   .     A
C1648  O2053   1.282   .     A
C1649  O2079   1.285   .     A
C1649  O2054   1.285   .     A
C1650  O2066   1.282   .     A
C1650  O2055   1.282   .     A
C1651  O2057   1.285   .     A
C1651  O2068   1.285   .     A
C1652  O2058   1.282   .     A
C1652  O2064   1.282   .     A
C1653  C1695   1.412   .     A
C1653  O2025   1.390   .     S
C1654  O2059   1.285   .     A
C1654  O2065   1.285   .     A
C1655  O2060   1.282   .     A
C1655  O2071   1.282   .     A
C1656  O2061   1.285   .     A
C1656  O2072   1.285   .     A
C1657  O2062   1.282   .     A
C1657  O2069   1.282   .     A
C1658  O2070   1.285   .     A
C1658  O2063   1.285   .     A
C1659  O2099   1.381   .     S
C1659  C1676   1.397   .     A
C1660  O2101   1.389   .     S
C1660  C1674   1.396   .     A
C1661  O2102   1.381   .     S
C1661  C1673   1.397   .     A
C1662  O2103   1.389   .     S
C1662  C1672   1.396   .     A
C1663  O2104   1.381   .     S
C1663  C1671   1.397   .     A
C1664  O2026   1.390   .     S
C1664  C1696   1.412   .     A
C1665  C1670   1.396   .     A
C1665  O2105   1.389   .     S
C1666  C1669   1.397   .     A
C1666  O2106   1.381   .     S
C1667  C1668   1.396   .     A
C1667  O2107   1.389   .     S
C1668  O2108   1.381   .     S
C1669  O2109   1.389   .     S
C1670  O2110   1.381   .     S
C1671  O2112   1.389   .     S
C1672  O2113   1.381   .     S
C1673  O2114   1.389   .     S
C1674  O2115   1.381   .     S
C1675  O2027   1.390   .     S
C1676  O2116   1.389   .     S
C1677  C1693   1.397   .     A
C1677  O2117   1.381   .     S
C1678  O2118   1.389   .     S
C1678  C1692   1.396   .     A
C1679  O2119   1.381   .     S
C1679  C1691   1.397   .     A
C1680  C1690   1.396   .     A
C1680  O2120   1.389   .     S
C1681  C1689   1.397   .     A
C1681  O2121   1.381   .     S
C1682  O2123   1.389   .     S
C1682  C1688   1.396   .     A
C1683  O2124   1.381   .     S
C1683  C1687   1.397   .     A
C1684  O2125   1.389   .     S
C1684  C1685   1.396   .     A
C1685  O2126   1.381   .     S
C1686  O2028   1.390   .     S
C1687  O2127   1.389   .     S
C1688  O2128   1.381   .     S
C1689  O2129   1.389   .     S
C1690  O2130   1.381   .     S
C1691  O2131   1.389   .     S
C1692  O2132   1.381   .     S
C1693  O2019   1.389   .     S
C1695  C2327   1.415   1_455 S
H1708  C1526   1.110   1_556 S
H1981  C1506   1.110   1_556 S
H1997  C1513   1.110   1_556 S
H2012  C1519   1.110   1_556 S
O2017  Zn2144  1.952   .     S
O2017  Zn2133  1.952   .     S
O2017  Zn2136  1.952   .     S
O2018  C202    1.281   1_565 A
O2018  Zn2135  1.942   .     S
O2029  C2351   1.281   .     A
O2029  Zn2138  1.942   .     S
O2037  Zn2137  1.942   .     S
O2038  Zn2147  1.942   .     S
O2039  Zn2146  1.942   .     S
O2040  Zn2141  1.942   .     S
O2041  Zn2133  1.942   .     S
O2042  Zn2143  1.942   .     S
O2043  Zn2142  1.942   .     S
O2044  Zn2145  1.942   .     S
O2045  Zn2145  1.952   .     S
O2045  Zn2141  1.952   .     S
O2045  Zn2139  1.952   .     S
O2046  Zn2144  1.942   .     S
O2047  Zn2136  1.946   .     S
O2048  Zn2135  1.946   .     S
O2049  Zn2138  1.946   .     S
O2050  Zn2137  1.946   .     S
O2051  Zn2140  1.946   .     S
O2052  Zn2139  1.946   .     S
O2053  Zn2134  1.946   .     S
O2054  Zn2148  1.946   .     S
O2055  Zn2135  1.946   .     S
O2056  Zn2146  1.952   .     S
O2056  Zn2854  1.952   1_455 S
O2056  Zn2134  1.952   .     S
O2056  Zn2142  1.952   .     S
O2057  Zn2136  1.946   .     S
O2058  Zn2148  1.946   .     S
O2059  Zn2134  1.946   .     S
O2060  Zn2139  1.946   .     S
O2061  Zn2140  1.946   .     S
O2062  Zn2137  1.946   .     S
O2063  Zn2138  1.946   .     S
O2064  Zn2859  1.946   .     S
O2065  Zn2142  1.946   .     S
O2066  Zn713   1.946   1_565 S
O2067  Zn2864  1.952   1_455 S
O2067  Zn2147  1.952   .     S
O2067  Zn2143  1.952   .     S
O2067  Zn2137  1.952   .     S
O2068  Zn2144  1.946   .     S
O2069  Zn2147  1.946   .     S
O2070  Zn2862  1.946   .     S
O2071  Zn2141  1.946   .     S
O2072  Zn701   1.946   1_565 S
O2073  Zn2858  1.946   .     S
O2074  Zn2143  1.946   .     S
O2075  Zn2133  1.946   .     S
O2076  Zn709   1.946   1_565 S
O2077  Zn2146  1.946   .     S
O2078  Zn2140  1.942   .     S
O2078  C201    1.281   1_565 S
O2079  Zn2863  1.946   .     S
O2080  Zn712   1.946   1_565 S
O2081  Zn2145  1.946   .     S
O2082  C2316   1.383   .     S
O2084  C185    1.383   1_565 S
O2086  C2335   1.383   1_455 S
O2089  Zn2139  1.942   .     S
O2100  Zn2134  1.942   .     S
O2111  Zn2148  1.942   .     S
O2111  C2352   1.281   .     S
O2122  Zn2136  1.942   .     S
Zn2135 O613    1.952   1_565 S
Zn2138 O2772   1.952   .     S
Zn2140 O585    1.952   1_565 S
Zn2142 O2789   1.946   1_455 S
Zn2143 O2780   1.946   1_455 S
Zn2146 O2786   1.946   1_455 S
Zn2147 O2795   1.946   1_455 S
Zn2148 O2783   1.952   .     S
C2149  O2736   1.390   .     S
C2149  C2152   1.412   .     A
C2149  C1511   1.402   1_655 S
C2150  C2162   1.412   .     A
C2150  C851    1.401   1_565 A
C2150  O2746   1.390   .     S
C2151  C2186   1.416   .     A
C2151  C2391   1.412   .     A
C2152  C2335   1.414   .     A
C2152  C1466   1.416   1_655 S
C2153  C2260   1.412   .     A
C2153  C1468   1.416   1_655 S
C2153  C1621   1.415   1_655 S
C2154  C2336   1.412   .     A
C2154  C2338   1.414   .     A
C2154  C753    1.416   1_565 S
C2155  C2347   1.412   .     A
C2155  C754    1.416   1_565 S
C2155  C907    1.415   1_565 S
C2156  C2183   1.412   .     A
C2156  C2340   1.414   .     A
C2156  C755    1.416   1_565 S
C2157  C2341   1.415   .     A
C2157  C2194   1.412   .     A
C2157  C2188   1.416   .     A
C2158  C2342   1.414   .     A
C2158  C2205   1.412   .     A
C2158  C2189   1.416   .     S
C2159  C2343   1.415   .     A
C2159  C2216   1.412   .     A
C2159  C1474   1.416   1_655 A
C2160  C2344   1.414   .     A
C2160  C2402   1.412   .     A
C2160  C2187   1.416   .     A
C2161  C2163   1.412   .     A
C2161  O2747   1.390   .     S
C2161  C1578   1.402   1_655 A
C2162  C2345   1.415   .     A
C2162  C756    1.416   1_565 S
C2163  C2346   1.414   .     A
C2163  C1473   1.416   1_655 A
C2164  C2348   1.415   .     A
C2164  C2172   1.412   .     A
C2164  C2190   1.416   .     S
C2165  C2364   1.458   .     S
C2165  C2392   1.408   .     A
C2165  C2394   1.408   .     A
C2166  C2393   1.415   .     A
C2166  C2390   1.415   .     A
C2166  C2365   1.470   .     S
C2167  C2389   1.408   .     A
C2167  C2396   1.408   .     A
C2167  C2357   1.458   .     S
C2168  C2395   1.415   .     A
C2168  C2388   1.415   .     A
C2168  C2359   1.470   .     S
C2169  C2398   1.408   .     A
C2169  C2387   1.408   .     A
C2169  C2360   1.458   .     S
C2170  C2361   1.470   .     S
C2170  C2386   1.415   .     A
C2170  C2397   1.415   .     A
C2171  C2362   1.458   .     S
C2171  C2400   1.408   .     A
C2171  C2385   1.408   .     A
C2172  O2748   1.390   .     S
C2172  C2305   1.401   .     S
C2173  C2399   1.415   .     A
C2173  C2363   1.470   .     S
C2173  C2384   1.415   .     A
C2174  C2403   1.408   .     A
C2174  C2373   1.458   .     S
C2174  C2383   1.408   .     A
C2175  C2382   1.415   .     A
C2175  C2401   1.415   .     A
C2175  C2374   1.470   .     S
C2176  C2366   1.458   .     S
C2176  C2381   1.408   .     A
C2176  C2405   1.408   .     A
C2177  C2379   1.415   .     A
C2177  C2404   1.415   .     A
C2177  C2367   1.470   .     S
C2178  C2368   1.458   .     S
C2178  C2407   1.408   .     A
C2178  C2378   1.408   .     A
C2179  C2377   1.415   .     A
C2179  C2370   1.470   .     S
C2179  C2406   1.415   .     A
C2180  C2376   1.408   .     A
C2180  C2371   1.458   .     S
C2180  C2409   1.408   .     A
C2181  C2375   1.415   .     A
C2181  C2372   1.470   .     S
C2181  C2408   1.415   .     A
C2182  C2184   1.406   .     A
C2182  C2410   1.416   .     A
C2183  O2749   1.390   .     S
C2183  C840    1.402   1_565 S
C2184  C2411   1.416   .     A
C2185  C2186   1.406   .     A
C2185  C2412   1.416   .     A
C2187  C2188   1.406   1_556 S
C2188  C2187   1.406   1_554 S
C2189  C2190   1.406   1_556 S
C2190  C2189   1.406   1_554 S
C2191  C2192   1.528   .     S
C2191  O2798   1.412   .     S
C2191  H2524   1.115   .     S
C2191  H2413   1.115   .     S
C2192  C2193   1.527   .     S
C2192  H2667   1.112   .     S
C2192  H2635   1.112   .     S
C2193  H2700   1.111   .     S
C2193  H2678   1.110   .     S
C2193  H2689   1.110   .     S
C2194  O2750   1.390   .     S
C2194  C2283   1.401   .     S
C2195  C2196   1.532   .     S
C2195  H2722   1.116   .     S
C2195  H2711   1.111   .     S
C2195  O2799   1.417   .     S
C2196  H2425   1.110   .     S
C2196  H2414   1.112   .     S
C2196  C2197   1.527   .     S
C2197  H2436   1.111   .     S
C2197  H2447   1.110   .     S
C2197  H2458   1.111   .     S
C2198  H2480   1.115   .     S
C2198  C2199   1.528   .     S
C2198  O2800   1.412   .     S
C2198  H2469   1.115   .     S
C2199  C2200   1.527   .     S
C2199  H2491   1.112   .     S
C2199  H2502   1.112   .     S
C2200  H2525   1.110   .     S
C2200  H2513   1.110   .     S
C2200  H2536   1.111   .     S
C2201  H2558   1.116   .     S
C2201  H2547   1.111   .     S
C2201  C2202   1.532   .     S
C2201  O2801   1.417   .     S
C2202  C2203   1.527   .     S
C2202  H2580   1.110   .     S
C2202  H2569   1.112   .     S
C2203  H2602   1.110   .     S
C2203  H2591   1.111   .     S
C2203  H2613   1.111   .     S
C2204  H2636   1.115   .     S
C2204  C2206   1.528   .     S
C2204  H2624   1.115   .     S
C2204  O2802   1.412   .     S
C2205  O2751   1.390   .     S
C2205  C2294   1.402   .     S
C2206  H2647   1.112   .     S
C2206  H2658   1.112   .     S
C2206  C2207   1.527   .     S
C2207  H2660   1.110   .     S
C2207  H2661   1.110   .     S
C2207  H2662   1.111   .     S
C2208  H2664   1.116   .     S
C2208  O2803   1.417   .     S
C2208  C2209   1.532   .     S
C2208  H2663   1.111   .     S
C2209  H2666   1.110   .     S
C2209  H2665   1.112   .     S
C2209  C2210   1.527   .     S
C2210  H2669   1.110   .     S
C2210  H2670   1.111   .     S
C2210  H2668   1.111   .     S
C2211  H2672   1.115   .     S
C2211  O2804   1.412   .     S
C2211  C2212   1.528   .     S
C2211  H2671   1.115   .     S
C2212  H2674   1.112   .     S
C2212  H2673   1.112   .     S
C2212  C2213   1.527   .     S
C2213  H2676   1.110   .     S
C2213  H2677   1.111   .     S
C2213  H2675   1.110   .     S
C2214  H2679   1.111   .     S
C2214  H2680   1.116   .     S
C2214  C2215   1.532   .     S
C2214  O2806   1.417   .     S
C2215  H2682   1.110   .     S
C2215  H2681   1.112   .     S
C2215  C2217   1.527   .     S
C2216  C1589   1.401   1_655 A
C2216  O2752   1.390   .     S
C2217  H2684   1.110   .     S
C2217  H2685   1.111   .     S
C2217  H2683   1.111   .     S
C2218  C2219   1.528   .     S
C2218  O2807   1.412   .     S
C2218  H2686   1.115   .     S
C2218  H2687   1.115   .     S
C2219  C2220   1.527   .     S
C2219  H2688   1.112   .     S
C2219  H2690   1.112   .     S
C2220  H2692   1.110   .     S
C2220  H2693   1.111   .     S
C2220  H2691   1.110   .     S
C2221  C2222   1.532   .     S
C2221  H2694   1.111   .     S
C2221  H2695   1.116   .     S
C2221  O2808   1.417   .     S
C2222  H2696   1.112   .     S
C2222  C2223   1.527   .     S
C2222  H2697   1.110   1_554 S
C2223  H2701   1.111   .     S
C2223  H2699   1.110   .     S
C2223  H2698   1.111   .     S
C2224  O2809   1.412   .     S
C2224  H2703   1.115   .     S
C2224  H2702   1.115   .     S
C2224  C2225   1.528   .     S
C2225  H2705   1.112   .     S
C2225  H2704   1.112   .     S
C2225  C2226   1.527   .     S
C2226  H2706   1.110   .     S
C2226  H2707   1.110   .     S
C2226  H2708   1.111   .     S
C2227  C2358   1.402   .     A
C2227  C2351   1.452   .     S
C2228  H2710   1.116   .     S
C2228  O2810   1.417   .     S
C2228  H2709   1.111   .     S
C2228  C2229   1.532   .     S
C2229  H2712   1.112   .     S
C2229  C2230   1.527   .     S
C2229  H2713   1.110   1_554 S
C2230  H2714   1.111   .     S
C2230  H2715   1.110   .     S
C2230  H2716   1.111   .     S
C2231  H2717   1.115   .     S
C2231  C2232   1.528   .     S
C2231  H2718   1.115   .     S
C2231  O2811   1.412   .     S
C2232  H2719   1.112   .     S
C2232  H2720   1.112   .     S
C2232  C2233   1.527   .     S
C2233  H2721   1.110   .     S
C2233  H2723   1.110   .     S
C2233  H2724   1.111   .     S
C2234  H2726   1.116   .     S
C2234  H2725   1.111   .     S
C2234  C2235   1.532   .     S
C2234  O2812   1.417   .     S
C2235  H2727   1.112   .     S
C2235  C2236   1.527   .     S
C2235  H2728   1.110   1_554 S
C2236  H2729   1.111   .     S
C2236  H2731   1.111   .     S
C2236  H2730   1.110   .     S
C2237  H2732   1.115   .     S
C2237  C2239   1.528   .     S
C2237  H2415   1.115   .     S
C2237  O2813   1.412   .     S
C2238  C2352   1.450   .     S
C2238  C2369   1.401   .     A
C2239  C2240   1.527   .     S
C2239  H2417   1.112   .     S
C2239  H2416   1.112   .     S
C2240  H2419   1.110   .     S
C2240  H2418   1.110   .     S
C2240  H2420   1.111   .     S
C2241  H2421   1.111   .     S
C2241  O2814   1.417   .     S
C2241  C2242   1.532   .     S
C2241  H2422   1.116   .     S
C2242  H2423   1.112   .     S
C2242  C2243   1.527   .     S
C2242  H2424   1.110   1_554 S
C2243  H2428   1.111   .     S
C2243  H2426   1.111   .     S
C2243  H2427   1.110   .     S
C2244  H2429   1.108   .     S
C2244  O2815   1.416   .     S
C2244  H2431   1.113   .     S
C2244  H2430   1.110   .     S
C2245  H2432   1.114   .     S
C2245  O2817   1.411   .     S
C2245  H2434   1.109   .     S
C2245  H2433   1.110   .     S
C2246  O2818   1.416   .     S
C2246  H2435   1.108   .     S
C2246  H2438   1.113   .     S
C2246  H2437   1.110   .     S
C2247  H2440   1.110   .     S
C2247  O2819   1.411   .     S
C2247  H2441   1.109   .     S
C2247  H2439   1.114   .     S
C2248  H2443   1.110   .     S
C2248  H2442   1.108   .     S
C2248  H2444   1.113   .     S
C2248  O2820   1.416   .     S
C2249  C2380   1.402   .     A
C2249  C2349   1.452   .     S
C2250  H2445   1.114   .     S
C2250  H2448   1.109   .     S
C2250  H2446   1.110   .     S
C2250  O2821   1.411   .     S
C2251  H2449   1.108   .     S
C2251  H2450   1.110   .     S
C2251  H2451   1.113   .     S
C2251  O2822   1.416   .     S
C2252  O2823   1.411   .     S
C2252  H2452   1.114   .     S
C2252  H2453   1.110   .     S
C2252  H2454   1.109   .     S
C2253  H2455   1.108   .     S
C2253  H2457   1.113   .     S
C2253  H2456   1.110   .     S
C2253  O2824   1.416   .     S
C2254  H2459   1.114   .     S
C2254  H2461   1.109   .     S
C2254  H2460   1.110   .     S
C2254  O2825   1.411   .     S
C2255  H2463   1.110   .     S
C2255  O2826   1.416   .     S
C2255  H2464   1.113   .     S
C2255  H2462   1.108   .     S
C2256  H2465   1.114   .     S
C2256  H2467   1.109   .     S
C2256  O2828   1.411   .     S
C2256  H2466   1.110   .     S
C2257  H2471   1.113   .     S
C2257  O2829   1.416   .     S
C2257  H2468   1.108   .     S
C2257  H2470   1.110   .     S
C2258  H2474   1.109   .     S
C2258  H2472   1.114   .     S
C2258  H2473   1.110   .     S
C2258  O2830   1.411   .     S
C2259  O2831   1.416   .     S
C2259  H2477   1.113   .     S
C2259  H2476   1.110   .     S
C2259  H2475   1.108   .     S
C2260  O2737   1.390   .     S
C2260  C1522   1.401   1_655 S
C2261  C2391   1.401   .     A
C2261  C2350   1.450   .     S
C2262  H2481   1.109   .     S
C2262  H2478   1.114   .     S
C2262  O2832   1.411   .     S
C2262  H2479   1.110   .     S
C2263  H2483   1.110   .     S
C2263  O2833   1.416   .     S
C2263  H2484   1.113   .     S
C2263  H2482   1.108   .     S
C2264  H2485   1.114   .     S
C2264  O2834   1.411   .     S
C2264  H2487   1.109   .     S
C2264  H2486   1.110   .     S
C2265  H2490   1.113   .     S
C2265  H2489   1.110   .     S
C2265  H2488   1.108   .     S
C2265  O2835   1.416   .     S
C2266  H2492   1.114   .     S
C2266  O2836   1.411   .     S
C2266  H2494   1.109   .     S
C2266  H2493   1.110   .     S
C2267  H2495   1.108   .     S
C2267  H2497   1.113   .     S
C2267  O2837   1.416   .     S
C2267  H2496   1.110   .     S
C2268  O2839   1.411   .     S
C2268  H2499   1.110   .     S
C2268  H2498   1.114   .     S
C2268  H2500   1.109   .     S
C2269  H2503   1.110   .     S
C2269  O2840   1.416   .     S
C2269  H2504   1.113   .     S
C2269  H2501   1.108   .     S
C2270  H2507   1.109   .     S
C2270  H2505   1.114   .     S
C2270  O2841   1.411   .     S
C2270  H2506   1.110   .     S
C2271  H2509   1.110   .     S
C2271  O2842   1.416   .     S
C2271  H2508   1.108   .     S
C2271  H2510   1.113   .     S
C2272  C2402   1.402   .     A
C2272  C2355   1.452   .     S
C2273  H2512   1.110   .     S
C2273  O2843   1.411   .     S
C2273  H2511   1.114   .     S
C2273  H2514   1.109   .     S
C2274  O2844   1.416   .     S
C2274  H2515   1.108   .     S
C2274  H2517   1.113   .     S
C2274  H2516   1.110   .     S
C2275  H2520   1.109   .     S
C2275  H2518   1.114   .     S
C2275  H2519   1.110   .     S
C2275  O2845   1.411   .     S
C2276  H2521   1.108   .     S
C2276  H2523   1.113   .     S
C2276  O2846   1.416   .     S
C2276  H2522   1.110   .     S
C2277  H2526   1.114   .     S
C2277  H2528   1.109   .     S
C2277  H2527   1.110   .     S
C2277  O2847   1.411   .     S
C2278  O2848   1.416   .     S
C2278  H2531   1.113   .     S
C2278  H2529   1.108   .     S
C2278  H2530   1.110   .     S
C2279  H2532   1.114   .     S
C2279  H2534   1.109   .     S
C2279  O2735   1.411   .     S
C2279  H2533   1.110   .     S
C2280  H2535   1.110   .     S
C2280  H2537   1.112   .     S
C2280  O2736   1.421   .     S
C2280  C2281   1.531   .     S
C2281  H2538   1.109   .     S
C2281  H2539   1.111   .     S
C2281  C2282   1.527   .     S
C2282  H2541   1.110   .     S
C2282  H2540   1.111   .     S
C2282  H2542   1.111   .     S
C2283  C2356   1.450   .     S
C2284  H2543   1.111   .     S
C2284  C2285   1.532   .     S
C2284  O2737   1.421   .     S
C2284  H2544   1.113   .     S
C2285  H2545   1.109   .     S
C2285  H2546   1.111   .     S
C2285  C2286   1.527   .     S
C2286  H2550   1.111   .     S
C2286  H2549   1.110   .     S
C2286  H2548   1.111   .     S
C2287  H2551   1.110   .     S
C2287  C2288   1.531   .     S
C2287  O2738   1.421   .     S
C2287  H2552   1.112   .     S
C2288  C2289   1.527   .     S
C2288  H2554   1.111   .     S
C2288  H2553   1.109   .     S
C2289  H2557   1.111   .     S
C2289  H2555   1.111   .     S
C2289  H2556   1.110   .     S
C2290  H2559   1.111   .     S
C2290  C2291   1.532   .     S
C2290  H2560   1.113   .     S
C2290  O2739   1.421   .     S
C2291  C2292   1.527   .     S
C2291  H2562   1.111   .     S
C2291  H2561   1.109   .     S
C2292  H2565   1.111   .     S
C2292  H2563   1.111   .     S
C2292  H2564   1.110   .     S
C2293  O2740   1.421   .     S
C2293  H2566   1.111   .     S
C2293  C2295   1.531   .     S
C2293  H2567   1.112   .     S
C2294  C2353   1.452   .     S
C2295  H2570   1.111   .     S
C2295  C2296   1.527   .     S
C2295  H2568   1.109   .     S
C2296  H2572   1.110   .     S
C2296  H2573   1.111   .     S
C2296  H2571   1.111   .     S
C2297  H2574   1.111   .     S
C2297  O2741   1.421   .     S
C2297  C2298   1.532   .     S
C2297  H2575   1.113   .     S
C2298  H2577   1.111   .     S
C2298  C2299   1.527   .     S
C2298  H2576   1.109   .     S
C2299  H2579   1.110   .     S
C2299  H2578   1.111   .     S
C2299  H2581   1.111   .     S
C2300  H2583   1.112   .     S
C2300  C2301   1.531   .     S
C2300  H2582   1.111   .     S
C2300  O2742   1.421   .     S
C2301  H2585   1.111   .     S
C2301  H2584   1.109   .     S
C2301  C2302   1.527   .     S
C2302  H2587   1.110   .     S
C2302  H2588   1.111   .     S
C2302  H2586   1.111   .     S
C2303  C2304   1.532   .     S
C2303  O2743   1.421   .     S
C2303  H2589   1.111   .     S
C2303  H2590   1.113   .     S
C2304  C2306   1.527   .     S
C2304  H2593   1.111   .     S
C2304  H2592   1.109   .     S
C2305  C2354   1.450   .     S
C2306  H2595   1.110   .     S
C2306  H2596   1.111   .     S
C2306  H2594   1.111   .     S
C2307  H2597   1.110   .     S
C2307  O2744   1.421   .     S
C2307  H2598   1.112   .     S
C2307  C2308   1.531   .     S
C2308  H2600   1.111   .     S
C2308  H2599   1.109   .     S
C2308  C2309   1.527   .     S
C2309  H2604   1.111   .     S
C2309  H2601   1.111   .     S
C2309  H2603   1.110   .     S
C2310  H2605   1.111   .     S
C2310  O2746   1.421   .     S
C2310  C2311   1.532   .     S
C2310  H2606   1.113   .     S
C2311  H2607   1.109   .     S
C2311  C2312   1.527   .     S
C2311  H2608   1.111   .     S
C2312  H2609   1.111   .     S
C2312  H2611   1.111   .     S
C2312  H2610   1.110   .     S
C2313  H2612   1.110   .     S
C2313  O2747   1.421   .     S
C2313  C2314   1.531   .     S
C2313  H2614   1.112   .     S
C2314  H2615   1.109   .     S
C2314  H2616   1.111   .     S
C2314  C2315   1.527   .     S
C2315  H2617   1.111   .     S
C2315  H2618   1.110   .     S
C2315  H2619   1.111   .     S
C2316  C2410   1.414   .     A
C2316  C2337   1.397   .     A
C2317  H2621   1.113   .     S
C2317  O2748   1.421   .     S
C2317  H2620   1.111   .     S
C2317  C2318   1.532   .     S
C2318  H2623   1.111   .     S
C2318  C2319   1.527   .     S
C2318  H2622   1.109   .     S
C2319  H2626   1.110   .     S
C2319  H2625   1.111   .     S
C2319  H2627   1.111   .     S
C2320  H2628   1.110   .     S
C2320  O2749   1.421   .     S
C2320  H2629   1.112   .     S
C2320  C2321   1.531   .     S
C2321  C2322   1.527   .     S
C2321  H2631   1.111   .     S
C2321  H2630   1.109   .     S
C2322  H2633   1.110   .     S
C2322  H2634   1.111   .     S
C2322  H2632   1.111   .     S
C2323  C2324   1.532   .     S
C2323  H2638   1.113   .     S
C2323  O2750   1.421   .     S
C2323  H2637   1.111   .     S
C2324  H2639   1.109   .     S
C2324  H2640   1.111   .     S
C2324  C2325   1.527   .     S
C2325  H2642   1.110   .     S
C2325  H2641   1.111   .     S
C2325  H2643   1.111   .     S
C2326  H2644   1.110   .     S
C2326  O2751   1.421   .     S
C2326  H2645   1.112   .     S
C2326  C2328   1.531   .     S
C2327  O2799   1.386   .     S
C2327  C2335   1.397   .     A
C2327  C1695   1.415   1_655 S
C2328  H2646   1.109   .     S
C2328  H2648   1.111   .     S
C2328  C2329   1.527   .     S
C2329  H2649   1.111   .     S
C2329  H2651   1.111   .     S
C2329  H2650   1.110   .     S
C2330  C2331   1.532   .     S
C2330  H2653   1.113   .     S
C2330  H2652   1.111   .     S
C2330  O2752   1.421   .     S
C2331  H2655   1.111   .     S
C2331  C2332   1.527   .     S
C2331  H2654   1.109   .     S
C2332  H2657   1.110   .     S
C2332  H2656   1.111   .     S
C2332  H2659   1.111   .     S
C2333  C2339   1.397   .     A
C2333  C2412   1.414   .     A
C2334  C2338   1.397   .     A
C2334  O2801   1.386   .     S
C2334  C719    1.415   1_565 S
C2335  O2086   1.383   1_655 S
C2336  O2738   1.390   .     S
C2336  C817    1.402   1_565 S
C2337  O2803   1.386   .     S
C2338  O1372   1.383   1_565 S
C2339  O2806   1.386   .     S
C2340  O2807   1.383   .     S
C2340  C2345   1.397   1_556 S
C2341  O2808   1.386   .     S
C2341  C2344   1.397   1_554 S
C2342  O2809   1.383   .     S
C2342  C2348   1.397   1_556 S
C2343  O2810   1.386   .     S
C2343  C2346   1.397   1_554 S
C2344  O2811   1.383   .     S
C2344  C2341   1.397   1_556 S
C2345  O2812   1.386   .     S
C2345  C2340   1.397   1_554 S
C2346  O2813   1.383   .     S
C2346  C2343   1.397   1_556 S
C2347  O2739   1.390   .     S
C2347  C829    1.401   1_565 S
C2348  O2814   1.386   .     S
C2348  C2342   1.397   1_554 S
C2349  O2838   1.281   .     A
C2350  O2805   1.281   .     S
C2351  O2816   1.281   .     S
C2352  O2753   1.281   .     A
C2353  O2758   1.281   .     A
C2353  O2754   1.281   .     A
C2354  O2759   1.281   .     A
C2354  O2755   1.281   .     A
C2355  O2760   1.281   .     A
C2355  O2756   1.281   .     A
C2356  O2757   1.281   .     S
C2356  O2762   1.281   .     S
C2357  O2763   1.282   .     A
C2357  O2791   1.282   .     A
C2358  C2410   1.412   .     A
C2358  O2740   1.390   .     S
C2359  O2764   1.285   .     A
C2359  O2792   1.285   .     A
C2360  O2765   1.282   .     A
C2360  O2789   1.282   .     A
C2361  O2766   1.285   .     A
C2361  O2790   1.285   .     A
C2362  O2767   1.282   .     A
C2362  O2796   1.282   .     A
C2363  O2797   1.285   .     A
C2363  O2768   1.285   .     A
C2364  O2793   1.282   .     A
C2364  O2769   1.282   .     A
C2365  O2795   1.285   .     A
C2365  O2770   1.285   .     A
C2366  O2782   1.282   .     A
C2366  O2771   1.282   .     A
C2367  O2773   1.285   .     A
C2367  O2784   1.285   .     A
C2368  O2774   1.282   .     A
C2368  O2780   1.282   .     A
C2369  C2411   1.412   .     A
C2369  O2741   1.390   .     S
C2370  O2775   1.285   .     A
C2370  O2781   1.285   .     A
C2371  O2776   1.282   .     A
C2371  O2787   1.282   .     A
C2372  O2777   1.285   .     A
C2372  O2788   1.285   .     A
C2373  O2778   1.282   .     A
C2373  O2785   1.282   .     A
C2374  O2786   1.285   .     A
C2374  O2779   1.285   .     A
C2375  O2815   1.381   .     S
C2375  C2392   1.397   .     A
C2376  O2817   1.389   .     S
C2376  C2390   1.396   .     A
C2377  O2818   1.381   .     S
C2377  C2389   1.397   .     A
C2378  O2819   1.389   .     S
C2378  C2388   1.396   .     A
C2379  O2820   1.381   .     S
C2379  C2387   1.397   .     A
C2380  O2742   1.390   .     S
C2380  C2412   1.412   .     A
C2381  C2386   1.396   .     A
C2381  O2821   1.389   .     S
C2382  C2385   1.397   .     A
C2382  O2822   1.381   .     S
C2383  C2384   1.396   .     A
C2383  O2823   1.389   .     S
C2384  O2824   1.381   .     S
C2385  O2825   1.389   .     S
C2386  O2826   1.381   .     S
C2387  O2828   1.389   .     S
C2388  O2829   1.381   .     S
C2389  O2830   1.389   .     S
C2390  O2831   1.381   .     S
C2391  O2743   1.390   .     S
C2392  O2832   1.389   .     S
C2393  C2409   1.397   .     A
C2393  O2833   1.381   .     S
C2394  O2834   1.389   .     S
C2394  C2408   1.396   .     A
C2395  O2835   1.381   .     S
C2395  C2407   1.397   .     A
C2396  C2406   1.396   .     A
C2396  O2836   1.389   .     S
C2397  C2405   1.397   .     A
C2397  O2837   1.381   .     S
C2398  O2839   1.389   .     S
C2398  C2404   1.396   .     A
C2399  O2840   1.381   .     S
C2399  C2403   1.397   .     A
C2400  O2841   1.389   .     S
C2400  C2401   1.396   .     A
C2401  O2842   1.381   .     S
C2402  O2744   1.390   .     S
C2403  O2843   1.389   .     S
C2404  O2844   1.381   .     S
C2405  O2845   1.389   .     S
C2406  O2846   1.381   .     S
C2407  O2847   1.389   .     S
C2408  O2848   1.381   .     S
C2409  O2735   1.389   .     S
H2424  C2242   1.110   1_556 S
H2697  C2222   1.110   1_556 S
H2713  C2229   1.110   1_556 S
H2728  C2235   1.110   1_556 S
O2733  Zn2860  1.952   .     S
O2733  Zn2849  1.952   .     S
O2733  Zn2852  1.952   .     S
O2734  C918    1.281   1_565 A
O2734  Zn2851  1.942   .     S
O2745  C1635   1.281   1_655 A
O2745  Zn2854  1.942   .     S
O2753  Zn2853  1.942   .     S
O2754  Zn2863  1.942   .     S
O2755  Zn2862  1.942   .     S
O2756  Zn2857  1.942   .     S
O2757  Zn2849  1.942   .     S
O2758  Zn2859  1.942   .     S
O2759  Zn2858  1.942   .     S
O2760  Zn2861  1.942   .     S
O2761  Zn2861  1.952   .     S
O2761  Zn2857  1.952   .     S
O2761  Zn2855  1.952   .     S
O2762  Zn2860  1.942   .     S
O2763  Zn2852  1.946   .     S
O2764  Zn2851  1.946   .     S
O2765  Zn2854  1.946   .     S
O2766  Zn2853  1.946   .     S
O2767  Zn2856  1.946   .     S
O2768  Zn2855  1.946   .     S
O2769  Zn2850  1.946   .     S
O2770  Zn2864  1.946   .     S
O2771  Zn2851  1.946   .     S
O2772  Zn2862  1.952   .     S
O2772  Zn2850  1.952   .     S
O2772  Zn2858  1.952   .     S
O2773  Zn2852  1.946   .     S
O2774  Zn2864  1.946   .     S
O2775  Zn2850  1.946   .     S
O2776  Zn2855  1.946   .     S
O2777  Zn2856  1.946   .     S
O2778  Zn2853  1.946   .     S
O2779  Zn2854  1.946   .     S
O2780  Zn2143  1.946   1_655 S
O2781  Zn2858  1.946   .     S
O2782  Zn1429  1.946   1_565 S
O2783  Zn2863  1.952   .     S
O2783  Zn2859  1.952   .     S
O2783  Zn2853  1.952   .     S
O2784  Zn2860  1.946   .     S
O2785  Zn2863  1.946   .     S
O2786  Zn2146  1.946   1_655 S
O2787  Zn2857  1.946   .     S
O2788  Zn1417  1.946   1_565 S
O2789  Zn2142  1.946   1_655 S
O2790  Zn2859  1.946   .     S
O2791  Zn2849  1.946   .     S
O2792  Zn1425  1.946   1_565 S
O2793  Zn2862  1.946   .     S
O2794  Zn2856  1.942   .     S
O2794  C917    1.281   1_565 S
O2795  Zn2147  1.946   1_655 S
O2796  Zn1428  1.946   1_565 S
O2797  Zn2861  1.946   .     S
O2798  C1600   1.383   1_655 S
O2800  C901    1.383   1_565 S
O2805  Zn2855  1.942   .     S
O2816  Zn2850  1.942   .     S
O2827  Zn2864  1.942   .     S
O2827  C1636   1.281   1_655 S
O2838  Zn2852  1.942   .     S
Zn2851 O1329   1.952   1_565 S
Zn2854 O2056   1.952   1_655 S
Zn2856 O1301   1.952   1_565 S
Zn2864 O2067   1.952   1_655 S
