data_str_m1_o10_o18_pcu_sym.69
_audit_creation_date              2020-01-03
_audit_creation_method            'Materials Studio'
_symmetry_space_group_name_H-M    'P1'
_symmetry_Int_Tables_number       1
_symmetry_cell_setting            triclinic
loop_
_symmetry_equiv_pos_as_xyz
  x,y,z
_cell_length_a                    32.6271
_cell_length_b                    32.5432
_cell_length_c                    35.6142
_cell_angle_alpha                 98.1616
_cell_angle_beta                  72.6558
_cell_angle_gamma                 98.6860
loop_
_atom_site_label
_atom_site_type_symbol
_atom_site_fract_x
_atom_site_fract_y
_atom_site_fract_z
_atom_site_U_iso_or_equiv
_atom_site_adp_type
_atom_site_occupancy
C1     C     0.05241   0.15966   0.25919   0.00000  Uiso   1.00
C2     C     0.22063   0.15762   0.45762   0.00000  Uiso   1.00
C3     C     0.23965   0.13573   0.47759   0.00000  Uiso   1.00
C4     C     0.28119   0.17358   0.24098   0.00000  Uiso   1.00
C5     C     0.22441   0.13533   0.01843   0.00000  Uiso   1.00
C6     C     0.19049   0.15906   0.04054   0.00000  Uiso   1.00
C7     C     0.24451   0.11301   0.03753   0.00000  Uiso   1.00
C8     C     0.23207   0.11462   0.07868   0.00000  Uiso   1.00
C9     C     0.17696   0.15852   0.08203   0.00000  Uiso   1.00
C10    C     0.32742   0.17605   0.23655   0.00000  Uiso   1.00
C11    C     0.00723   0.15814   0.26197   0.00000  Uiso   1.00
C12    C     0.11510   0.23304   0.41811   0.00000  Uiso   1.00
C13    C     0.18112   0.32223   0.23805   0.00000  Uiso   1.00
C14    C     0.15157   0.01208   0.26204   0.00000  Uiso   1.00
C15    C     0.15599   0.05612   0.25884   0.00000  Uiso   1.00
C16    C     0.17692   0.27773   0.24131   0.00000  Uiso   1.00
C17    C     0.18837   0.14538   0.14391   0.00000  Uiso   1.00
C18    C     0.14553   0.18802   0.35626   0.00000  Uiso   1.00
C19    C     0.13901   0.20021   0.39895   0.00000  Uiso   1.00
C20    C     0.19825   0.13771   0.10094   0.00000  Uiso   1.00
C21    C     0.10965   0.24571   0.45827   0.00000  Uiso   1.00
C22    C     0.09537   0.26657   0.04782   0.00000  Uiso   1.00
C23    C     0.15869   0.18061   0.42004   0.00000  Uiso   1.00
C24    C     0.02463   0.19758   0.20476   0.00000  Uiso   1.00
C25    C     0.25480   0.09301   0.09757   0.00000  Uiso   1.00
C26    C     0.08332   0.27950   0.47430   0.00000  Uiso   1.00
C27    C     0.24476   0.16363   0.41711   0.00000  Uiso   1.00
C28    C     0.15825   0.19537   0.45928   0.00000  Uiso   1.00
C29    C     0.13018   0.22606   0.48025   0.00000  Uiso   1.00
C30    C     0.18330   0.17803   0.47851   0.00000  Uiso   1.00
C31    C     0.17159   0.18254   0.02044   0.00000  Uiso   1.00
C32    C     0.14303   0.21190   0.04103   0.00000  Uiso   1.00
C33    C     0.12371   0.23474   0.02187   0.00000  Uiso   1.00
H34    H     0.27076   0.09526   0.02039   0.00000  Uiso   1.00
H35    H     0.09419   0.26811   0.07947   0.00000  Uiso   1.00
H36    H     0.10833   0.29828   0.03870   0.00000  Uiso   1.00
H37    H     0.06156   0.25813   0.04642   0.00000  Uiso   1.00
H38    H     0.31766   0.14244   0.28601   0.00000  Uiso   1.00
H39    H     0.20847   0.00290   0.21596   0.00000  Uiso   1.00
H40    H     0.12379   0.33212   0.28412   0.00000  Uiso   1.00
H41    H     0.15024   0.17434   0.10079   0.00000  Uiso   1.00
H42    H     0.26765   0.11991   0.46118   0.00000  Uiso   1.00
H43    H     0.10006   0.24881   0.40171   0.00000  Uiso   1.00
H44    H     0.17340   0.15280   0.40568   0.00000  Uiso   1.00
H45    H     0.13689   0.21936   0.07249   0.00000  Uiso   1.00
N46    N     0.04900   0.21472   0.17940   0.00000  Uiso   1.00
N47    N     0.27299   0.07571   0.11273   0.00000  Uiso   1.00
N48    N     0.06218   0.30661   0.48665   0.00000  Uiso   1.00
N49    N     0.26423   0.16845   0.38476   0.00000  Uiso   1.00
O50    O     0.16667   0.16667   0.25000   0.00000  Uiso   1.00
O51    O     0.15693   0.12393   0.16625   0.00000  Uiso   1.00
O52    O     0.12687   0.20646   0.33749   0.00000  Uiso   1.00
O53    O     0.21088   0.17493   0.15877   0.00000  Uiso   1.00
O54    O     0.17198   0.16135   0.33749   0.00000  Uiso   1.00
O55    O     0.17849   0.08101   0.27820   0.00000  Uiso   1.00
O56    O     0.14581   0.26136   0.26767   0.00000  Uiso   1.00
O57    O     0.07452   0.13251   0.23607   0.00000  Uiso   1.00
O58    O     0.26785   0.19179   0.21805   0.00000  Uiso   1.00
O59    O     0.06990   0.18960   0.27820   0.00000  Uiso   1.00
O60    O     0.25440   0.15277   0.26767   0.00000  Uiso   1.00
O61    O     0.13800   0.06903   0.23607   0.00000  Uiso   1.00
O62    O     0.20437   0.25527   0.21805   0.00000  Uiso   1.00
Zn63   Zn    0.19244   0.14090   0.28277   0.00000  Uiso   1.00
Zn64   Zn    0.13459   0.12378   0.22257   0.00000  Uiso   1.00
Zn65   Zn    0.21166   0.19664   0.21188   0.00000  Uiso   1.00
Zn66   Zn    0.12798   0.20535   0.28277   0.00000  Uiso   1.00
C67    C     0.38574   0.15966   0.25919   0.00000  Uiso   1.00
C68    C     0.55396   0.15762   0.45762   0.00000  Uiso   1.00
C69    C     0.57298   0.13573   0.47759   0.00000  Uiso   1.00
C70    C     0.61452   0.17358   0.24098   0.00000  Uiso   1.00
C71    C     0.55774   0.13533   0.01843   0.00000  Uiso   1.00
C72    C     0.52382   0.15906   0.04054   0.00000  Uiso   1.00
C73    C     0.57784   0.11301   0.03753   0.00000  Uiso   1.00
C74    C     0.56540   0.11462   0.07868   0.00000  Uiso   1.00
C75    C     0.51029   0.15852   0.08203   0.00000  Uiso   1.00
C76    C     0.66076   0.17605   0.23655   0.00000  Uiso   1.00
C77    C     0.34056   0.15814   0.26197   0.00000  Uiso   1.00
C78    C     0.44844   0.23304   0.41811   0.00000  Uiso   1.00
C79    C     0.51445   0.32223   0.23805   0.00000  Uiso   1.00
C80    C     0.48491   0.01208   0.26204   0.00000  Uiso   1.00
C81    C     0.48932   0.05612   0.25884   0.00000  Uiso   1.00
C82    C     0.51026   0.27773   0.24131   0.00000  Uiso   1.00
C83    C     0.52171   0.14538   0.14391   0.00000  Uiso   1.00
C84    C     0.47886   0.18802   0.35626   0.00000  Uiso   1.00
C85    C     0.47234   0.20021   0.39895   0.00000  Uiso   1.00
C86    C     0.53158   0.13771   0.10094   0.00000  Uiso   1.00
C87    C     0.44298   0.24571   0.45827   0.00000  Uiso   1.00
C88    C     0.42870   0.26657   0.04782   0.00000  Uiso   1.00
C89    C     0.49202   0.18061   0.42004   0.00000  Uiso   1.00
C90    C     0.35796   0.19758   0.20476   0.00000  Uiso   1.00
C91    C     0.58813   0.09301   0.09757   0.00000  Uiso   1.00
C92    C     0.41666   0.27950   0.47430   0.00000  Uiso   1.00
C93    C     0.57810   0.16363   0.41711   0.00000  Uiso   1.00
C94    C     0.49159   0.19537   0.45928   0.00000  Uiso   1.00
C95    C     0.46351   0.22606   0.48025   0.00000  Uiso   1.00
C96    C     0.51663   0.17803   0.47851   0.00000  Uiso   1.00
C97    C     0.50493   0.18254   0.02044   0.00000  Uiso   1.00
C98    C     0.47637   0.21190   0.04103   0.00000  Uiso   1.00
C99    C     0.45704   0.23474   0.02187   0.00000  Uiso   1.00
H100   H     0.60410   0.09526   0.02039   0.00000  Uiso   1.00
H101   H     0.42753   0.26811   0.07947   0.00000  Uiso   1.00
H102   H     0.44167   0.29828   0.03870   0.00000  Uiso   1.00
H103   H     0.39490   0.25813   0.04642   0.00000  Uiso   1.00
H104   H     0.65100   0.14244   0.28601   0.00000  Uiso   1.00
H105   H     0.54181   0.00290   0.21596   0.00000  Uiso   1.00
H106   H     0.45712   0.33212   0.28412   0.00000  Uiso   1.00
H107   H     0.48358   0.17434   0.10079   0.00000  Uiso   1.00
H108   H     0.60098   0.11991   0.46118   0.00000  Uiso   1.00
H109   H     0.43339   0.24881   0.40171   0.00000  Uiso   1.00
H110   H     0.50673   0.15280   0.40568   0.00000  Uiso   1.00
H111   H     0.47022   0.21936   0.07249   0.00000  Uiso   1.00
N112   N     0.38233   0.21472   0.17940   0.00000  Uiso   1.00
N113   N     0.60632   0.07571   0.11273   0.00000  Uiso   1.00
N114   N     0.39551   0.30661   0.48665   0.00000  Uiso   1.00
N115   N     0.59756   0.16845   0.38476   0.00000  Uiso   1.00
O116   O     0.50000   0.16667   0.25000   0.00000  Uiso   1.00
O117   O     0.49027   0.12393   0.16625   0.00000  Uiso   1.00
O118   O     0.46020   0.20646   0.33749   0.00000  Uiso   1.00
O119   O     0.54421   0.17493   0.15877   0.00000  Uiso   1.00
O120   O     0.50532   0.16135   0.33749   0.00000  Uiso   1.00
O121   O     0.51182   0.08101   0.27820   0.00000  Uiso   1.00
O122   O     0.47914   0.26136   0.26767   0.00000  Uiso   1.00
O123   O     0.40785   0.13251   0.23607   0.00000  Uiso   1.00
O124   O     0.60119   0.19179   0.21805   0.00000  Uiso   1.00
O125   O     0.40323   0.18960   0.27820   0.00000  Uiso   1.00
O126   O     0.58773   0.15277   0.26767   0.00000  Uiso   1.00
O127   O     0.47133   0.06903   0.23607   0.00000  Uiso   1.00
O128   O     0.53771   0.25527   0.21805   0.00000  Uiso   1.00
Zn129  Zn    0.52577   0.14090   0.28277   0.00000  Uiso   1.00
Zn130  Zn    0.46792   0.12378   0.22257   0.00000  Uiso   1.00
Zn131  Zn    0.54500   0.19664   0.21188   0.00000  Uiso   1.00
Zn132  Zn    0.46131   0.20535   0.28277   0.00000  Uiso   1.00
C133   C     0.71908   0.15966   0.25919   0.00000  Uiso   1.00
C134   C     0.88729   0.15762   0.45762   0.00000  Uiso   1.00
C135   C     0.90632   0.13573   0.47759   0.00000  Uiso   1.00
C136   C     0.94786   0.17358   0.24098   0.00000  Uiso   1.00
C137   C     0.89107   0.13533   0.01843   0.00000  Uiso   1.00
C138   C     0.85716   0.15906   0.04054   0.00000  Uiso   1.00
C139   C     0.91118   0.11301   0.03753   0.00000  Uiso   1.00
C140   C     0.89873   0.11462   0.07868   0.00000  Uiso   1.00
C141   C     0.84363   0.15852   0.08203   0.00000  Uiso   1.00
C142   C     0.99409   0.17605   0.23655   0.00000  Uiso   1.00
C143   C     0.67390   0.15814   0.26197   0.00000  Uiso   1.00
C144   C     0.78177   0.23304   0.41811   0.00000  Uiso   1.00
C145   C     0.84778   0.32223   0.23805   0.00000  Uiso   1.00
C146   C     0.81824   0.01208   0.26204   0.00000  Uiso   1.00
C147   C     0.82265   0.05612   0.25884   0.00000  Uiso   1.00
C148   C     0.84359   0.27773   0.24131   0.00000  Uiso   1.00
C149   C     0.85504   0.14538   0.14391   0.00000  Uiso   1.00
C150   C     0.81219   0.18802   0.35626   0.00000  Uiso   1.00
C151   C     0.80568   0.20021   0.39895   0.00000  Uiso   1.00
C152   C     0.86491   0.13771   0.10094   0.00000  Uiso   1.00
C153   C     0.77632   0.24571   0.45827   0.00000  Uiso   1.00
C154   C     0.76203   0.26657   0.04782   0.00000  Uiso   1.00
C155   C     0.82535   0.18061   0.42004   0.00000  Uiso   1.00
C156   C     0.69130   0.19758   0.20476   0.00000  Uiso   1.00
C157   C     0.92146   0.09301   0.09757   0.00000  Uiso   1.00
C158   C     0.74999   0.27950   0.47430   0.00000  Uiso   1.00
C159   C     0.91143   0.16363   0.41711   0.00000  Uiso   1.00
C160   C     0.82492   0.19537   0.45928   0.00000  Uiso   1.00
C161   C     0.79684   0.22606   0.48025   0.00000  Uiso   1.00
C162   C     0.84997   0.17803   0.47851   0.00000  Uiso   1.00
C163   C     0.83826   0.18254   0.02044   0.00000  Uiso   1.00
C164   C     0.80970   0.21190   0.04103   0.00000  Uiso   1.00
C165   C     0.79038   0.23474   0.02187   0.00000  Uiso   1.00
H166   H     0.93743   0.09526   0.02039   0.00000  Uiso   1.00
H167   H     0.76086   0.26811   0.07947   0.00000  Uiso   1.00
H168   H     0.77500   0.29828   0.03870   0.00000  Uiso   1.00
H169   H     0.72823   0.25813   0.04642   0.00000  Uiso   1.00
H170   H     0.98433   0.14244   0.28601   0.00000  Uiso   1.00
H171   H     0.87514   0.00290   0.21596   0.00000  Uiso   1.00
H172   H     0.79045   0.33212   0.28412   0.00000  Uiso   1.00
H173   H     0.81691   0.17434   0.10079   0.00000  Uiso   1.00
H174   H     0.93431   0.11991   0.46118   0.00000  Uiso   1.00
H175   H     0.76672   0.24881   0.40171   0.00000  Uiso   1.00
H176   H     0.84007   0.15280   0.40568   0.00000  Uiso   1.00
H177   H     0.80355   0.21936   0.07249   0.00000  Uiso   1.00
N178   N     0.71566   0.21472   0.17940   0.00000  Uiso   1.00
N179   N     0.93966   0.07571   0.11273   0.00000  Uiso   1.00
N180   N     0.72884   0.30661   0.48665   0.00000  Uiso   1.00
N181   N     0.93090   0.16845   0.38476   0.00000  Uiso   1.00
O182   O     0.83333   0.16667   0.25000   0.00000  Uiso   1.00
O183   O     0.82360   0.12393   0.16625   0.00000  Uiso   1.00
O184   O     0.79354   0.20646   0.33749   0.00000  Uiso   1.00
O185   O     0.87755   0.17493   0.15877   0.00000  Uiso   1.00
O186   O     0.83865   0.16135   0.33749   0.00000  Uiso   1.00
O187   O     0.84515   0.08101   0.27820   0.00000  Uiso   1.00
O188   O     0.81247   0.26136   0.26767   0.00000  Uiso   1.00
O189   O     0.74119   0.13251   0.23607   0.00000  Uiso   1.00
O190   O     0.93452   0.19179   0.21805   0.00000  Uiso   1.00
O191   O     0.73656   0.18960   0.27820   0.00000  Uiso   1.00
O192   O     0.92106   0.15277   0.26767   0.00000  Uiso   1.00
O193   O     0.80467   0.06903   0.23607   0.00000  Uiso   1.00
O194   O     0.87104   0.25527   0.21805   0.00000  Uiso   1.00
Zn195  Zn    0.85910   0.14090   0.28277   0.00000  Uiso   1.00
Zn196  Zn    0.80125   0.12378   0.22257   0.00000  Uiso   1.00
Zn197  Zn    0.87833   0.19664   0.21188   0.00000  Uiso   1.00
Zn198  Zn    0.79465   0.20535   0.28277   0.00000  Uiso   1.00
C199   C     0.05241   0.49300   0.25919   0.00000  Uiso   1.00
C200   C     0.22063   0.49095   0.45762   0.00000  Uiso   1.00
C201   C     0.23965   0.46907   0.47759   0.00000  Uiso   1.00
C202   C     0.28119   0.50691   0.24098   0.00000  Uiso   1.00
C203   C     0.22441   0.46866   0.01843   0.00000  Uiso   1.00
C204   C     0.19049   0.49240   0.04054   0.00000  Uiso   1.00
C205   C     0.24451   0.44635   0.03753   0.00000  Uiso   1.00
C206   C     0.23207   0.44795   0.07868   0.00000  Uiso   1.00
C207   C     0.17696   0.49185   0.08203   0.00000  Uiso   1.00
C208   C     0.32742   0.50938   0.23655   0.00000  Uiso   1.00
C209   C     0.00723   0.49148   0.26197   0.00000  Uiso   1.00
C210   C     0.11510   0.56638   0.41811   0.00000  Uiso   1.00
C211   C     0.18112   0.65556   0.23805   0.00000  Uiso   1.00
C212   C     0.15157   0.34541   0.26204   0.00000  Uiso   1.00
C213   C     0.15599   0.38945   0.25884   0.00000  Uiso   1.00
C214   C     0.17692   0.61106   0.24131   0.00000  Uiso   1.00
C215   C     0.18837   0.47871   0.14391   0.00000  Uiso   1.00
C216   C     0.14553   0.52135   0.35626   0.00000  Uiso   1.00
C217   C     0.13901   0.53354   0.39895   0.00000  Uiso   1.00
C218   C     0.19825   0.47104   0.10094   0.00000  Uiso   1.00
C219   C     0.10965   0.57904   0.45827   0.00000  Uiso   1.00
C220   C     0.09537   0.59990   0.04782   0.00000  Uiso   1.00
C221   C     0.15869   0.51395   0.42004   0.00000  Uiso   1.00
C222   C     0.02463   0.53091   0.20476   0.00000  Uiso   1.00
C223   C     0.25480   0.42634   0.09757   0.00000  Uiso   1.00
C224   C     0.08332   0.61283   0.47430   0.00000  Uiso   1.00
C225   C     0.24476   0.49697   0.41711   0.00000  Uiso   1.00
C226   C     0.15825   0.52870   0.45928   0.00000  Uiso   1.00
C227   C     0.13018   0.55939   0.48025   0.00000  Uiso   1.00
C228   C     0.18330   0.51137   0.47851   0.00000  Uiso   1.00
C229   C     0.17159   0.51588   0.02044   0.00000  Uiso   1.00
C230   C     0.14303   0.54523   0.04103   0.00000  Uiso   1.00
C231   C     0.12371   0.56808   0.02187   0.00000  Uiso   1.00
H232   H     0.27076   0.42859   0.02039   0.00000  Uiso   1.00
H233   H     0.09419   0.60144   0.07947   0.00000  Uiso   1.00
H234   H     0.10833   0.63162   0.03870   0.00000  Uiso   1.00
H235   H     0.06156   0.59147   0.04642   0.00000  Uiso   1.00
H236   H     0.31766   0.47577   0.28601   0.00000  Uiso   1.00
H237   H     0.20847   0.33624   0.21596   0.00000  Uiso   1.00
H238   H     0.12379   0.66545   0.28412   0.00000  Uiso   1.00
H239   H     0.15024   0.50768   0.10079   0.00000  Uiso   1.00
H240   H     0.26765   0.45324   0.46118   0.00000  Uiso   1.00
H241   H     0.10006   0.58215   0.40171   0.00000  Uiso   1.00
H242   H     0.17340   0.48613   0.40568   0.00000  Uiso   1.00
H243   H     0.13689   0.55269   0.07249   0.00000  Uiso   1.00
N244   N     0.04900   0.54805   0.17940   0.00000  Uiso   1.00
N245   N     0.27299   0.40904   0.11273   0.00000  Uiso   1.00
N246   N     0.06218   0.63994   0.48665   0.00000  Uiso   1.00
N247   N     0.26423   0.50178   0.38476   0.00000  Uiso   1.00
O248   O     0.16667   0.50000   0.25000   0.00000  Uiso   1.00
O249   O     0.15693   0.45726   0.16625   0.00000  Uiso   1.00
O250   O     0.12687   0.53979   0.33749   0.00000  Uiso   1.00
O251   O     0.21088   0.50826   0.15877   0.00000  Uiso   1.00
O252   O     0.17198   0.49468   0.33749   0.00000  Uiso   1.00
O253   O     0.17849   0.41434   0.27820   0.00000  Uiso   1.00
O254   O     0.14581   0.59469   0.26767   0.00000  Uiso   1.00
O255   O     0.07452   0.46584   0.23607   0.00000  Uiso   1.00
O256   O     0.26785   0.52512   0.21805   0.00000  Uiso   1.00
O257   O     0.06990   0.52293   0.27820   0.00000  Uiso   1.00
O258   O     0.25440   0.48610   0.26767   0.00000  Uiso   1.00
O259   O     0.13800   0.40236   0.23607   0.00000  Uiso   1.00
O260   O     0.20437   0.58860   0.21805   0.00000  Uiso   1.00
Zn261  Zn    0.19244   0.47423   0.28277   0.00000  Uiso   1.00
Zn262  Zn    0.13459   0.45711   0.22257   0.00000  Uiso   1.00
Zn263  Zn    0.21166   0.52997   0.21188   0.00000  Uiso   1.00
Zn264  Zn    0.12798   0.53868   0.28277   0.00000  Uiso   1.00
C265   C     0.38574   0.49300   0.25919   0.00000  Uiso   1.00
C266   C     0.55396   0.49095   0.45762   0.00000  Uiso   1.00
C267   C     0.57298   0.46907   0.47759   0.00000  Uiso   1.00
C268   C     0.61452   0.50691   0.24098   0.00000  Uiso   1.00
C269   C     0.55774   0.46866   0.01843   0.00000  Uiso   1.00
C270   C     0.52382   0.49240   0.04054   0.00000  Uiso   1.00
C271   C     0.57784   0.44635   0.03753   0.00000  Uiso   1.00
C272   C     0.56540   0.44795   0.07868   0.00000  Uiso   1.00
C273   C     0.51029   0.49185   0.08203   0.00000  Uiso   1.00
C274   C     0.66076   0.50938   0.23655   0.00000  Uiso   1.00
C275   C     0.34056   0.49148   0.26197   0.00000  Uiso   1.00
C276   C     0.44844   0.56638   0.41811   0.00000  Uiso   1.00
C277   C     0.51445   0.65556   0.23805   0.00000  Uiso   1.00
C278   C     0.48491   0.34541   0.26204   0.00000  Uiso   1.00
C279   C     0.48932   0.38945   0.25884   0.00000  Uiso   1.00
C280   C     0.51026   0.61106   0.24131   0.00000  Uiso   1.00
C281   C     0.52171   0.47871   0.14391   0.00000  Uiso   1.00
C282   C     0.47886   0.52135   0.35626   0.00000  Uiso   1.00
C283   C     0.47234   0.53354   0.39895   0.00000  Uiso   1.00
C284   C     0.53158   0.47104   0.10094   0.00000  Uiso   1.00
C285   C     0.44298   0.57904   0.45827   0.00000  Uiso   1.00
C286   C     0.42870   0.59990   0.04782   0.00000  Uiso   1.00
C287   C     0.49202   0.51395   0.42004   0.00000  Uiso   1.00
C288   C     0.35796   0.53091   0.20476   0.00000  Uiso   1.00
C289   C     0.58813   0.42634   0.09757   0.00000  Uiso   1.00
C290   C     0.41666   0.61283   0.47430   0.00000  Uiso   1.00
C291   C     0.57810   0.49697   0.41711   0.00000  Uiso   1.00
C292   C     0.49159   0.52870   0.45928   0.00000  Uiso   1.00
C293   C     0.46351   0.55939   0.48025   0.00000  Uiso   1.00
C294   C     0.51663   0.51137   0.47851   0.00000  Uiso   1.00
C295   C     0.50493   0.51588   0.02044   0.00000  Uiso   1.00
C296   C     0.47637   0.54523   0.04103   0.00000  Uiso   1.00
C297   C     0.45704   0.56808   0.02187   0.00000  Uiso   1.00
H298   H     0.60410   0.42859   0.02039   0.00000  Uiso   1.00
H299   H     0.42753   0.60144   0.07947   0.00000  Uiso   1.00
H300   H     0.44167   0.63162   0.03870   0.00000  Uiso   1.00
H301   H     0.39490   0.59147   0.04642   0.00000  Uiso   1.00
H302   H     0.65100   0.47577   0.28601   0.00000  Uiso   1.00
H303   H     0.54181   0.33624   0.21596   0.00000  Uiso   1.00
H304   H     0.45712   0.66545   0.28412   0.00000  Uiso   1.00
H305   H     0.48358   0.50768   0.10079   0.00000  Uiso   1.00
H306   H     0.60098   0.45324   0.46118   0.00000  Uiso   1.00
H307   H     0.43339   0.58215   0.40171   0.00000  Uiso   1.00
H308   H     0.50673   0.48613   0.40568   0.00000  Uiso   1.00
H309   H     0.47022   0.55269   0.07249   0.00000  Uiso   1.00
N310   N     0.38233   0.54805   0.17940   0.00000  Uiso   1.00
N311   N     0.60632   0.40904   0.11273   0.00000  Uiso   1.00
N312   N     0.39551   0.63994   0.48665   0.00000  Uiso   1.00
N313   N     0.59756   0.50178   0.38476   0.00000  Uiso   1.00
O314   O     0.50000   0.50000   0.25000   0.00000  Uiso   1.00
O315   O     0.49027   0.45726   0.16625   0.00000  Uiso   1.00
O316   O     0.46020   0.53979   0.33749   0.00000  Uiso   1.00
O317   O     0.54421   0.50826   0.15877   0.00000  Uiso   1.00
O318   O     0.50532   0.49468   0.33749   0.00000  Uiso   1.00
O319   O     0.51182   0.41434   0.27820   0.00000  Uiso   1.00
O320   O     0.47914   0.59469   0.26767   0.00000  Uiso   1.00
O321   O     0.40785   0.46584   0.23607   0.00000  Uiso   1.00
O322   O     0.60119   0.52512   0.21805   0.00000  Uiso   1.00
O323   O     0.40323   0.52293   0.27820   0.00000  Uiso   1.00
O324   O     0.58773   0.48610   0.26767   0.00000  Uiso   1.00
O325   O     0.47133   0.40236   0.23607   0.00000  Uiso   1.00
O326   O     0.53771   0.58860   0.21805   0.00000  Uiso   1.00
Zn327  Zn    0.52577   0.47423   0.28277   0.00000  Uiso   1.00
Zn328  Zn    0.46792   0.45711   0.22257   0.00000  Uiso   1.00
Zn329  Zn    0.54500   0.52997   0.21188   0.00000  Uiso   1.00
Zn330  Zn    0.46131   0.53868   0.28277   0.00000  Uiso   1.00
C331   C     0.71908   0.49300   0.25919   0.00000  Uiso   1.00
C332   C     0.88729   0.49095   0.45762   0.00000  Uiso   1.00
C333   C     0.90632   0.46907   0.47759   0.00000  Uiso   1.00
C334   C     0.94786   0.50691   0.24098   0.00000  Uiso   1.00
C335   C     0.89107   0.46866   0.01843   0.00000  Uiso   1.00
C336   C     0.85716   0.49240   0.04054   0.00000  Uiso   1.00
C337   C     0.91118   0.44635   0.03753   0.00000  Uiso   1.00
C338   C     0.89873   0.44795   0.07868   0.00000  Uiso   1.00
C339   C     0.84363   0.49185   0.08203   0.00000  Uiso   1.00
C340   C     0.99409   0.50938   0.23655   0.00000  Uiso   1.00
C341   C     0.67390   0.49148   0.26197   0.00000  Uiso   1.00
C342   C     0.78177   0.56638   0.41811   0.00000  Uiso   1.00
C343   C     0.84778   0.65556   0.23805   0.00000  Uiso   1.00
C344   C     0.81824   0.34541   0.26204   0.00000  Uiso   1.00
C345   C     0.82265   0.38945   0.25884   0.00000  Uiso   1.00
C346   C     0.84359   0.61106   0.24131   0.00000  Uiso   1.00
C347   C     0.85504   0.47871   0.14391   0.00000  Uiso   1.00
C348   C     0.81219   0.52135   0.35626   0.00000  Uiso   1.00
C349   C     0.80568   0.53354   0.39895   0.00000  Uiso   1.00
C350   C     0.86491   0.47104   0.10094   0.00000  Uiso   1.00
C351   C     0.77632   0.57904   0.45827   0.00000  Uiso   1.00
C352   C     0.76203   0.59990   0.04782   0.00000  Uiso   1.00
C353   C     0.82535   0.51395   0.42004   0.00000  Uiso   1.00
C354   C     0.69130   0.53091   0.20476   0.00000  Uiso   1.00
C355   C     0.92146   0.42634   0.09757   0.00000  Uiso   1.00
C356   C     0.74999   0.61283   0.47430   0.00000  Uiso   1.00
C357   C     0.91143   0.49697   0.41711   0.00000  Uiso   1.00
C358   C     0.82492   0.52870   0.45928   0.00000  Uiso   1.00
C359   C     0.79684   0.55939   0.48025   0.00000  Uiso   1.00
C360   C     0.84997   0.51137   0.47851   0.00000  Uiso   1.00
C361   C     0.83826   0.51588   0.02044   0.00000  Uiso   1.00
C362   C     0.80970   0.54523   0.04103   0.00000  Uiso   1.00
C363   C     0.79038   0.56808   0.02187   0.00000  Uiso   1.00
H364   H     0.93743   0.42859   0.02039   0.00000  Uiso   1.00
H365   H     0.76086   0.60144   0.07947   0.00000  Uiso   1.00
H366   H     0.77500   0.63162   0.03870   0.00000  Uiso   1.00
H367   H     0.72823   0.59147   0.04642   0.00000  Uiso   1.00
H368   H     0.98433   0.47577   0.28601   0.00000  Uiso   1.00
H369   H     0.87514   0.33624   0.21596   0.00000  Uiso   1.00
H370   H     0.79045   0.66545   0.28412   0.00000  Uiso   1.00
H371   H     0.81691   0.50768   0.10079   0.00000  Uiso   1.00
H372   H     0.93431   0.45324   0.46118   0.00000  Uiso   1.00
H373   H     0.76672   0.58215   0.40171   0.00000  Uiso   1.00
H374   H     0.84007   0.48613   0.40568   0.00000  Uiso   1.00
H375   H     0.80355   0.55269   0.07249   0.00000  Uiso   1.00
N376   N     0.71566   0.54805   0.17940   0.00000  Uiso   1.00
N377   N     0.93966   0.40904   0.11273   0.00000  Uiso   1.00
N378   N     0.72884   0.63994   0.48665   0.00000  Uiso   1.00
N379   N     0.93090   0.50178   0.38476   0.00000  Uiso   1.00
O380   O     0.83333   0.50000   0.25000   0.00000  Uiso   1.00
O381   O     0.82360   0.45726   0.16625   0.00000  Uiso   1.00
O382   O     0.79354   0.53979   0.33749   0.00000  Uiso   1.00
O383   O     0.87755   0.50826   0.15877   0.00000  Uiso   1.00
O384   O     0.83865   0.49468   0.33749   0.00000  Uiso   1.00
O385   O     0.84515   0.41434   0.27820   0.00000  Uiso   1.00
O386   O     0.81247   0.59469   0.26767   0.00000  Uiso   1.00
O387   O     0.74119   0.46584   0.23607   0.00000  Uiso   1.00
O388   O     0.93452   0.52512   0.21805   0.00000  Uiso   1.00
O389   O     0.73656   0.52293   0.27820   0.00000  Uiso   1.00
O390   O     0.92106   0.48610   0.26767   0.00000  Uiso   1.00
O391   O     0.80467   0.40236   0.23607   0.00000  Uiso   1.00
O392   O     0.87104   0.58860   0.21805   0.00000  Uiso   1.00
Zn393  Zn    0.85910   0.47423   0.28277   0.00000  Uiso   1.00
Zn394  Zn    0.80125   0.45711   0.22257   0.00000  Uiso   1.00
Zn395  Zn    0.87833   0.52997   0.21188   0.00000  Uiso   1.00
Zn396  Zn    0.79465   0.53868   0.28277   0.00000  Uiso   1.00
C397   C     0.05241   0.82633   0.25919   0.00000  Uiso   1.00
C398   C     0.22063   0.82428   0.45762   0.00000  Uiso   1.00
C399   C     0.23965   0.80240   0.47759   0.00000  Uiso   1.00
C400   C     0.28119   0.84025   0.24098   0.00000  Uiso   1.00
C401   C     0.22441   0.80200   0.01843   0.00000  Uiso   1.00
C402   C     0.19049   0.82573   0.04054   0.00000  Uiso   1.00
C403   C     0.24451   0.77968   0.03753   0.00000  Uiso   1.00
C404   C     0.23207   0.78128   0.07868   0.00000  Uiso   1.00
C405   C     0.17696   0.82518   0.08203   0.00000  Uiso   1.00
C406   C     0.32742   0.84272   0.23655   0.00000  Uiso   1.00
C407   C     0.00723   0.82481   0.26197   0.00000  Uiso   1.00
C408   C     0.11510   0.89971   0.41811   0.00000  Uiso   1.00
C409   C     0.18112   0.98890   0.23805   0.00000  Uiso   1.00
C410   C     0.15157   0.67874   0.26204   0.00000  Uiso   1.00
C411   C     0.15599   0.72279   0.25884   0.00000  Uiso   1.00
C412   C     0.17692   0.94440   0.24131   0.00000  Uiso   1.00
C413   C     0.18837   0.81204   0.14391   0.00000  Uiso   1.00
C414   C     0.14553   0.85468   0.35626   0.00000  Uiso   1.00
C415   C     0.13901   0.86688   0.39895   0.00000  Uiso   1.00
C416   C     0.19825   0.80437   0.10094   0.00000  Uiso   1.00
C417   C     0.10965   0.91238   0.45827   0.00000  Uiso   1.00
C418   C     0.09537   0.93324   0.04782   0.00000  Uiso   1.00
C419   C     0.15869   0.84728   0.42004   0.00000  Uiso   1.00
C420   C     0.02463   0.86425   0.20476   0.00000  Uiso   1.00
C421   C     0.25480   0.75967   0.09757   0.00000  Uiso   1.00
C422   C     0.08332   0.94617   0.47430   0.00000  Uiso   1.00
C423   C     0.24476   0.83030   0.41711   0.00000  Uiso   1.00
C424   C     0.15825   0.86204   0.45928   0.00000  Uiso   1.00
C425   C     0.13018   0.89272   0.48025   0.00000  Uiso   1.00
C426   C     0.18330   0.84470   0.47851   0.00000  Uiso   1.00
C427   C     0.17159   0.84921   0.02044   0.00000  Uiso   1.00
C428   C     0.14303   0.87856   0.04103   0.00000  Uiso   1.00
C429   C     0.12371   0.90141   0.02187   0.00000  Uiso   1.00
H430   H     0.27076   0.76193   0.02039   0.00000  Uiso   1.00
H431   H     0.09419   0.93478   0.07947   0.00000  Uiso   1.00
H432   H     0.10833   0.96495   0.03870   0.00000  Uiso   1.00
H433   H     0.06156   0.92480   0.04642   0.00000  Uiso   1.00
H434   H     0.31766   0.80911   0.28601   0.00000  Uiso   1.00
H435   H     0.20847   0.66957   0.21596   0.00000  Uiso   1.00
H436   H     0.12379   0.99878   0.28412   0.00000  Uiso   1.00
H437   H     0.15024   0.84101   0.10079   0.00000  Uiso   1.00
H438   H     0.26765   0.78657   0.46118   0.00000  Uiso   1.00
H439   H     0.10006   0.91548   0.40171   0.00000  Uiso   1.00
H440   H     0.17340   0.81946   0.40568   0.00000  Uiso   1.00
H441   H     0.13689   0.88603   0.07249   0.00000  Uiso   1.00
N442   N     0.04900   0.88138   0.17940   0.00000  Uiso   1.00
N443   N     0.27299   0.74237   0.11273   0.00000  Uiso   1.00
N444   N     0.06218   0.97327   0.48665   0.00000  Uiso   1.00
N445   N     0.26423   0.83512   0.38476   0.00000  Uiso   1.00
O446   O     0.16667   0.83333   0.25000   0.00000  Uiso   1.00
O447   O     0.15693   0.79060   0.16625   0.00000  Uiso   1.00
O448   O     0.12687   0.87313   0.33749   0.00000  Uiso   1.00
O449   O     0.21088   0.84159   0.15877   0.00000  Uiso   1.00
O450   O     0.17198   0.82802   0.33749   0.00000  Uiso   1.00
O451   O     0.17849   0.74768   0.27820   0.00000  Uiso   1.00
O452   O     0.14581   0.92803   0.26767   0.00000  Uiso   1.00
O453   O     0.07452   0.79917   0.23607   0.00000  Uiso   1.00
O454   O     0.26785   0.85845   0.21805   0.00000  Uiso   1.00
O455   O     0.06990   0.85627   0.27820   0.00000  Uiso   1.00
O456   O     0.25440   0.81944   0.26767   0.00000  Uiso   1.00
O457   O     0.13800   0.73570   0.23607   0.00000  Uiso   1.00
O458   O     0.20437   0.92193   0.21805   0.00000  Uiso   1.00
Zn459  Zn    0.19244   0.80756   0.28277   0.00000  Uiso   1.00
Zn460  Zn    0.13459   0.79044   0.22257   0.00000  Uiso   1.00
Zn461  Zn    0.21166   0.86331   0.21188   0.00000  Uiso   1.00
Zn462  Zn    0.12798   0.87202   0.28277   0.00000  Uiso   1.00
C463   C     0.38574   0.82633   0.25919   0.00000  Uiso   1.00
C464   C     0.55396   0.82428   0.45762   0.00000  Uiso   1.00
C465   C     0.57298   0.80240   0.47759   0.00000  Uiso   1.00
C466   C     0.61452   0.84025   0.24098   0.00000  Uiso   1.00
C467   C     0.55774   0.80200   0.01843   0.00000  Uiso   1.00
C468   C     0.52382   0.82573   0.04054   0.00000  Uiso   1.00
C469   C     0.57784   0.77968   0.03753   0.00000  Uiso   1.00
C470   C     0.56540   0.78128   0.07868   0.00000  Uiso   1.00
C471   C     0.51029   0.82518   0.08203   0.00000  Uiso   1.00
C472   C     0.66076   0.84272   0.23655   0.00000  Uiso   1.00
C473   C     0.34056   0.82481   0.26197   0.00000  Uiso   1.00
C474   C     0.44844   0.89971   0.41811   0.00000  Uiso   1.00
C475   C     0.51445   0.98890   0.23805   0.00000  Uiso   1.00
C476   C     0.48491   0.67874   0.26204   0.00000  Uiso   1.00
C477   C     0.48932   0.72279   0.25884   0.00000  Uiso   1.00
C478   C     0.51026   0.94440   0.24131   0.00000  Uiso   1.00
C479   C     0.52171   0.81204   0.14391   0.00000  Uiso   1.00
C480   C     0.47886   0.85468   0.35626   0.00000  Uiso   1.00
C481   C     0.47234   0.86688   0.39895   0.00000  Uiso   1.00
C482   C     0.53158   0.80437   0.10094   0.00000  Uiso   1.00
C483   C     0.44298   0.91238   0.45827   0.00000  Uiso   1.00
C484   C     0.42870   0.93324   0.04782   0.00000  Uiso   1.00
C485   C     0.49202   0.84728   0.42004   0.00000  Uiso   1.00
C486   C     0.35796   0.86425   0.20476   0.00000  Uiso   1.00
C487   C     0.58813   0.75967   0.09757   0.00000  Uiso   1.00
C488   C     0.41666   0.94617   0.47430   0.00000  Uiso   1.00
C489   C     0.57810   0.83030   0.41711   0.00000  Uiso   1.00
C490   C     0.49159   0.86204   0.45928   0.00000  Uiso   1.00
C491   C     0.46351   0.89272   0.48025   0.00000  Uiso   1.00
C492   C     0.51663   0.84470   0.47851   0.00000  Uiso   1.00
C493   C     0.50493   0.84921   0.02044   0.00000  Uiso   1.00
C494   C     0.47637   0.87856   0.04103   0.00000  Uiso   1.00
C495   C     0.45704   0.90141   0.02187   0.00000  Uiso   1.00
H496   H     0.60410   0.76193   0.02039   0.00000  Uiso   1.00
H497   H     0.42753   0.93478   0.07947   0.00000  Uiso   1.00
H498   H     0.44167   0.96495   0.03870   0.00000  Uiso   1.00
H499   H     0.39490   0.92480   0.04642   0.00000  Uiso   1.00
H500   H     0.65100   0.80911   0.28601   0.00000  Uiso   1.00
H501   H     0.54181   0.66957   0.21596   0.00000  Uiso   1.00
H502   H     0.45712   0.99878   0.28412   0.00000  Uiso   1.00
H503   H     0.48358   0.84101   0.10079   0.00000  Uiso   1.00
H504   H     0.60098   0.78657   0.46118   0.00000  Uiso   1.00
H505   H     0.43339   0.91548   0.40171   0.00000  Uiso   1.00
H506   H     0.50673   0.81946   0.40568   0.00000  Uiso   1.00
H507   H     0.47022   0.88603   0.07249   0.00000  Uiso   1.00
N508   N     0.38233   0.88138   0.17940   0.00000  Uiso   1.00
N509   N     0.60632   0.74237   0.11273   0.00000  Uiso   1.00
N510   N     0.39551   0.97327   0.48665   0.00000  Uiso   1.00
N511   N     0.59756   0.83512   0.38476   0.00000  Uiso   1.00
O512   O     0.50000   0.83333   0.25000   0.00000  Uiso   1.00
O513   O     0.49027   0.79060   0.16625   0.00000  Uiso   1.00
O514   O     0.46020   0.87313   0.33749   0.00000  Uiso   1.00
O515   O     0.54421   0.84159   0.15877   0.00000  Uiso   1.00
O516   O     0.50532   0.82802   0.33749   0.00000  Uiso   1.00
O517   O     0.51182   0.74768   0.27820   0.00000  Uiso   1.00
O518   O     0.47914   0.92803   0.26767   0.00000  Uiso   1.00
O519   O     0.40785   0.79917   0.23607   0.00000  Uiso   1.00
O520   O     0.60119   0.85845   0.21805   0.00000  Uiso   1.00
O521   O     0.40323   0.85627   0.27820   0.00000  Uiso   1.00
O522   O     0.58773   0.81944   0.26767   0.00000  Uiso   1.00
O523   O     0.47133   0.73570   0.23607   0.00000  Uiso   1.00
O524   O     0.53771   0.92193   0.21805   0.00000  Uiso   1.00
Zn525  Zn    0.52577   0.80756   0.28277   0.00000  Uiso   1.00
Zn526  Zn    0.46792   0.79044   0.22257   0.00000  Uiso   1.00
Zn527  Zn    0.54500   0.86331   0.21188   0.00000  Uiso   1.00
Zn528  Zn    0.46131   0.87202   0.28277   0.00000  Uiso   1.00
C529   C     0.71908   0.82633   0.25919   0.00000  Uiso   1.00
C530   C     0.88729   0.82428   0.45762   0.00000  Uiso   1.00
C531   C     0.90632   0.80240   0.47759   0.00000  Uiso   1.00
C532   C     0.94786   0.84025   0.24098   0.00000  Uiso   1.00
C533   C     0.89107   0.80200   0.01843   0.00000  Uiso   1.00
C534   C     0.85716   0.82573   0.04054   0.00000  Uiso   1.00
C535   C     0.91118   0.77968   0.03753   0.00000  Uiso   1.00
C536   C     0.89873   0.78128   0.07868   0.00000  Uiso   1.00
C537   C     0.84363   0.82518   0.08203   0.00000  Uiso   1.00
C538   C     0.99409   0.84272   0.23655   0.00000  Uiso   1.00
C539   C     0.67390   0.82481   0.26197   0.00000  Uiso   1.00
C540   C     0.78177   0.89971   0.41811   0.00000  Uiso   1.00
C541   C     0.84778   0.98890   0.23805   0.00000  Uiso   1.00
C542   C     0.81824   0.67874   0.26204   0.00000  Uiso   1.00
C543   C     0.82265   0.72279   0.25884   0.00000  Uiso   1.00
C544   C     0.84359   0.94440   0.24131   0.00000  Uiso   1.00
C545   C     0.85504   0.81204   0.14391   0.00000  Uiso   1.00
C546   C     0.81219   0.85468   0.35626   0.00000  Uiso   1.00
C547   C     0.80568   0.86688   0.39895   0.00000  Uiso   1.00
C548   C     0.86491   0.80437   0.10094   0.00000  Uiso   1.00
C549   C     0.77632   0.91238   0.45827   0.00000  Uiso   1.00
C550   C     0.76203   0.93324   0.04782   0.00000  Uiso   1.00
C551   C     0.82535   0.84728   0.42004   0.00000  Uiso   1.00
C552   C     0.69130   0.86425   0.20476   0.00000  Uiso   1.00
C553   C     0.92146   0.75967   0.09757   0.00000  Uiso   1.00
C554   C     0.74999   0.94617   0.47430   0.00000  Uiso   1.00
C555   C     0.91143   0.83030   0.41711   0.00000  Uiso   1.00
C556   C     0.82492   0.86204   0.45928   0.00000  Uiso   1.00
C557   C     0.79684   0.89272   0.48025   0.00000  Uiso   1.00
C558   C     0.84997   0.84470   0.47851   0.00000  Uiso   1.00
C559   C     0.83826   0.84921   0.02044   0.00000  Uiso   1.00
C560   C     0.80970   0.87856   0.04103   0.00000  Uiso   1.00
C561   C     0.79038   0.90141   0.02187   0.00000  Uiso   1.00
H562   H     0.93743   0.76193   0.02039   0.00000  Uiso   1.00
H563   H     0.76086   0.93478   0.07947   0.00000  Uiso   1.00
H564   H     0.77500   0.96495   0.03870   0.00000  Uiso   1.00
H565   H     0.72823   0.92480   0.04642   0.00000  Uiso   1.00
H566   H     0.98433   0.80911   0.28601   0.00000  Uiso   1.00
H567   H     0.87514   0.66957   0.21596   0.00000  Uiso   1.00
H568   H     0.79045   0.99878   0.28412   0.00000  Uiso   1.00
H569   H     0.81691   0.84101   0.10079   0.00000  Uiso   1.00
H570   H     0.93431   0.78657   0.46118   0.00000  Uiso   1.00
H571   H     0.76672   0.91548   0.40171   0.00000  Uiso   1.00
H572   H     0.84007   0.81946   0.40568   0.00000  Uiso   1.00
H573   H     0.80355   0.88603   0.07249   0.00000  Uiso   1.00
N574   N     0.71566   0.88138   0.17940   0.00000  Uiso   1.00
N575   N     0.93966   0.74237   0.11273   0.00000  Uiso   1.00
N576   N     0.72884   0.97327   0.48665   0.00000  Uiso   1.00
N577   N     0.93090   0.83512   0.38476   0.00000  Uiso   1.00
O578   O     0.83333   0.83333   0.25000   0.00000  Uiso   1.00
O579   O     0.82360   0.79060   0.16625   0.00000  Uiso   1.00
O580   O     0.79354   0.87313   0.33749   0.00000  Uiso   1.00
O581   O     0.87755   0.84159   0.15877   0.00000  Uiso   1.00
O582   O     0.83865   0.82802   0.33749   0.00000  Uiso   1.00
O583   O     0.84515   0.74768   0.27820   0.00000  Uiso   1.00
O584   O     0.81247   0.92803   0.26767   0.00000  Uiso   1.00
O585   O     0.74119   0.79917   0.23607   0.00000  Uiso   1.00
O586   O     0.93452   0.85845   0.21805   0.00000  Uiso   1.00
O587   O     0.73656   0.85627   0.27820   0.00000  Uiso   1.00
O588   O     0.92106   0.81944   0.26767   0.00000  Uiso   1.00
O589   O     0.80467   0.73570   0.23607   0.00000  Uiso   1.00
O590   O     0.87104   0.92193   0.21805   0.00000  Uiso   1.00
Zn591  Zn    0.85910   0.80756   0.28277   0.00000  Uiso   1.00
Zn592  Zn    0.80125   0.79044   0.22257   0.00000  Uiso   1.00
Zn593  Zn    0.87833   0.86331   0.21188   0.00000  Uiso   1.00
Zn594  Zn    0.79465   0.87202   0.28277   0.00000  Uiso   1.00
C595   C     0.05241   0.15966   0.75919   0.00000  Uiso   1.00
C596   C     0.22063   0.15762   0.95762   0.00000  Uiso   1.00
C597   C     0.23965   0.13573   0.97759   0.00000  Uiso   1.00
C598   C     0.28119   0.17358   0.74098   0.00000  Uiso   1.00
C599   C     0.22441   0.13533   0.51843   0.00000  Uiso   1.00
C600   C     0.19049   0.15906   0.54054   0.00000  Uiso   1.00
C601   C     0.24451   0.11301   0.53753   0.00000  Uiso   1.00
C602   C     0.23207   0.11462   0.57868   0.00000  Uiso   1.00
C603   C     0.17696   0.15852   0.58203   0.00000  Uiso   1.00
C604   C     0.32742   0.17605   0.73655   0.00000  Uiso   1.00
C605   C     0.00723   0.15814   0.76197   0.00000  Uiso   1.00
C606   C     0.11510   0.23304   0.91811   0.00000  Uiso   1.00
C607   C     0.18112   0.32223   0.73805   0.00000  Uiso   1.00
C608   C     0.15157   0.01208   0.76204   0.00000  Uiso   1.00
C609   C     0.15599   0.05612   0.75884   0.00000  Uiso   1.00
C610   C     0.17692   0.27773   0.74131   0.00000  Uiso   1.00
C611   C     0.18837   0.14538   0.64391   0.00000  Uiso   1.00
C612   C     0.14553   0.18802   0.85626   0.00000  Uiso   1.00
C613   C     0.13901   0.20021   0.89895   0.00000  Uiso   1.00
C614   C     0.19825   0.13771   0.60094   0.00000  Uiso   1.00
C615   C     0.10965   0.24571   0.95827   0.00000  Uiso   1.00
C616   C     0.09537   0.26657   0.54782   0.00000  Uiso   1.00
C617   C     0.15869   0.18061   0.92004   0.00000  Uiso   1.00
C618   C     0.02463   0.19758   0.70476   0.00000  Uiso   1.00
C619   C     0.25480   0.09301   0.59757   0.00000  Uiso   1.00
C620   C     0.08332   0.27950   0.97430   0.00000  Uiso   1.00
C621   C     0.24476   0.16363   0.91711   0.00000  Uiso   1.00
C622   C     0.15825   0.19537   0.95928   0.00000  Uiso   1.00
C623   C     0.13018   0.22606   0.98025   0.00000  Uiso   1.00
C624   C     0.18330   0.17803   0.97851   0.00000  Uiso   1.00
C625   C     0.17159   0.18254   0.52044   0.00000  Uiso   1.00
C626   C     0.14303   0.21190   0.54103   0.00000  Uiso   1.00
C627   C     0.12371   0.23474   0.52187   0.00000  Uiso   1.00
H628   H     0.27076   0.09526   0.52039   0.00000  Uiso   1.00
H629   H     0.09419   0.26811   0.57947   0.00000  Uiso   1.00
H630   H     0.10833   0.29828   0.53870   0.00000  Uiso   1.00
H631   H     0.06156   0.25813   0.54642   0.00000  Uiso   1.00
H632   H     0.31766   0.14244   0.78601   0.00000  Uiso   1.00
H633   H     0.20847   0.00290   0.71596   0.00000  Uiso   1.00
H634   H     0.12379   0.33212   0.78412   0.00000  Uiso   1.00
H635   H     0.15024   0.17434   0.60079   0.00000  Uiso   1.00
H636   H     0.26765   0.11991   0.96118   0.00000  Uiso   1.00
H637   H     0.10006   0.24881   0.90171   0.00000  Uiso   1.00
H638   H     0.17340   0.15280   0.90568   0.00000  Uiso   1.00
H639   H     0.13689   0.21936   0.57249   0.00000  Uiso   1.00
N640   N     0.04900   0.21472   0.67940   0.00000  Uiso   1.00
N641   N     0.27299   0.07571   0.61273   0.00000  Uiso   1.00
N642   N     0.06218   0.30661   0.98665   0.00000  Uiso   1.00
N643   N     0.26423   0.16845   0.88476   0.00000  Uiso   1.00
O644   O     0.16667   0.16667   0.75000   0.00000  Uiso   1.00
O645   O     0.15693   0.12393   0.66625   0.00000  Uiso   1.00
O646   O     0.12687   0.20646   0.83749   0.00000  Uiso   1.00
O647   O     0.21088   0.17493   0.65877   0.00000  Uiso   1.00
O648   O     0.17198   0.16135   0.83749   0.00000  Uiso   1.00
O649   O     0.17849   0.08101   0.77820   0.00000  Uiso   1.00
O650   O     0.14581   0.26136   0.76767   0.00000  Uiso   1.00
O651   O     0.07452   0.13251   0.73607   0.00000  Uiso   1.00
O652   O     0.26785   0.19179   0.71805   0.00000  Uiso   1.00
O653   O     0.06990   0.18960   0.77820   0.00000  Uiso   1.00
O654   O     0.25440   0.15277   0.76767   0.00000  Uiso   1.00
O655   O     0.13800   0.06903   0.73607   0.00000  Uiso   1.00
O656   O     0.20437   0.25527   0.71805   0.00000  Uiso   1.00
Zn657  Zn    0.19244   0.14090   0.78277   0.00000  Uiso   1.00
Zn658  Zn    0.13459   0.12378   0.72257   0.00000  Uiso   1.00
Zn659  Zn    0.21166   0.19664   0.71188   0.00000  Uiso   1.00
Zn660  Zn    0.12798   0.20535   0.78277   0.00000  Uiso   1.00
C661   C     0.38574   0.15966   0.75919   0.00000  Uiso   1.00
C662   C     0.55396   0.15762   0.95762   0.00000  Uiso   1.00
C663   C     0.57298   0.13573   0.97759   0.00000  Uiso   1.00
C664   C     0.61452   0.17358   0.74098   0.00000  Uiso   1.00
C665   C     0.55774   0.13533   0.51843   0.00000  Uiso   1.00
C666   C     0.52382   0.15906   0.54054   0.00000  Uiso   1.00
C667   C     0.57784   0.11301   0.53753   0.00000  Uiso   1.00
C668   C     0.56540   0.11462   0.57868   0.00000  Uiso   1.00
C669   C     0.51029   0.15852   0.58203   0.00000  Uiso   1.00
C670   C     0.66076   0.17605   0.73655   0.00000  Uiso   1.00
C671   C     0.34056   0.15814   0.76197   0.00000  Uiso   1.00
C672   C     0.44844   0.23304   0.91811   0.00000  Uiso   1.00
C673   C     0.51445   0.32223   0.73805   0.00000  Uiso   1.00
C674   C     0.48491   0.01208   0.76204   0.00000  Uiso   1.00
C675   C     0.48932   0.05612   0.75884   0.00000  Uiso   1.00
C676   C     0.51026   0.27773   0.74131   0.00000  Uiso   1.00
C677   C     0.52171   0.14538   0.64391   0.00000  Uiso   1.00
C678   C     0.47886   0.18802   0.85626   0.00000  Uiso   1.00
C679   C     0.47234   0.20021   0.89895   0.00000  Uiso   1.00
C680   C     0.53158   0.13771   0.60094   0.00000  Uiso   1.00
C681   C     0.44298   0.24571   0.95827   0.00000  Uiso   1.00
C682   C     0.42870   0.26657   0.54782   0.00000  Uiso   1.00
C683   C     0.49202   0.18061   0.92004   0.00000  Uiso   1.00
C684   C     0.35796   0.19758   0.70476   0.00000  Uiso   1.00
C685   C     0.58813   0.09301   0.59757   0.00000  Uiso   1.00
C686   C     0.41666   0.27950   0.97430   0.00000  Uiso   1.00
C687   C     0.57810   0.16363   0.91711   0.00000  Uiso   1.00
C688   C     0.49159   0.19537   0.95928   0.00000  Uiso   1.00
C689   C     0.46351   0.22606   0.98025   0.00000  Uiso   1.00
C690   C     0.51663   0.17803   0.97851   0.00000  Uiso   1.00
C691   C     0.50493   0.18254   0.52044   0.00000  Uiso   1.00
C692   C     0.47637   0.21190   0.54103   0.00000  Uiso   1.00
C693   C     0.45704   0.23474   0.52187   0.00000  Uiso   1.00
H694   H     0.60410   0.09526   0.52039   0.00000  Uiso   1.00
H695   H     0.42753   0.26811   0.57947   0.00000  Uiso   1.00
H696   H     0.44167   0.29828   0.53870   0.00000  Uiso   1.00
H697   H     0.39490   0.25813   0.54642   0.00000  Uiso   1.00
H698   H     0.65100   0.14244   0.78601   0.00000  Uiso   1.00
H699   H     0.54181   0.00290   0.71596   0.00000  Uiso   1.00
H700   H     0.45712   0.33212   0.78412   0.00000  Uiso   1.00
H701   H     0.48358   0.17434   0.60079   0.00000  Uiso   1.00
H702   H     0.60098   0.11991   0.96118   0.00000  Uiso   1.00
H703   H     0.43339   0.24881   0.90171   0.00000  Uiso   1.00
H704   H     0.50673   0.15280   0.90568   0.00000  Uiso   1.00
H705   H     0.47022   0.21936   0.57249   0.00000  Uiso   1.00
N706   N     0.38233   0.21472   0.67940   0.00000  Uiso   1.00
N707   N     0.60632   0.07571   0.61273   0.00000  Uiso   1.00
N708   N     0.39551   0.30661   0.98665   0.00000  Uiso   1.00
N709   N     0.59756   0.16845   0.88476   0.00000  Uiso   1.00
O710   O     0.50000   0.16667   0.75000   0.00000  Uiso   1.00
O711   O     0.49027   0.12393   0.66625   0.00000  Uiso   1.00
O712   O     0.46020   0.20646   0.83749   0.00000  Uiso   1.00
O713   O     0.54421   0.17493   0.65877   0.00000  Uiso   1.00
O714   O     0.50532   0.16135   0.83749   0.00000  Uiso   1.00
O715   O     0.51182   0.08101   0.77820   0.00000  Uiso   1.00
O716   O     0.47914   0.26136   0.76767   0.00000  Uiso   1.00
O717   O     0.40785   0.13251   0.73607   0.00000  Uiso   1.00
O718   O     0.60119   0.19179   0.71805   0.00000  Uiso   1.00
O719   O     0.40323   0.18960   0.77820   0.00000  Uiso   1.00
O720   O     0.58773   0.15277   0.76767   0.00000  Uiso   1.00
O721   O     0.47133   0.06903   0.73607   0.00000  Uiso   1.00
O722   O     0.53771   0.25527   0.71805   0.00000  Uiso   1.00
Zn723  Zn    0.52577   0.14090   0.78277   0.00000  Uiso   1.00
Zn724  Zn    0.46792   0.12378   0.72257   0.00000  Uiso   1.00
Zn725  Zn    0.54500   0.19664   0.71188   0.00000  Uiso   1.00
Zn726  Zn    0.46131   0.20535   0.78277   0.00000  Uiso   1.00
C727   C     0.71908   0.15966   0.75919   0.00000  Uiso   1.00
C728   C     0.88729   0.15762   0.95762   0.00000  Uiso   1.00
C729   C     0.90632   0.13573   0.97759   0.00000  Uiso   1.00
C730   C     0.94786   0.17358   0.74098   0.00000  Uiso   1.00
C731   C     0.89107   0.13533   0.51843   0.00000  Uiso   1.00
C732   C     0.85716   0.15906   0.54054   0.00000  Uiso   1.00
C733   C     0.91118   0.11301   0.53753   0.00000  Uiso   1.00
C734   C     0.89873   0.11462   0.57868   0.00000  Uiso   1.00
C735   C     0.84363   0.15852   0.58203   0.00000  Uiso   1.00
C736   C     0.99409   0.17605   0.73655   0.00000  Uiso   1.00
C737   C     0.67390   0.15814   0.76197   0.00000  Uiso   1.00
C738   C     0.78177   0.23304   0.91811   0.00000  Uiso   1.00
C739   C     0.84778   0.32223   0.73805   0.00000  Uiso   1.00
C740   C     0.81824   0.01208   0.76204   0.00000  Uiso   1.00
C741   C     0.82265   0.05612   0.75884   0.00000  Uiso   1.00
C742   C     0.84359   0.27773   0.74131   0.00000  Uiso   1.00
C743   C     0.85504   0.14538   0.64391   0.00000  Uiso   1.00
C744   C     0.81219   0.18802   0.85626   0.00000  Uiso   1.00
C745   C     0.80568   0.20021   0.89895   0.00000  Uiso   1.00
C746   C     0.86491   0.13771   0.60094   0.00000  Uiso   1.00
C747   C     0.77632   0.24571   0.95827   0.00000  Uiso   1.00
C748   C     0.76203   0.26657   0.54782   0.00000  Uiso   1.00
C749   C     0.82535   0.18061   0.92004   0.00000  Uiso   1.00
C750   C     0.69130   0.19758   0.70476   0.00000  Uiso   1.00
C751   C     0.92146   0.09301   0.59757   0.00000  Uiso   1.00
C752   C     0.74999   0.27950   0.97430   0.00000  Uiso   1.00
C753   C     0.91143   0.16363   0.91711   0.00000  Uiso   1.00
C754   C     0.82492   0.19537   0.95928   0.00000  Uiso   1.00
C755   C     0.79684   0.22606   0.98025   0.00000  Uiso   1.00
C756   C     0.84997   0.17803   0.97851   0.00000  Uiso   1.00
C757   C     0.83826   0.18254   0.52044   0.00000  Uiso   1.00
C758   C     0.80970   0.21190   0.54103   0.00000  Uiso   1.00
C759   C     0.79038   0.23474   0.52187   0.00000  Uiso   1.00
H760   H     0.93743   0.09526   0.52039   0.00000  Uiso   1.00
H761   H     0.76086   0.26811   0.57947   0.00000  Uiso   1.00
H762   H     0.77500   0.29828   0.53870   0.00000  Uiso   1.00
H763   H     0.72823   0.25813   0.54642   0.00000  Uiso   1.00
H764   H     0.98433   0.14244   0.78601   0.00000  Uiso   1.00
H765   H     0.87514   0.00290   0.71596   0.00000  Uiso   1.00
H766   H     0.79045   0.33212   0.78412   0.00000  Uiso   1.00
H767   H     0.81691   0.17434   0.60079   0.00000  Uiso   1.00
H768   H     0.93431   0.11991   0.96118   0.00000  Uiso   1.00
H769   H     0.76672   0.24881   0.90171   0.00000  Uiso   1.00
H770   H     0.84007   0.15280   0.90568   0.00000  Uiso   1.00
H771   H     0.80355   0.21936   0.57249   0.00000  Uiso   1.00
N772   N     0.71566   0.21472   0.67940   0.00000  Uiso   1.00
N773   N     0.93966   0.07571   0.61273   0.00000  Uiso   1.00
N774   N     0.72884   0.30661   0.98665   0.00000  Uiso   1.00
N775   N     0.93090   0.16845   0.88476   0.00000  Uiso   1.00
O776   O     0.83333   0.16667   0.75000   0.00000  Uiso   1.00
O777   O     0.82360   0.12393   0.66625   0.00000  Uiso   1.00
O778   O     0.79354   0.20646   0.83749   0.00000  Uiso   1.00
O779   O     0.87755   0.17493   0.65877   0.00000  Uiso   1.00
O780   O     0.83865   0.16135   0.83749   0.00000  Uiso   1.00
O781   O     0.84515   0.08101   0.77820   0.00000  Uiso   1.00
O782   O     0.81247   0.26136   0.76767   0.00000  Uiso   1.00
O783   O     0.74119   0.13251   0.73607   0.00000  Uiso   1.00
O784   O     0.93452   0.19179   0.71805   0.00000  Uiso   1.00
O785   O     0.73656   0.18960   0.77820   0.00000  Uiso   1.00
O786   O     0.92106   0.15277   0.76767   0.00000  Uiso   1.00
O787   O     0.80467   0.06903   0.73607   0.00000  Uiso   1.00
O788   O     0.87104   0.25527   0.71805   0.00000  Uiso   1.00
Zn789  Zn    0.85910   0.14090   0.78277   0.00000  Uiso   1.00
Zn790  Zn    0.80125   0.12378   0.72257   0.00000  Uiso   1.00
Zn791  Zn    0.87833   0.19664   0.71188   0.00000  Uiso   1.00
Zn792  Zn    0.79465   0.20535   0.78277   0.00000  Uiso   1.00
C793   C     0.05241   0.49300   0.75919   0.00000  Uiso   1.00
C794   C     0.22063   0.49095   0.95762   0.00000  Uiso   1.00
C795   C     0.23965   0.46907   0.97759   0.00000  Uiso   1.00
C796   C     0.28119   0.50691   0.74098   0.00000  Uiso   1.00
C797   C     0.22441   0.46866   0.51843   0.00000  Uiso   1.00
C798   C     0.19049   0.49240   0.54054   0.00000  Uiso   1.00
C799   C     0.24451   0.44635   0.53753   0.00000  Uiso   1.00
C800   C     0.23207   0.44795   0.57868   0.00000  Uiso   1.00
C801   C     0.17696   0.49185   0.58203   0.00000  Uiso   1.00
C802   C     0.32742   0.50938   0.73655   0.00000  Uiso   1.00
C803   C     0.00723   0.49148   0.76197   0.00000  Uiso   1.00
C804   C     0.11510   0.56638   0.91811   0.00000  Uiso   1.00
C805   C     0.18112   0.65556   0.73805   0.00000  Uiso   1.00
C806   C     0.15157   0.34541   0.76204   0.00000  Uiso   1.00
C807   C     0.15599   0.38945   0.75884   0.00000  Uiso   1.00
C808   C     0.17692   0.61106   0.74131   0.00000  Uiso   1.00
C809   C     0.18837   0.47871   0.64391   0.00000  Uiso   1.00
C810   C     0.14553   0.52135   0.85626   0.00000  Uiso   1.00
C811   C     0.13901   0.53354   0.89895   0.00000  Uiso   1.00
C812   C     0.19825   0.47104   0.60094   0.00000  Uiso   1.00
C813   C     0.10965   0.57904   0.95827   0.00000  Uiso   1.00
C814   C     0.09537   0.59990   0.54782   0.00000  Uiso   1.00
C815   C     0.15869   0.51395   0.92004   0.00000  Uiso   1.00
C816   C     0.02463   0.53091   0.70476   0.00000  Uiso   1.00
C817   C     0.25480   0.42634   0.59757   0.00000  Uiso   1.00
C818   C     0.08332   0.61283   0.97430   0.00000  Uiso   1.00
C819   C     0.24476   0.49697   0.91711   0.00000  Uiso   1.00
C820   C     0.15825   0.52870   0.95928   0.00000  Uiso   1.00
C821   C     0.13018   0.55939   0.98025   0.00000  Uiso   1.00
C822   C     0.18330   0.51137   0.97851   0.00000  Uiso   1.00
C823   C     0.17159   0.51588   0.52044   0.00000  Uiso   1.00
C824   C     0.14303   0.54523   0.54103   0.00000  Uiso   1.00
C825   C     0.12371   0.56808   0.52187   0.00000  Uiso   1.00
H826   H     0.27076   0.42859   0.52039   0.00000  Uiso   1.00
H827   H     0.09419   0.60144   0.57947   0.00000  Uiso   1.00
H828   H     0.10833   0.63162   0.53870   0.00000  Uiso   1.00
H829   H     0.06156   0.59147   0.54642   0.00000  Uiso   1.00
H830   H     0.31766   0.47577   0.78601   0.00000  Uiso   1.00
H831   H     0.20847   0.33624   0.71596   0.00000  Uiso   1.00
H832   H     0.12379   0.66545   0.78412   0.00000  Uiso   1.00
H833   H     0.15024   0.50768   0.60079   0.00000  Uiso   1.00
H834   H     0.26765   0.45324   0.96118   0.00000  Uiso   1.00
H835   H     0.10006   0.58215   0.90171   0.00000  Uiso   1.00
H836   H     0.17340   0.48613   0.90568   0.00000  Uiso   1.00
H837   H     0.13689   0.55269   0.57249   0.00000  Uiso   1.00
N838   N     0.04900   0.54805   0.67940   0.00000  Uiso   1.00
N839   N     0.27299   0.40904   0.61273   0.00000  Uiso   1.00
N840   N     0.06218   0.63994   0.98665   0.00000  Uiso   1.00
N841   N     0.26423   0.50178   0.88476   0.00000  Uiso   1.00
O842   O     0.16667   0.50000   0.75000   0.00000  Uiso   1.00
O843   O     0.15693   0.45726   0.66625   0.00000  Uiso   1.00
O844   O     0.12687   0.53979   0.83749   0.00000  Uiso   1.00
O845   O     0.21088   0.50826   0.65877   0.00000  Uiso   1.00
O846   O     0.17198   0.49468   0.83749   0.00000  Uiso   1.00
O847   O     0.17849   0.41434   0.77820   0.00000  Uiso   1.00
O848   O     0.14581   0.59469   0.76767   0.00000  Uiso   1.00
O849   O     0.07452   0.46584   0.73607   0.00000  Uiso   1.00
O850   O     0.26785   0.52512   0.71805   0.00000  Uiso   1.00
O851   O     0.06990   0.52293   0.77820   0.00000  Uiso   1.00
O852   O     0.25440   0.48610   0.76767   0.00000  Uiso   1.00
O853   O     0.13800   0.40236   0.73607   0.00000  Uiso   1.00
O854   O     0.20437   0.58860   0.71805   0.00000  Uiso   1.00
Zn855  Zn    0.19244   0.47423   0.78277   0.00000  Uiso   1.00
Zn856  Zn    0.13459   0.45711   0.72257   0.00000  Uiso   1.00
Zn857  Zn    0.21166   0.52997   0.71188   0.00000  Uiso   1.00
Zn858  Zn    0.12798   0.53868   0.78277   0.00000  Uiso   1.00
C859   C     0.38574   0.49300   0.75919   0.00000  Uiso   1.00
C860   C     0.55396   0.49095   0.95762   0.00000  Uiso   1.00
C861   C     0.57298   0.46907   0.97759   0.00000  Uiso   1.00
C862   C     0.61452   0.50691   0.74098   0.00000  Uiso   1.00
C863   C     0.55774   0.46866   0.51843   0.00000  Uiso   1.00
C864   C     0.52382   0.49240   0.54054   0.00000  Uiso   1.00
C865   C     0.57784   0.44635   0.53753   0.00000  Uiso   1.00
C866   C     0.56540   0.44795   0.57868   0.00000  Uiso   1.00
C867   C     0.51029   0.49185   0.58203   0.00000  Uiso   1.00
C868   C     0.66076   0.50938   0.73655   0.00000  Uiso   1.00
C869   C     0.34056   0.49148   0.76197   0.00000  Uiso   1.00
C870   C     0.44844   0.56638   0.91811   0.00000  Uiso   1.00
C871   C     0.51445   0.65556   0.73805   0.00000  Uiso   1.00
C872   C     0.48491   0.34541   0.76204   0.00000  Uiso   1.00
C873   C     0.48932   0.38945   0.75884   0.00000  Uiso   1.00
C874   C     0.51026   0.61106   0.74131   0.00000  Uiso   1.00
C875   C     0.52171   0.47871   0.64391   0.00000  Uiso   1.00
C876   C     0.47886   0.52135   0.85626   0.00000  Uiso   1.00
C877   C     0.47234   0.53354   0.89895   0.00000  Uiso   1.00
C878   C     0.53158   0.47104   0.60094   0.00000  Uiso   1.00
C879   C     0.44298   0.57904   0.95827   0.00000  Uiso   1.00
C880   C     0.42870   0.59990   0.54782   0.00000  Uiso   1.00
C881   C     0.49202   0.51395   0.92004   0.00000  Uiso   1.00
C882   C     0.35796   0.53091   0.70476   0.00000  Uiso   1.00
C883   C     0.58813   0.42634   0.59757   0.00000  Uiso   1.00
C884   C     0.41666   0.61283   0.97430   0.00000  Uiso   1.00
C885   C     0.57810   0.49697   0.91711   0.00000  Uiso   1.00
C886   C     0.49159   0.52870   0.95928   0.00000  Uiso   1.00
C887   C     0.46351   0.55939   0.98025   0.00000  Uiso   1.00
C888   C     0.51663   0.51137   0.97851   0.00000  Uiso   1.00
C889   C     0.50493   0.51588   0.52044   0.00000  Uiso   1.00
C890   C     0.47637   0.54523   0.54103   0.00000  Uiso   1.00
C891   C     0.45704   0.56808   0.52187   0.00000  Uiso   1.00
H892   H     0.60410   0.42859   0.52039   0.00000  Uiso   1.00
H893   H     0.42753   0.60144   0.57947   0.00000  Uiso   1.00
H894   H     0.44167   0.63162   0.53870   0.00000  Uiso   1.00
H895   H     0.39490   0.59147   0.54642   0.00000  Uiso   1.00
H896   H     0.65100   0.47577   0.78601   0.00000  Uiso   1.00
H897   H     0.54181   0.33624   0.71596   0.00000  Uiso   1.00
H898   H     0.45712   0.66545   0.78412   0.00000  Uiso   1.00
H899   H     0.48358   0.50768   0.60079   0.00000  Uiso   1.00
H900   H     0.60098   0.45324   0.96118   0.00000  Uiso   1.00
H901   H     0.43339   0.58215   0.90171   0.00000  Uiso   1.00
H902   H     0.50673   0.48613   0.90568   0.00000  Uiso   1.00
H903   H     0.47022   0.55269   0.57249   0.00000  Uiso   1.00
N904   N     0.38233   0.54805   0.67940   0.00000  Uiso   1.00
N905   N     0.60632   0.40904   0.61273   0.00000  Uiso   1.00
N906   N     0.39551   0.63994   0.98665   0.00000  Uiso   1.00
N907   N     0.59756   0.50178   0.88476   0.00000  Uiso   1.00
O908   O     0.50000   0.50000   0.75000   0.00000  Uiso   1.00
O909   O     0.49027   0.45726   0.66625   0.00000  Uiso   1.00
O910   O     0.46020   0.53979   0.83749   0.00000  Uiso   1.00
O911   O     0.54421   0.50826   0.65877   0.00000  Uiso   1.00
O912   O     0.50532   0.49468   0.83749   0.00000  Uiso   1.00
O913   O     0.51182   0.41434   0.77820   0.00000  Uiso   1.00
O914   O     0.47914   0.59469   0.76767   0.00000  Uiso   1.00
O915   O     0.40785   0.46584   0.73607   0.00000  Uiso   1.00
O916   O     0.60119   0.52512   0.71805   0.00000  Uiso   1.00
O917   O     0.40323   0.52293   0.77820   0.00000  Uiso   1.00
O918   O     0.58773   0.48610   0.76767   0.00000  Uiso   1.00
O919   O     0.47133   0.40236   0.73607   0.00000  Uiso   1.00
O920   O     0.53771   0.58860   0.71805   0.00000  Uiso   1.00
Zn921  Zn    0.52577   0.47423   0.78277   0.00000  Uiso   1.00
Zn922  Zn    0.46792   0.45711   0.72257   0.00000  Uiso   1.00
Zn923  Zn    0.54500   0.52997   0.71188   0.00000  Uiso   1.00
Zn924  Zn    0.46131   0.53868   0.78277   0.00000  Uiso   1.00
C925   C     0.71908   0.49300   0.75919   0.00000  Uiso   1.00
C926   C     0.88729   0.49095   0.95762   0.00000  Uiso   1.00
C927   C     0.90632   0.46907   0.97759   0.00000  Uiso   1.00
C928   C     0.94786   0.50691   0.74098   0.00000  Uiso   1.00
C929   C     0.89107   0.46866   0.51843   0.00000  Uiso   1.00
C930   C     0.85716   0.49240   0.54054   0.00000  Uiso   1.00
C931   C     0.91118   0.44635   0.53753   0.00000  Uiso   1.00
C932   C     0.89873   0.44795   0.57868   0.00000  Uiso   1.00
C933   C     0.84363   0.49185   0.58203   0.00000  Uiso   1.00
C934   C     0.99409   0.50938   0.73655   0.00000  Uiso   1.00
C935   C     0.67390   0.49148   0.76197   0.00000  Uiso   1.00
C936   C     0.78177   0.56638   0.91811   0.00000  Uiso   1.00
C937   C     0.84778   0.65556   0.73805   0.00000  Uiso   1.00
C938   C     0.81824   0.34541   0.76204   0.00000  Uiso   1.00
C939   C     0.82265   0.38945   0.75884   0.00000  Uiso   1.00
C940   C     0.84359   0.61106   0.74131   0.00000  Uiso   1.00
C941   C     0.85504   0.47871   0.64391   0.00000  Uiso   1.00
C942   C     0.81219   0.52135   0.85626   0.00000  Uiso   1.00
C943   C     0.80568   0.53354   0.89895   0.00000  Uiso   1.00
C944   C     0.86491   0.47104   0.60094   0.00000  Uiso   1.00
C945   C     0.77632   0.57904   0.95827   0.00000  Uiso   1.00
C946   C     0.76203   0.59990   0.54782   0.00000  Uiso   1.00
C947   C     0.82535   0.51395   0.92004   0.00000  Uiso   1.00
C948   C     0.69130   0.53091   0.70476   0.00000  Uiso   1.00
C949   C     0.92146   0.42634   0.59757   0.00000  Uiso   1.00
C950   C     0.74999   0.61283   0.97430   0.00000  Uiso   1.00
C951   C     0.91143   0.49697   0.91711   0.00000  Uiso   1.00
C952   C     0.82492   0.52870   0.95928   0.00000  Uiso   1.00
C953   C     0.79684   0.55939   0.98025   0.00000  Uiso   1.00
C954   C     0.84997   0.51137   0.97851   0.00000  Uiso   1.00
C955   C     0.83826   0.51588   0.52044   0.00000  Uiso   1.00
C956   C     0.80970   0.54523   0.54103   0.00000  Uiso   1.00
C957   C     0.79038   0.56808   0.52187   0.00000  Uiso   1.00
H958   H     0.93743   0.42859   0.52039   0.00000  Uiso   1.00
H959   H     0.76086   0.60144   0.57947   0.00000  Uiso   1.00
H960   H     0.77500   0.63162   0.53870   0.00000  Uiso   1.00
H961   H     0.72823   0.59147   0.54642   0.00000  Uiso   1.00
H962   H     0.98433   0.47577   0.78601   0.00000  Uiso   1.00
H963   H     0.87514   0.33624   0.71596   0.00000  Uiso   1.00
H964   H     0.79045   0.66545   0.78412   0.00000  Uiso   1.00
H965   H     0.81691   0.50768   0.60079   0.00000  Uiso   1.00
H966   H     0.93431   0.45324   0.96118   0.00000  Uiso   1.00
H967   H     0.76672   0.58215   0.90171   0.00000  Uiso   1.00
H968   H     0.84007   0.48613   0.90568   0.00000  Uiso   1.00
H969   H     0.80355   0.55269   0.57249   0.00000  Uiso   1.00
N970   N     0.71566   0.54805   0.67940   0.00000  Uiso   1.00
N971   N     0.93966   0.40904   0.61273   0.00000  Uiso   1.00
N972   N     0.72884   0.63994   0.98665   0.00000  Uiso   1.00
N973   N     0.93090   0.50178   0.88476   0.00000  Uiso   1.00
O974   O     0.83333   0.50000   0.75000   0.00000  Uiso   1.00
O975   O     0.82360   0.45726   0.66625   0.00000  Uiso   1.00
O976   O     0.79354   0.53979   0.83749   0.00000  Uiso   1.00
O977   O     0.87755   0.50826   0.65877   0.00000  Uiso   1.00
O978   O     0.83865   0.49468   0.83749   0.00000  Uiso   1.00
O979   O     0.84515   0.41434   0.77820   0.00000  Uiso   1.00
O980   O     0.81247   0.59469   0.76767   0.00000  Uiso   1.00
O981   O     0.74119   0.46584   0.73607   0.00000  Uiso   1.00
O982   O     0.93452   0.52512   0.71805   0.00000  Uiso   1.00
O983   O     0.73656   0.52293   0.77820   0.00000  Uiso   1.00
O984   O     0.92106   0.48610   0.76767   0.00000  Uiso   1.00
O985   O     0.80467   0.40236   0.73607   0.00000  Uiso   1.00
O986   O     0.87104   0.58860   0.71805   0.00000  Uiso   1.00
Zn987  Zn    0.85910   0.47423   0.78277   0.00000  Uiso   1.00
Zn988  Zn    0.80125   0.45711   0.72257   0.00000  Uiso   1.00
Zn989  Zn    0.87833   0.52997   0.71188   0.00000  Uiso   1.00
Zn990  Zn    0.79465   0.53868   0.78277   0.00000  Uiso   1.00
C991   C     0.05241   0.82633   0.75919   0.00000  Uiso   1.00
C992   C     0.22063   0.82428   0.95762   0.00000  Uiso   1.00
C993   C     0.23965   0.80240   0.97759   0.00000  Uiso   1.00
C994   C     0.28119   0.84025   0.74098   0.00000  Uiso   1.00
C995   C     0.22441   0.80200   0.51843   0.00000  Uiso   1.00
C996   C     0.19049   0.82573   0.54054   0.00000  Uiso   1.00
C997   C     0.24451   0.77968   0.53753   0.00000  Uiso   1.00
C998   C     0.23207   0.78128   0.57868   0.00000  Uiso   1.00
C999   C     0.17696   0.82518   0.58203   0.00000  Uiso   1.00
C1000  C     0.32742   0.84272   0.73655   0.00000  Uiso   1.00
C1001  C     0.00723   0.82481   0.76197   0.00000  Uiso   1.00
C1002  C     0.11510   0.89971   0.91811   0.00000  Uiso   1.00
C1003  C     0.18112   0.98890   0.73805   0.00000  Uiso   1.00
C1004  C     0.15157   0.67874   0.76204   0.00000  Uiso   1.00
C1005  C     0.15599   0.72279   0.75884   0.00000  Uiso   1.00
C1006  C     0.17692   0.94440   0.74131   0.00000  Uiso   1.00
C1007  C     0.18837   0.81204   0.64391   0.00000  Uiso   1.00
C1008  C     0.14553   0.85468   0.85626   0.00000  Uiso   1.00
C1009  C     0.13901   0.86688   0.89895   0.00000  Uiso   1.00
C1010  C     0.19825   0.80437   0.60094   0.00000  Uiso   1.00
C1011  C     0.10965   0.91238   0.95827   0.00000  Uiso   1.00
C1012  C     0.09537   0.93324   0.54782   0.00000  Uiso   1.00
C1013  C     0.15869   0.84728   0.92004   0.00000  Uiso   1.00
C1014  C     0.02463   0.86425   0.70476   0.00000  Uiso   1.00
C1015  C     0.25480   0.75967   0.59757   0.00000  Uiso   1.00
C1016  C     0.08332   0.94617   0.97430   0.00000  Uiso   1.00
C1017  C     0.24476   0.83030   0.91711   0.00000  Uiso   1.00
C1018  C     0.15825   0.86204   0.95928   0.00000  Uiso   1.00
C1019  C     0.13018   0.89272   0.98025   0.00000  Uiso   1.00
C1020  C     0.18330   0.84470   0.97851   0.00000  Uiso   1.00
C1021  C     0.17159   0.84921   0.52044   0.00000  Uiso   1.00
C1022  C     0.14303   0.87856   0.54103   0.00000  Uiso   1.00
C1023  C     0.12371   0.90141   0.52187   0.00000  Uiso   1.00
H1024  H     0.27076   0.76193   0.52039   0.00000  Uiso   1.00
H1025  H     0.09419   0.93478   0.57947   0.00000  Uiso   1.00
H1026  H     0.10833   0.96495   0.53870   0.00000  Uiso   1.00
H1027  H     0.06156   0.92480   0.54642   0.00000  Uiso   1.00
H1028  H     0.31766   0.80911   0.78601   0.00000  Uiso   1.00
H1029  H     0.20847   0.66957   0.71596   0.00000  Uiso   1.00
H1030  H     0.12379   0.99878   0.78412   0.00000  Uiso   1.00
H1031  H     0.15024   0.84101   0.60079   0.00000  Uiso   1.00
H1032  H     0.26765   0.78657   0.96118   0.00000  Uiso   1.00
H1033  H     0.10006   0.91548   0.90171   0.00000  Uiso   1.00
H1034  H     0.17340   0.81946   0.90568   0.00000  Uiso   1.00
H1035  H     0.13689   0.88603   0.57249   0.00000  Uiso   1.00
N1036  N     0.04900   0.88138   0.67940   0.00000  Uiso   1.00
N1037  N     0.27299   0.74237   0.61273   0.00000  Uiso   1.00
N1038  N     0.06218   0.97327   0.98665   0.00000  Uiso   1.00
N1039  N     0.26423   0.83512   0.88476   0.00000  Uiso   1.00
O1040  O     0.16667   0.83333   0.75000   0.00000  Uiso   1.00
O1041  O     0.15693   0.79060   0.66625   0.00000  Uiso   1.00
O1042  O     0.12687   0.87313   0.83749   0.00000  Uiso   1.00
O1043  O     0.21088   0.84159   0.65877   0.00000  Uiso   1.00
O1044  O     0.17198   0.82802   0.83749   0.00000  Uiso   1.00
O1045  O     0.17849   0.74768   0.77820   0.00000  Uiso   1.00
O1046  O     0.14581   0.92803   0.76767   0.00000  Uiso   1.00
O1047  O     0.07452   0.79917   0.73607   0.00000  Uiso   1.00
O1048  O     0.26785   0.85845   0.71805   0.00000  Uiso   1.00
O1049  O     0.06990   0.85627   0.77820   0.00000  Uiso   1.00
O1050  O     0.25440   0.81944   0.76767   0.00000  Uiso   1.00
O1051  O     0.13800   0.73570   0.73607   0.00000  Uiso   1.00
O1052  O     0.20437   0.92193   0.71805   0.00000  Uiso   1.00
Zn1053 Zn    0.19244   0.80756   0.78277   0.00000  Uiso   1.00
Zn1054 Zn    0.13459   0.79044   0.72257   0.00000  Uiso   1.00
Zn1055 Zn    0.21166   0.86331   0.71188   0.00000  Uiso   1.00
Zn1056 Zn    0.12798   0.87202   0.78277   0.00000  Uiso   1.00
C1057  C     0.38574   0.82633   0.75919   0.00000  Uiso   1.00
C1058  C     0.55396   0.82428   0.95762   0.00000  Uiso   1.00
C1059  C     0.57298   0.80240   0.97759   0.00000  Uiso   1.00
C1060  C     0.61452   0.84025   0.74098   0.00000  Uiso   1.00
C1061  C     0.55774   0.80200   0.51843   0.00000  Uiso   1.00
C1062  C     0.52382   0.82573   0.54054   0.00000  Uiso   1.00
C1063  C     0.57784   0.77968   0.53753   0.00000  Uiso   1.00
C1064  C     0.56540   0.78128   0.57868   0.00000  Uiso   1.00
C1065  C     0.51029   0.82518   0.58203   0.00000  Uiso   1.00
C1066  C     0.66076   0.84272   0.73655   0.00000  Uiso   1.00
C1067  C     0.34056   0.82481   0.76197   0.00000  Uiso   1.00
C1068  C     0.44844   0.89971   0.91811   0.00000  Uiso   1.00
C1069  C     0.51445   0.98890   0.73805   0.00000  Uiso   1.00
C1070  C     0.48491   0.67874   0.76204   0.00000  Uiso   1.00
C1071  C     0.48932   0.72279   0.75884   0.00000  Uiso   1.00
C1072  C     0.51026   0.94440   0.74131   0.00000  Uiso   1.00
C1073  C     0.52171   0.81204   0.64391   0.00000  Uiso   1.00
C1074  C     0.47886   0.85468   0.85626   0.00000  Uiso   1.00
C1075  C     0.47234   0.86688   0.89895   0.00000  Uiso   1.00
C1076  C     0.53158   0.80437   0.60094   0.00000  Uiso   1.00
C1077  C     0.44298   0.91238   0.95827   0.00000  Uiso   1.00
C1078  C     0.42870   0.93324   0.54782   0.00000  Uiso   1.00
C1079  C     0.49202   0.84728   0.92004   0.00000  Uiso   1.00
C1080  C     0.35796   0.86425   0.70476   0.00000  Uiso   1.00
C1081  C     0.58813   0.75967   0.59757   0.00000  Uiso   1.00
C1082  C     0.41666   0.94617   0.97430   0.00000  Uiso   1.00
C1083  C     0.57810   0.83030   0.91711   0.00000  Uiso   1.00
C1084  C     0.49159   0.86204   0.95928   0.00000  Uiso   1.00
C1085  C     0.46351   0.89272   0.98025   0.00000  Uiso   1.00
C1086  C     0.51663   0.84470   0.97851   0.00000  Uiso   1.00
C1087  C     0.50493   0.84921   0.52044   0.00000  Uiso   1.00
C1088  C     0.47637   0.87856   0.54103   0.00000  Uiso   1.00
C1089  C     0.45704   0.90141   0.52187   0.00000  Uiso   1.00
H1090  H     0.60410   0.76193   0.52039   0.00000  Uiso   1.00
H1091  H     0.42753   0.93478   0.57947   0.00000  Uiso   1.00
H1092  H     0.44167   0.96495   0.53870   0.00000  Uiso   1.00
H1093  H     0.39490   0.92480   0.54642   0.00000  Uiso   1.00
H1094  H     0.65100   0.80911   0.78601   0.00000  Uiso   1.00
H1095  H     0.54181   0.66957   0.71596   0.00000  Uiso   1.00
H1096  H     0.45712   0.99878   0.78412   0.00000  Uiso   1.00
H1097  H     0.48358   0.84101   0.60079   0.00000  Uiso   1.00
H1098  H     0.60098   0.78657   0.96118   0.00000  Uiso   1.00
H1099  H     0.43339   0.91548   0.90171   0.00000  Uiso   1.00
H1100  H     0.50673   0.81946   0.90568   0.00000  Uiso   1.00
H1101  H     0.47022   0.88603   0.57249   0.00000  Uiso   1.00
N1102  N     0.38233   0.88138   0.67940   0.00000  Uiso   1.00
N1103  N     0.60632   0.74237   0.61273   0.00000  Uiso   1.00
N1104  N     0.39551   0.97327   0.98665   0.00000  Uiso   1.00
N1105  N     0.59756   0.83512   0.88476   0.00000  Uiso   1.00
O1106  O     0.50000   0.83333   0.75000   0.00000  Uiso   1.00
O1107  O     0.49027   0.79060   0.66625   0.00000  Uiso   1.00
O1108  O     0.46020   0.87313   0.83749   0.00000  Uiso   1.00
O1109  O     0.54421   0.84159   0.65877   0.00000  Uiso   1.00
O1110  O     0.50532   0.82802   0.83749   0.00000  Uiso   1.00
O1111  O     0.51182   0.74768   0.77820   0.00000  Uiso   1.00
O1112  O     0.47914   0.92803   0.76767   0.00000  Uiso   1.00
O1113  O     0.40785   0.79917   0.73607   0.00000  Uiso   1.00
O1114  O     0.60119   0.85845   0.71805   0.00000  Uiso   1.00
O1115  O     0.40323   0.85627   0.77820   0.00000  Uiso   1.00
O1116  O     0.58773   0.81944   0.76767   0.00000  Uiso   1.00
O1117  O     0.47133   0.73570   0.73607   0.00000  Uiso   1.00
O1118  O     0.53771   0.92193   0.71805   0.00000  Uiso   1.00
Zn1119 Zn    0.52577   0.80756   0.78277   0.00000  Uiso   1.00
Zn1120 Zn    0.46792   0.79044   0.72257   0.00000  Uiso   1.00
Zn1121 Zn    0.54500   0.86331   0.71188   0.00000  Uiso   1.00
Zn1122 Zn    0.46131   0.87202   0.78277   0.00000  Uiso   1.00
C1123  C     0.71908   0.82633   0.75919   0.00000  Uiso   1.00
C1124  C     0.88729   0.82428   0.95762   0.00000  Uiso   1.00
C1125  C     0.90632   0.80240   0.97759   0.00000  Uiso   1.00
C1126  C     0.94786   0.84025   0.74098   0.00000  Uiso   1.00
C1127  C     0.89107   0.80200   0.51843   0.00000  Uiso   1.00
C1128  C     0.85716   0.82573   0.54054   0.00000  Uiso   1.00
C1129  C     0.91118   0.77968   0.53753   0.00000  Uiso   1.00
C1130  C     0.89873   0.78128   0.57868   0.00000  Uiso   1.00
C1131  C     0.84363   0.82518   0.58203   0.00000  Uiso   1.00
C1132  C     0.99409   0.84272   0.73655   0.00000  Uiso   1.00
C1133  C     0.67390   0.82481   0.76197   0.00000  Uiso   1.00
C1134  C     0.78177   0.89971   0.91811   0.00000  Uiso   1.00
C1135  C     0.84778   0.98890   0.73805   0.00000  Uiso   1.00
C1136  C     0.81824   0.67874   0.76204   0.00000  Uiso   1.00
C1137  C     0.82265   0.72279   0.75884   0.00000  Uiso   1.00
C1138  C     0.84359   0.94440   0.74131   0.00000  Uiso   1.00
C1139  C     0.85504   0.81204   0.64391   0.00000  Uiso   1.00
C1140  C     0.81219   0.85468   0.85626   0.00000  Uiso   1.00
C1141  C     0.80568   0.86688   0.89895   0.00000  Uiso   1.00
C1142  C     0.86491   0.80437   0.60094   0.00000  Uiso   1.00
C1143  C     0.77632   0.91238   0.95827   0.00000  Uiso   1.00
C1144  C     0.76203   0.93324   0.54782   0.00000  Uiso   1.00
C1145  C     0.82535   0.84728   0.92004   0.00000  Uiso   1.00
C1146  C     0.69130   0.86425   0.70476   0.00000  Uiso   1.00
C1147  C     0.92146   0.75967   0.59757   0.00000  Uiso   1.00
C1148  C     0.74999   0.94617   0.97430   0.00000  Uiso   1.00
C1149  C     0.91143   0.83030   0.91711   0.00000  Uiso   1.00
C1150  C     0.82492   0.86204   0.95928   0.00000  Uiso   1.00
C1151  C     0.79684   0.89272   0.98025   0.00000  Uiso   1.00
C1152  C     0.84997   0.84470   0.97851   0.00000  Uiso   1.00
C1153  C     0.83826   0.84921   0.52044   0.00000  Uiso   1.00
C1154  C     0.80970   0.87856   0.54103   0.00000  Uiso   1.00
C1155  C     0.79038   0.90141   0.52187   0.00000  Uiso   1.00
H1156  H     0.93743   0.76193   0.52039   0.00000  Uiso   1.00
H1157  H     0.76086   0.93478   0.57947   0.00000  Uiso   1.00
H1158  H     0.77500   0.96495   0.53870   0.00000  Uiso   1.00
H1159  H     0.72823   0.92480   0.54642   0.00000  Uiso   1.00
H1160  H     0.98433   0.80911   0.78601   0.00000  Uiso   1.00
H1161  H     0.87514   0.66957   0.71596   0.00000  Uiso   1.00
H1162  H     0.79045   0.99878   0.78412   0.00000  Uiso   1.00
H1163  H     0.81691   0.84101   0.60079   0.00000  Uiso   1.00
H1164  H     0.93431   0.78657   0.96118   0.00000  Uiso   1.00
H1165  H     0.76672   0.91548   0.90171   0.00000  Uiso   1.00
H1166  H     0.84007   0.81946   0.90568   0.00000  Uiso   1.00
H1167  H     0.80355   0.88603   0.57249   0.00000  Uiso   1.00
N1168  N     0.71566   0.88138   0.67940   0.00000  Uiso   1.00
N1169  N     0.93966   0.74237   0.61273   0.00000  Uiso   1.00
N1170  N     0.72884   0.97327   0.98665   0.00000  Uiso   1.00
N1171  N     0.93090   0.83512   0.88476   0.00000  Uiso   1.00
O1172  O     0.83333   0.83333   0.75000   0.00000  Uiso   1.00
O1173  O     0.82360   0.79060   0.66625   0.00000  Uiso   1.00
O1174  O     0.79354   0.87313   0.83749   0.00000  Uiso   1.00
O1175  O     0.87755   0.84159   0.65877   0.00000  Uiso   1.00
O1176  O     0.83865   0.82802   0.83749   0.00000  Uiso   1.00
O1177  O     0.84515   0.74768   0.77820   0.00000  Uiso   1.00
O1178  O     0.81247   0.92803   0.76767   0.00000  Uiso   1.00
O1179  O     0.74119   0.79917   0.73607   0.00000  Uiso   1.00
O1180  O     0.93452   0.85845   0.71805   0.00000  Uiso   1.00
O1181  O     0.73656   0.85627   0.77820   0.00000  Uiso   1.00
O1182  O     0.92106   0.81944   0.76767   0.00000  Uiso   1.00
O1183  O     0.80467   0.73570   0.73607   0.00000  Uiso   1.00
O1184  O     0.87104   0.92193   0.71805   0.00000  Uiso   1.00
Zn1185 Zn    0.85910   0.80756   0.78277   0.00000  Uiso   1.00
Zn1186 Zn    0.80125   0.79044   0.72257   0.00000  Uiso   1.00
Zn1187 Zn    0.87833   0.86331   0.71188   0.00000  Uiso   1.00
Zn1188 Zn    0.79465   0.87202   0.78277   0.00000  Uiso   1.00
loop_
_geom_bond_atom_site_label_1
_geom_bond_atom_site_label_2
_geom_bond_distance
_geom_bond_site_symmetry_2
_ccdc_geom_bond_type
C1     O57     1.269   .     A
C1     C11     1.441   .     S
C1     O59     1.268   .     A
C2     C27     1.448   .     S
C2     C30     1.429   .     A
C2     C3      1.392   .     A
C3     H42     1.086   .     S
C3     C599    1.391   .     S
C4     O60     1.279   .     A
C4     O58     1.278   .     A
C4     C10     1.460   .     S
C5     C6      1.417   .     A
C5     C7      1.404   .     A
C5     C597    1.391   1_554 S
C6     C9      1.412   .     A
C6     C31     1.427   .     A
C7     C8      1.395   .     A
C7     H34     1.085   .     S
C8     C25     1.444   .     S
C8     C20     1.404   .     A
C9     H41     1.078   .     S
C9     C20     1.395   .     A
C10    C77     1.341   .     S
C10    C90     1.452   .     S
C11    C142    1.341   1_455 S
C11    H170    1.086   1_455 S
C12    C19     1.394   .     A
C12    H43     1.085   .     S
C12    C21     1.396   .     A
C13    C16     1.452   .     S
C13    C212    1.332   .     S
C13    H237    1.088   .     S
C14    C15     1.436   .     S
C14    C409    1.332   1_545 S
C14    H436    1.086   1_545 S
C15    O61     1.278   .     A
C15    O55     1.278   .     A
C16    O56     1.267   .     A
C16    O62     1.267   .     A
C17    O51     1.276   .     A
C17    O53     1.272   .     A
C17    C20     1.460   .     S
C18    O52     1.282   .     A
C18    O54     1.289   .     A
C18    C19     1.475   .     S
C19    C23     1.389   .     A
C21    C26     1.445   .     S
C21    C29     1.433   .     A
C22    H35     1.111   .     S
C22    H36     1.110   .     S
C22    C33     1.513   .     S
C22    H37     1.110   .     S
C23    C28     1.408   .     A
C23    H44     1.079   .     S
C24    N46     1.157   .     T
C24    C142    1.452   1_455 S
C25    N47     1.157   .     T
C26    N48     1.158   .     T
C27    N49     1.158   .     T
C28    C30     1.428   .     A
C28    C29     1.432   .     A
C29    C627    1.426   .     S
C30    C625    1.419   .     S
C31    C32     1.407   .     A
C31    C624    1.419   1_554 S
C32    H45     1.076   .     S
C32    C33     1.399   .     A
C33    C623    1.426   1_554 S
H38    C77     1.086   .     S
H39    C409    1.088   1_545 S
H40    C212    1.086   .     S
O50    Zn63    1.962   .     S
O50    Zn66    1.930   .     S
O50    Zn64    1.944   .     S
O50    Zn65    1.925   .     S
O51    Zn64    1.920   .     S
O52    Zn66    1.934   .     S
O53    Zn65    1.929   .     S
O54    Zn63    1.917   .     S
O55    Zn63    1.928   .     S
O56    Zn66    1.929   .     S
O57    Zn64    1.929   .     S
O58    Zn65    1.942   .     S
O59    Zn66    1.936   .     S
O60    Zn63    1.924   .     S
O61    Zn64    1.937   .     S
O62    Zn65    1.932   .     S
C67    O123    1.269   .     A
C67    C77     1.441   .     S
C67    O125    1.268   .     A
C68    C93     1.448   .     S
C68    C96     1.429   .     A
C68    C69     1.392   .     A
C69    H108    1.086   .     S
C69    C665    1.391   .     S
C70    O126    1.279   .     A
C70    O124    1.278   .     A
C70    C76     1.460   .     S
C71    C72     1.417   .     A
C71    C73     1.404   .     A
C71    C663    1.391   1_554 S
C72    C75     1.412   .     A
C72    C97     1.427   .     A
C73    C74     1.395   .     A
C73    H100    1.085   .     S
C74    C91     1.444   .     S
C74    C86     1.404   .     A
C75    H107    1.078   .     S
C75    C86     1.395   .     A
C76    C143    1.341   .     S
C76    C156    1.452   .     S
C78    C85     1.394   .     A
C78    H109    1.085   .     S
C78    C87     1.396   .     A
C79    C82     1.452   .     S
C79    C278    1.332   .     S
C79    H303    1.088   .     S
C80    C81     1.436   .     S
C80    C475    1.332   1_545 S
C80    H502    1.086   1_545 S
C81    O127    1.278   .     A
C81    O121    1.278   .     A
C82    O122    1.267   .     A
C82    O128    1.267   .     A
C83    O117    1.276   .     A
C83    O119    1.272   .     A
C83    C86     1.460   .     S
C84    O118    1.282   .     A
C84    O120    1.289   .     A
C84    C85     1.475   .     S
C85    C89     1.389   .     A
C87    C92     1.445   .     S
C87    C95     1.433   .     A
C88    H101    1.111   .     S
C88    H102    1.110   .     S
C88    C99     1.513   .     S
C88    H103    1.110   .     S
C89    C94     1.408   .     A
C89    H110    1.079   .     S
C90    N112    1.157   .     T
C91    N113    1.157   .     T
C92    N114    1.158   .     T
C93    N115    1.158   .     T
C94    C96     1.428   .     A
C94    C95     1.432   .     A
C95    C693    1.426   .     S
C96    C691    1.419   .     S
C97    C98     1.407   .     A
C97    C690    1.419   1_554 S
C98    H111    1.076   .     S
C98    C99     1.399   .     A
C99    C689    1.426   1_554 S
H104   C143    1.086   .     S
H105   C475    1.088   1_545 S
H106   C278    1.086   .     S
O116   Zn129   1.962   .     S
O116   Zn132   1.930   .     S
O116   Zn130   1.944   .     S
O116   Zn131   1.925   .     S
O117   Zn130   1.920   .     S
O118   Zn132   1.934   .     S
O119   Zn131   1.929   .     S
O120   Zn129   1.917   .     S
O121   Zn129   1.928   .     S
O122   Zn132   1.929   .     S
O123   Zn130   1.929   .     S
O124   Zn131   1.942   .     S
O125   Zn132   1.936   .     S
O126   Zn129   1.924   .     S
O127   Zn130   1.937   .     S
O128   Zn131   1.932   .     S
C133   O189    1.269   .     A
C133   C143    1.441   .     S
C133   O191    1.268   .     A
C134   C159    1.448   .     S
C134   C162    1.429   .     A
C134   C135    1.392   .     A
C135   H174    1.086   .     S
C135   C731    1.391   .     S
C136   O192    1.279   .     A
C136   O190    1.278   .     A
C136   C142    1.460   .     S
C137   C138    1.417   .     A
C137   C139    1.404   .     A
C137   C729    1.391   1_554 S
C138   C141    1.412   .     A
C138   C163    1.427   .     A
C139   C140    1.395   .     A
C139   H166    1.085   .     S
C140   C157    1.444   .     S
C140   C152    1.404   .     A
C141   H173    1.078   .     S
C141   C152    1.395   .     A
C142   C11     1.341   1_655 S
C142   C24     1.452   1_655 S
C144   C151    1.394   .     A
C144   H175    1.085   .     S
C144   C153    1.396   .     A
C145   C148    1.452   .     S
C145   C344    1.332   .     S
C145   H369    1.088   .     S
C146   C147    1.436   .     S
C146   C541    1.332   1_545 S
C146   H568    1.086   1_545 S
C147   O193    1.278   .     A
C147   O187    1.278   .     A
C148   O188    1.267   .     A
C148   O194    1.267   .     A
C149   O183    1.276   .     A
C149   O185    1.272   .     A
C149   C152    1.460   .     S
C150   O184    1.282   .     A
C150   O186    1.289   .     A
C150   C151    1.475   .     S
C151   C155    1.389   .     A
C153   C158    1.445   .     S
C153   C161    1.433   .     A
C154   H167    1.111   .     S
C154   H168    1.110   .     S
C154   C165    1.513   .     S
C154   H169    1.110   .     S
C155   C160    1.408   .     A
C155   H176    1.079   .     S
C156   N178    1.157   .     T
C157   N179    1.157   .     T
C158   N180    1.158   .     T
C159   N181    1.158   .     T
C160   C162    1.428   .     A
C160   C161    1.432   .     A
C161   C759    1.426   .     S
C162   C757    1.419   .     S
C163   C164    1.407   .     A
C163   C756    1.419   1_554 S
C164   H177    1.076   .     S
C164   C165    1.399   .     A
C165   C755    1.426   1_554 S
H170   C11     1.086   1_655 S
H171   C541    1.088   1_545 S
H172   C344    1.086   .     S
O182   Zn195   1.962   .     S
O182   Zn198   1.930   .     S
O182   Zn196   1.944   .     S
O182   Zn197   1.925   .     S
O183   Zn196   1.920   .     S
O184   Zn198   1.934   .     S
O185   Zn197   1.929   .     S
O186   Zn195   1.917   .     S
O187   Zn195   1.928   .     S
O188   Zn198   1.929   .     S
O189   Zn196   1.929   .     S
O190   Zn197   1.942   .     S
O191   Zn198   1.936   .     S
O192   Zn195   1.924   .     S
O193   Zn196   1.937   .     S
O194   Zn197   1.932   .     S
C199   O255    1.269   .     A
C199   C209    1.441   .     S
C199   O257    1.268   .     A
C200   C225    1.448   .     S
C200   C228    1.429   .     A
C200   C201    1.392   .     A
C201   H240    1.086   .     S
C201   C797    1.391   .     S
C202   O258    1.279   .     A
C202   O256    1.278   .     A
C202   C208    1.460   .     S
C203   C204    1.417   .     A
C203   C205    1.404   .     A
C203   C795    1.391   1_554 S
C204   C207    1.412   .     A
C204   C229    1.427   .     A
C205   C206    1.395   .     A
C205   H232    1.085   .     S
C206   C223    1.444   .     S
C206   C218    1.404   .     A
C207   H239    1.078   .     S
C207   C218    1.395   .     A
C208   C275    1.341   .     S
C208   C288    1.452   .     S
C209   C340    1.341   1_455 S
C209   H368    1.086   1_455 S
C210   C217    1.394   .     A
C210   H241    1.085   .     S
C210   C219    1.396   .     A
C211   C214    1.452   .     S
C211   C410    1.332   .     S
C211   H435    1.088   .     S
C212   C213    1.436   .     S
C213   O259    1.278   .     A
C213   O253    1.278   .     A
C214   O254    1.267   .     A
C214   O260    1.267   .     A
C215   O249    1.276   .     A
C215   O251    1.272   .     A
C215   C218    1.460   .     S
C216   O250    1.282   .     A
C216   O252    1.289   .     A
C216   C217    1.475   .     S
C217   C221    1.389   .     A
C219   C224    1.445   .     S
C219   C227    1.433   .     A
C220   H233    1.111   .     S
C220   H234    1.110   .     S
C220   C231    1.513   .     S
C220   H235    1.110   .     S
C221   C226    1.408   .     A
C221   H242    1.079   .     S
C222   N244    1.157   .     T
C222   C340    1.452   1_455 S
C223   N245    1.157   .     T
C224   N246    1.158   .     T
C225   N247    1.158   .     T
C226   C228    1.428   .     A
C226   C227    1.432   .     A
C227   C825    1.426   .     S
C228   C823    1.419   .     S
C229   C230    1.407   .     A
C229   C822    1.419   1_554 S
C230   H243    1.076   .     S
C230   C231    1.399   .     A
C231   C821    1.426   1_554 S
H236   C275    1.086   .     S
H238   C410    1.086   .     S
O248   Zn261   1.962   .     S
O248   Zn264   1.930   .     S
O248   Zn262   1.944   .     S
O248   Zn263   1.925   .     S
O249   Zn262   1.920   .     S
O250   Zn264   1.934   .     S
O251   Zn263   1.929   .     S
O252   Zn261   1.917   .     S
O253   Zn261   1.928   .     S
O254   Zn264   1.929   .     S
O255   Zn262   1.929   .     S
O256   Zn263   1.942   .     S
O257   Zn264   1.936   .     S
O258   Zn261   1.924   .     S
O259   Zn262   1.937   .     S
O260   Zn263   1.932   .     S
C265   O321    1.269   .     A
C265   C275    1.441   .     S
C265   O323    1.268   .     A
C266   C291    1.448   .     S
C266   C294    1.429   .     A
C266   C267    1.392   .     A
C267   H306    1.086   .     S
C267   C863    1.391   .     S
C268   O324    1.279   .     A
C268   O322    1.278   .     A
C268   C274    1.460   .     S
C269   C270    1.417   .     A
C269   C271    1.404   .     A
C269   C861    1.391   1_554 S
C270   C273    1.412   .     A
C270   C295    1.427   .     A
C271   C272    1.395   .     A
C271   H298    1.085   .     S
C272   C289    1.444   .     S
C272   C284    1.404   .     A
C273   H305    1.078   .     S
C273   C284    1.395   .     A
C274   C341    1.341   .     S
C274   C354    1.452   .     S
C276   C283    1.394   .     A
C276   H307    1.085   .     S
C276   C285    1.396   .     A
C277   C280    1.452   .     S
C277   C476    1.332   .     S
C277   H501    1.088   .     S
C278   C279    1.436   .     S
C279   O325    1.278   .     A
C279   O319    1.278   .     A
C280   O320    1.267   .     A
C280   O326    1.267   .     A
C281   O315    1.276   .     A
C281   O317    1.272   .     A
C281   C284    1.460   .     S
C282   O316    1.282   .     A
C282   O318    1.289   .     A
C282   C283    1.475   .     S
C283   C287    1.389   .     A
C285   C290    1.445   .     S
C285   C293    1.433   .     A
C286   H299    1.111   .     S
C286   H300    1.110   .     S
C286   C297    1.513   .     S
C286   H301    1.110   .     S
C287   C292    1.408   .     A
C287   H308    1.079   .     S
C288   N310    1.157   .     T
C289   N311    1.157   .     T
C290   N312    1.158   .     T
C291   N313    1.158   .     T
C292   C294    1.428   .     A
C292   C293    1.432   .     A
C293   C891    1.426   .     S
C294   C889    1.419   .     S
C295   C296    1.407   .     A
C295   C888    1.419   1_554 S
C296   H309    1.076   .     S
C296   C297    1.399   .     A
C297   C887    1.426   1_554 S
H302   C341    1.086   .     S
H304   C476    1.086   .     S
O314   Zn327   1.962   .     S
O314   Zn330   1.930   .     S
O314   Zn328   1.944   .     S
O314   Zn329   1.925   .     S
O315   Zn328   1.920   .     S
O316   Zn330   1.934   .     S
O317   Zn329   1.929   .     S
O318   Zn327   1.917   .     S
O319   Zn327   1.928   .     S
O320   Zn330   1.929   .     S
O321   Zn328   1.929   .     S
O322   Zn329   1.942   .     S
O323   Zn330   1.936   .     S
O324   Zn327   1.924   .     S
O325   Zn328   1.937   .     S
O326   Zn329   1.932   .     S
C331   O387    1.269   .     A
C331   C341    1.441   .     S
C331   O389    1.268   .     A
C332   C357    1.448   .     S
C332   C360    1.429   .     A
C332   C333    1.392   .     A
C333   H372    1.086   .     S
C333   C929    1.391   .     S
C334   O390    1.279   .     A
C334   O388    1.278   .     A
C334   C340    1.460   .     S
C335   C336    1.417   .     A
C335   C337    1.404   .     A
C335   C927    1.391   1_554 S
C336   C339    1.412   .     A
C336   C361    1.427   .     A
C337   C338    1.395   .     A
C337   H364    1.085   .     S
C338   C355    1.444   .     S
C338   C350    1.404   .     A
C339   H371    1.078   .     S
C339   C350    1.395   .     A
C340   C209    1.341   1_655 S
C340   C222    1.452   1_655 S
C342   C349    1.394   .     A
C342   H373    1.085   .     S
C342   C351    1.396   .     A
C343   C346    1.452   .     S
C343   C542    1.332   .     S
C343   H567    1.088   .     S
C344   C345    1.436   .     S
C345   O391    1.278   .     A
C345   O385    1.278   .     A
C346   O386    1.267   .     A
C346   O392    1.267   .     A
C347   O381    1.276   .     A
C347   O383    1.272   .     A
C347   C350    1.460   .     S
C348   O382    1.282   .     A
C348   O384    1.289   .     A
C348   C349    1.475   .     S
C349   C353    1.389   .     A
C351   C356    1.445   .     S
C351   C359    1.433   .     A
C352   H365    1.111   .     S
C352   H366    1.110   .     S
C352   C363    1.513   .     S
C352   H367    1.110   .     S
C353   C358    1.408   .     A
C353   H374    1.079   .     S
C354   N376    1.157   .     T
C355   N377    1.157   .     T
C356   N378    1.158   .     T
C357   N379    1.158   .     T
C358   C360    1.428   .     A
C358   C359    1.432   .     A
C359   C957    1.426   .     S
C360   C955    1.419   .     S
C361   C362    1.407   .     A
C361   C954    1.419   1_554 S
C362   H375    1.076   .     S
C362   C363    1.399   .     A
C363   C953    1.426   1_554 S
H368   C209    1.086   1_655 S
H370   C542    1.086   .     S
O380   Zn393   1.962   .     S
O380   Zn396   1.930   .     S
O380   Zn394   1.944   .     S
O380   Zn395   1.925   .     S
O381   Zn394   1.920   .     S
O382   Zn396   1.934   .     S
O383   Zn395   1.929   .     S
O384   Zn393   1.917   .     S
O385   Zn393   1.928   .     S
O386   Zn396   1.929   .     S
O387   Zn394   1.929   .     S
O388   Zn395   1.942   .     S
O389   Zn396   1.936   .     S
O390   Zn393   1.924   .     S
O391   Zn394   1.937   .     S
O392   Zn395   1.932   .     S
C397   O453    1.269   .     A
C397   C407    1.441   .     S
C397   O455    1.268   .     A
C398   C423    1.448   .     S
C398   C426    1.429   .     A
C398   C399    1.392   .     A
C399   H438    1.086   .     S
C399   C995    1.391   .     S
C400   O456    1.279   .     A
C400   O454    1.278   .     A
C400   C406    1.460   .     S
C401   C402    1.417   .     A
C401   C403    1.404   .     A
C401   C993    1.391   1_554 S
C402   C405    1.412   .     A
C402   C427    1.427   .     A
C403   C404    1.395   .     A
C403   H430    1.085   .     S
C404   C421    1.444   .     S
C404   C416    1.404   .     A
C405   H437    1.078   .     S
C405   C416    1.395   .     A
C406   C473    1.341   .     S
C406   C486    1.452   .     S
C407   C538    1.341   1_455 S
C407   H566    1.086   1_455 S
C408   C415    1.394   .     A
C408   H439    1.085   .     S
C408   C417    1.396   .     A
C409   C412    1.452   .     S
C409   C14     1.332   1_565 S
C409   H39     1.088   1_565 S
C410   C411    1.436   .     S
C411   O457    1.278   .     A
C411   O451    1.278   .     A
C412   O452    1.267   .     A
C412   O458    1.267   .     A
C413   O447    1.276   .     A
C413   O449    1.272   .     A
C413   C416    1.460   .     S
C414   O448    1.282   .     A
C414   O450    1.289   .     A
C414   C415    1.475   .     S
C415   C419    1.389   .     A
C417   C422    1.445   .     S
C417   C425    1.433   .     A
C418   H431    1.111   .     S
C418   H432    1.110   .     S
C418   C429    1.513   .     S
C418   H433    1.110   .     S
C419   C424    1.408   .     A
C419   H440    1.079   .     S
C420   N442    1.157   .     T
C420   C538    1.452   1_455 S
C421   N443    1.157   .     T
C422   N444    1.158   .     T
C423   N445    1.158   .     T
C424   C426    1.428   .     A
C424   C425    1.432   .     A
C425   C1023   1.426   .     S
C426   C1021   1.419   .     S
C427   C428    1.407   .     A
C427   C1020   1.419   1_554 S
C428   H441    1.076   .     S
C428   C429    1.399   .     A
C429   C1019   1.426   1_554 S
H434   C473    1.086   .     S
H436   C14     1.086   1_565 S
O446   Zn459   1.962   .     S
O446   Zn462   1.930   .     S
O446   Zn460   1.944   .     S
O446   Zn461   1.925   .     S
O447   Zn460   1.920   .     S
O448   Zn462   1.934   .     S
O449   Zn461   1.929   .     S
O450   Zn459   1.917   .     S
O451   Zn459   1.928   .     S
O452   Zn462   1.929   .     S
O453   Zn460   1.929   .     S
O454   Zn461   1.942   .     S
O455   Zn462   1.936   .     S
O456   Zn459   1.924   .     S
O457   Zn460   1.937   .     S
O458   Zn461   1.932   .     S
C463   O519    1.269   .     A
C463   C473    1.441   .     S
C463   O521    1.268   .     A
C464   C489    1.448   .     S
C464   C492    1.429   .     A
C464   C465    1.392   .     A
C465   H504    1.086   .     S
C465   C1061   1.391   .     S
C466   O522    1.279   .     A
C466   O520    1.278   .     A
C466   C472    1.460   .     S
C467   C468    1.417   .     A
C467   C469    1.404   .     A
C467   C1059   1.391   1_554 S
C468   C471    1.412   .     A
C468   C493    1.427   .     A
C469   C470    1.395   .     A
C469   H496    1.085   .     S
C470   C487    1.444   .     S
C470   C482    1.404   .     A
C471   H503    1.078   .     S
C471   C482    1.395   .     A
C472   C539    1.341   .     S
C472   C552    1.452   .     S
C474   C481    1.394   .     A
C474   H505    1.085   .     S
C474   C483    1.396   .     A
C475   C478    1.452   .     S
C475   C80     1.332   1_565 S
C475   H105    1.088   1_565 S
C476   C477    1.436   .     S
C477   O523    1.278   .     A
C477   O517    1.278   .     A
C478   O518    1.267   .     A
C478   O524    1.267   .     A
C479   O513    1.276   .     A
C479   O515    1.272   .     A
C479   C482    1.460   .     S
C480   O514    1.282   .     A
C480   O516    1.289   .     A
C480   C481    1.475   .     S
C481   C485    1.389   .     A
C483   C488    1.445   .     S
C483   C491    1.433   .     A
C484   H497    1.111   .     S
C484   H498    1.110   .     S
C484   C495    1.513   .     S
C484   H499    1.110   .     S
C485   C490    1.408   .     A
C485   H506    1.079   .     S
C486   N508    1.157   .     T
C487   N509    1.157   .     T
C488   N510    1.158   .     T
C489   N511    1.158   .     T
C490   C492    1.428   .     A
C490   C491    1.432   .     A
C491   C1089   1.426   .     S
C492   C1087   1.419   .     S
C493   C494    1.407   .     A
C493   C1086   1.419   1_554 S
C494   H507    1.076   .     S
C494   C495    1.399   .     A
C495   C1085   1.426   1_554 S
H500   C539    1.086   .     S
H502   C80     1.086   1_565 S
O512   Zn525   1.962   .     S
O512   Zn528   1.930   .     S
O512   Zn526   1.944   .     S
O512   Zn527   1.925   .     S
O513   Zn526   1.920   .     S
O514   Zn528   1.934   .     S
O515   Zn527   1.929   .     S
O516   Zn525   1.917   .     S
O517   Zn525   1.928   .     S
O518   Zn528   1.929   .     S
O519   Zn526   1.929   .     S
O520   Zn527   1.942   .     S
O521   Zn528   1.936   .     S
O522   Zn525   1.924   .     S
O523   Zn526   1.937   .     S
O524   Zn527   1.932   .     S
C529   O585    1.269   .     A
C529   C539    1.441   .     S
C529   O587    1.268   .     A
C530   C555    1.448   .     S
C530   C558    1.429   .     A
C530   C531    1.392   .     A
C531   H570    1.086   .     S
C531   C1127   1.391   .     S
C532   O588    1.279   .     A
C532   O586    1.278   .     A
C532   C538    1.460   .     S
C533   C534    1.417   .     A
C533   C535    1.404   .     A
C533   C1125   1.391   1_554 S
C534   C537    1.412   .     A
C534   C559    1.427   .     A
C535   C536    1.395   .     A
C535   H562    1.085   .     S
C536   C553    1.444   .     S
C536   C548    1.404   .     A
C537   H569    1.078   .     S
C537   C548    1.395   .     A
C538   C407    1.341   1_655 S
C538   C420    1.452   1_655 S
C540   C547    1.394   .     A
C540   H571    1.085   .     S
C540   C549    1.396   .     A
C541   C544    1.452   .     S
C541   C146    1.332   1_565 S
C541   H171    1.088   1_565 S
C542   C543    1.436   .     S
C543   O589    1.278   .     A
C543   O583    1.278   .     A
C544   O584    1.267   .     A
C544   O590    1.267   .     A
C545   O579    1.276   .     A
C545   O581    1.272   .     A
C545   C548    1.460   .     S
C546   O580    1.282   .     A
C546   O582    1.289   .     A
C546   C547    1.475   .     S
C547   C551    1.389   .     A
C549   C554    1.445   .     S
C549   C557    1.433   .     A
C550   H563    1.111   .     S
C550   H564    1.110   .     S
C550   C561    1.513   .     S
C550   H565    1.110   .     S
C551   C556    1.408   .     A
C551   H572    1.079   .     S
C552   N574    1.157   .     T
C553   N575    1.157   .     T
C554   N576    1.158   .     T
C555   N577    1.158   .     T
C556   C558    1.428   .     A
C556   C557    1.432   .     A
C557   C1155   1.426   .     S
C558   C1153   1.419   .     S
C559   C560    1.407   .     A
C559   C1152   1.419   1_554 S
C560   H573    1.076   .     S
C560   C561    1.399   .     A
C561   C1151   1.426   1_554 S
H566   C407    1.086   1_655 S
H568   C146    1.086   1_565 S
O578   Zn591   1.962   .     S
O578   Zn594   1.930   .     S
O578   Zn592   1.944   .     S
O578   Zn593   1.925   .     S
O579   Zn592   1.920   .     S
O580   Zn594   1.934   .     S
O581   Zn593   1.929   .     S
O582   Zn591   1.917   .     S
O583   Zn591   1.928   .     S
O584   Zn594   1.929   .     S
O585   Zn592   1.929   .     S
O586   Zn593   1.942   .     S
O587   Zn594   1.936   .     S
O588   Zn591   1.924   .     S
O589   Zn592   1.937   .     S
O590   Zn593   1.932   .     S
C595   O651    1.269   .     A
C595   C605    1.441   .     S
C595   O653    1.268   .     A
C596   C621    1.448   .     S
C596   C624    1.429   .     A
C596   C597    1.392   .     A
C597   H636    1.086   .     S
C597   C5      1.391   1_556 S
C598   O654    1.279   .     A
C598   O652    1.278   .     A
C598   C604    1.460   .     S
C599   C600    1.417   .     A
C599   C601    1.404   .     A
C600   C603    1.412   .     A
C600   C625    1.427   .     A
C601   C602    1.395   .     A
C601   H628    1.085   .     S
C602   C619    1.444   .     S
C602   C614    1.404   .     A
C603   H635    1.078   .     S
C603   C614    1.395   .     A
C604   C671    1.341   .     S
C604   C684    1.452   .     S
C605   C736    1.341   1_455 S
C605   H764    1.086   1_455 S
C606   C613    1.394   .     A
C606   H637    1.085   .     S
C606   C615    1.396   .     A
C607   C610    1.452   .     S
C607   C806    1.332   .     S
C607   H831    1.088   .     S
C608   C609    1.436   .     S
C608   C1003   1.332   1_545 S
C608   H1030   1.086   1_545 S
C609   O655    1.278   .     A
C609   O649    1.278   .     A
C610   O650    1.267   .     A
C610   O656    1.267   .     A
C611   O645    1.276   .     A
C611   O647    1.272   .     A
C611   C614    1.460   .     S
C612   O646    1.282   .     A
C612   O648    1.289   .     A
C612   C613    1.475   .     S
C613   C617    1.389   .     A
C615   C620    1.445   .     S
C615   C623    1.433   .     A
C616   H629    1.111   .     S
C616   H630    1.110   .     S
C616   C627    1.513   .     S
C616   H631    1.110   .     S
C617   C622    1.408   .     A
C617   H638    1.079   .     S
C618   N640    1.157   .     T
C618   C736    1.452   1_455 S
C619   N641    1.157   .     T
C620   N642    1.158   .     T
C621   N643    1.158   .     T
C622   C624    1.428   .     A
C622   C623    1.432   .     A
C623   C33     1.426   1_556 S
C624   C31     1.419   1_556 S
C625   C626    1.407   .     A
C626   H639    1.076   .     S
C626   C627    1.399   .     A
H632   C671    1.086   .     S
H633   C1003   1.088   1_545 S
H634   C806    1.086   .     S
O644   Zn657   1.962   .     S
O644   Zn660   1.930   .     S
O644   Zn658   1.944   .     S
O644   Zn659   1.925   .     S
O645   Zn658   1.920   .     S
O646   Zn660   1.934   .     S
O647   Zn659   1.929   .     S
O648   Zn657   1.917   .     S
O649   Zn657   1.928   .     S
O650   Zn660   1.929   .     S
O651   Zn658   1.929   .     S
O652   Zn659   1.942   .     S
O653   Zn660   1.936   .     S
O654   Zn657   1.924   .     S
O655   Zn658   1.937   .     S
O656   Zn659   1.932   .     S
C661   O717    1.269   .     A
C661   C671    1.441   .     S
C661   O719    1.268   .     A
C662   C687    1.448   .     S
C662   C690    1.429   .     A
C662   C663    1.392   .     A
C663   H702    1.086   .     S
C663   C71     1.391   1_556 S
C664   O720    1.279   .     A
C664   O718    1.278   .     A
C664   C670    1.460   .     S
C665   C666    1.417   .     A
C665   C667    1.404   .     A
C666   C669    1.412   .     A
C666   C691    1.427   .     A
C667   C668    1.395   .     A
C667   H694    1.085   .     S
C668   C685    1.444   .     S
C668   C680    1.404   .     A
C669   H701    1.078   .     S
C669   C680    1.395   .     A
C670   C737    1.341   .     S
C670   C750    1.452   .     S
C672   C679    1.394   .     A
C672   H703    1.085   .     S
C672   C681    1.396   .     A
C673   C676    1.452   .     S
C673   C872    1.332   .     S
C673   H897    1.088   .     S
C674   C675    1.436   .     S
C674   C1069   1.332   1_545 S
C674   H1096   1.086   1_545 S
C675   O721    1.278   .     A
C675   O715    1.278   .     A
C676   O716    1.267   .     A
C676   O722    1.267   .     A
C677   O711    1.276   .     A
C677   O713    1.272   .     A
C677   C680    1.460   .     S
C678   O712    1.282   .     A
C678   O714    1.289   .     A
C678   C679    1.475   .     S
C679   C683    1.389   .     A
C681   C686    1.445   .     S
C681   C689    1.433   .     A
C682   H695    1.111   .     S
C682   H696    1.110   .     S
C682   C693    1.513   .     S
C682   H697    1.110   .     S
C683   C688    1.408   .     A
C683   H704    1.079   .     S
C684   N706    1.157   .     T
C685   N707    1.157   .     T
C686   N708    1.158   .     T
C687   N709    1.158   .     T
C688   C690    1.428   .     A
C688   C689    1.432   .     A
C689   C99     1.426   1_556 S
C690   C97     1.419   1_556 S
C691   C692    1.407   .     A
C692   H705    1.076   .     S
C692   C693    1.399   .     A
H698   C737    1.086   .     S
H699   C1069   1.088   1_545 S
H700   C872    1.086   .     S
O710   Zn723   1.962   .     S
O710   Zn726   1.930   .     S
O710   Zn724   1.944   .     S
O710   Zn725   1.925   .     S
O711   Zn724   1.920   .     S
O712   Zn726   1.934   .     S
O713   Zn725   1.929   .     S
O714   Zn723   1.917   .     S
O715   Zn723   1.928   .     S
O716   Zn726   1.929   .     S
O717   Zn724   1.929   .     S
O718   Zn725   1.942   .     S
O719   Zn726   1.936   .     S
O720   Zn723   1.924   .     S
O721   Zn724   1.937   .     S
O722   Zn725   1.932   .     S
C727   O783    1.269   .     A
C727   C737    1.441   .     S
C727   O785    1.268   .     A
C728   C753    1.448   .     S
C728   C756    1.429   .     A
C728   C729    1.392   .     A
C729   H768    1.086   .     S
C729   C137    1.391   1_556 S
C730   O786    1.279   .     A
C730   O784    1.278   .     A
C730   C736    1.460   .     S
C731   C732    1.417   .     A
C731   C733    1.404   .     A
C732   C735    1.412   .     A
C732   C757    1.427   .     A
C733   C734    1.395   .     A
C733   H760    1.085   .     S
C734   C751    1.444   .     S
C734   C746    1.404   .     A
C735   H767    1.078   .     S
C735   C746    1.395   .     A
C736   C605    1.341   1_655 S
C736   C618    1.452   1_655 S
C738   C745    1.394   .     A
C738   H769    1.085   .     S
C738   C747    1.396   .     A
C739   C742    1.452   .     S
C739   C938    1.332   .     S
C739   H963    1.088   .     S
C740   C741    1.436   .     S
C740   C1135   1.332   1_545 S
C740   H1162   1.086   1_545 S
C741   O787    1.278   .     A
C741   O781    1.278   .     A
C742   O782    1.267   .     A
C742   O788    1.267   .     A
C743   O777    1.276   .     A
C743   O779    1.272   .     A
C743   C746    1.460   .     S
C744   O778    1.282   .     A
C744   O780    1.289   .     A
C744   C745    1.475   .     S
C745   C749    1.389   .     A
C747   C752    1.445   .     S
C747   C755    1.433   .     A
C748   H761    1.111   .     S
C748   H762    1.110   .     S
C748   C759    1.513   .     S
C748   H763    1.110   .     S
C749   C754    1.408   .     A
C749   H770    1.079   .     S
C750   N772    1.157   .     T
C751   N773    1.157   .     T
C752   N774    1.158   .     T
C753   N775    1.158   .     T
C754   C756    1.428   .     A
C754   C755    1.432   .     A
C755   C165    1.426   1_556 S
C756   C163    1.419   1_556 S
C757   C758    1.407   .     A
C758   H771    1.076   .     S
C758   C759    1.399   .     A
H764   C605    1.086   1_655 S
H765   C1135   1.088   1_545 S
H766   C938    1.086   .     S
O776   Zn789   1.962   .     S
O776   Zn792   1.930   .     S
O776   Zn790   1.944   .     S
O776   Zn791   1.925   .     S
O777   Zn790   1.920   .     S
O778   Zn792   1.934   .     S
O779   Zn791   1.929   .     S
O780   Zn789   1.917   .     S
O781   Zn789   1.928   .     S
O782   Zn792   1.929   .     S
O783   Zn790   1.929   .     S
O784   Zn791   1.942   .     S
O785   Zn792   1.936   .     S
O786   Zn789   1.924   .     S
O787   Zn790   1.937   .     S
O788   Zn791   1.932   .     S
C793   O849    1.269   .     A
C793   C803    1.441   .     S
C793   O851    1.268   .     A
C794   C819    1.448   .     S
C794   C822    1.429   .     A
C794   C795    1.392   .     A
C795   H834    1.086   .     S
C795   C203    1.391   1_556 S
C796   O852    1.279   .     A
C796   O850    1.278   .     A
C796   C802    1.460   .     S
C797   C798    1.417   .     A
C797   C799    1.404   .     A
C798   C801    1.412   .     A
C798   C823    1.427   .     A
C799   C800    1.395   .     A
C799   H826    1.085   .     S
C800   C817    1.444   .     S
C800   C812    1.404   .     A
C801   H833    1.078   .     S
C801   C812    1.395   .     A
C802   C869    1.341   .     S
C802   C882    1.452   .     S
C803   C934    1.341   1_455 S
C803   H962    1.086   1_455 S
C804   C811    1.394   .     A
C804   H835    1.085   .     S
C804   C813    1.396   .     A
C805   C808    1.452   .     S
C805   C1004   1.332   .     S
C805   H1029   1.088   .     S
C806   C807    1.436   .     S
C807   O853    1.278   .     A
C807   O847    1.278   .     A
C808   O848    1.267   .     A
C808   O854    1.267   .     A
C809   O843    1.276   .     A
C809   O845    1.272   .     A
C809   C812    1.460   .     S
C810   O844    1.282   .     A
C810   O846    1.289   .     A
C810   C811    1.475   .     S
C811   C815    1.389   .     A
C813   C818    1.445   .     S
C813   C821    1.433   .     A
C814   H827    1.111   .     S
C814   H828    1.110   .     S
C814   C825    1.513   .     S
C814   H829    1.110   .     S
C815   C820    1.408   .     A
C815   H836    1.079   .     S
C816   N838    1.157   .     T
C816   C934    1.452   1_455 S
C817   N839    1.157   .     T
C818   N840    1.158   .     T
C819   N841    1.158   .     T
C820   C822    1.428   .     A
C820   C821    1.432   .     A
C821   C231    1.426   1_556 S
C822   C229    1.419   1_556 S
C823   C824    1.407   .     A
C824   H837    1.076   .     S
C824   C825    1.399   .     A
H830   C869    1.086   .     S
H832   C1004   1.086   .     S
O842   Zn855   1.962   .     S
O842   Zn858   1.930   .     S
O842   Zn856   1.944   .     S
O842   Zn857   1.925   .     S
O843   Zn856   1.920   .     S
O844   Zn858   1.934   .     S
O845   Zn857   1.929   .     S
O846   Zn855   1.917   .     S
O847   Zn855   1.928   .     S
O848   Zn858   1.929   .     S
O849   Zn856   1.929   .     S
O850   Zn857   1.942   .     S
O851   Zn858   1.936   .     S
O852   Zn855   1.924   .     S
O853   Zn856   1.937   .     S
O854   Zn857   1.932   .     S
C859   O915    1.269   .     A
C859   C869    1.441   .     S
C859   O917    1.268   .     A
C860   C885    1.448   .     S
C860   C888    1.429   .     A
C860   C861    1.392   .     A
C861   H900    1.086   .     S
C861   C269    1.391   1_556 S
C862   O918    1.279   .     A
C862   O916    1.278   .     A
C862   C868    1.460   .     S
C863   C864    1.417   .     A
C863   C865    1.404   .     A
C864   C867    1.412   .     A
C864   C889    1.427   .     A
C865   C866    1.395   .     A
C865   H892    1.085   .     S
C866   C883    1.444   .     S
C866   C878    1.404   .     A
C867   H899    1.078   .     S
C867   C878    1.395   .     A
C868   C935    1.341   .     S
C868   C948    1.452   .     S
C870   C877    1.394   .     A
C870   H901    1.085   .     S
C870   C879    1.396   .     A
C871   C874    1.452   .     S
C871   C1070   1.332   .     S
C871   H1095   1.088   .     S
C872   C873    1.436   .     S
C873   O919    1.278   .     A
C873   O913    1.278   .     A
C874   O914    1.267   .     A
C874   O920    1.267   .     A
C875   O909    1.276   .     A
C875   O911    1.272   .     A
C875   C878    1.460   .     S
C876   O910    1.282   .     A
C876   O912    1.289   .     A
C876   C877    1.475   .     S
C877   C881    1.389   .     A
C879   C884    1.445   .     S
C879   C887    1.433   .     A
C880   H893    1.111   .     S
C880   H894    1.110   .     S
C880   C891    1.513   .     S
C880   H895    1.110   .     S
C881   C886    1.408   .     A
C881   H902    1.079   .     S
C882   N904    1.157   .     T
C883   N905    1.157   .     T
C884   N906    1.158   .     T
C885   N907    1.158   .     T
C886   C888    1.428   .     A
C886   C887    1.432   .     A
C887   C297    1.426   1_556 S
C888   C295    1.419   1_556 S
C889   C890    1.407   .     A
C890   H903    1.076   .     S
C890   C891    1.399   .     A
H896   C935    1.086   .     S
H898   C1070   1.086   .     S
O908   Zn921   1.962   .     S
O908   Zn924   1.930   .     S
O908   Zn922   1.944   .     S
O908   Zn923   1.925   .     S
O909   Zn922   1.920   .     S
O910   Zn924   1.934   .     S
O911   Zn923   1.929   .     S
O912   Zn921   1.917   .     S
O913   Zn921   1.928   .     S
O914   Zn924   1.929   .     S
O915   Zn922   1.929   .     S
O916   Zn923   1.942   .     S
O917   Zn924   1.936   .     S
O918   Zn921   1.924   .     S
O919   Zn922   1.937   .     S
O920   Zn923   1.932   .     S
C925   O981    1.269   .     A
C925   C935    1.441   .     S
C925   O983    1.268   .     A
C926   C951    1.448   .     S
C926   C954    1.429   .     A
C926   C927    1.392   .     A
C927   H966    1.086   .     S
C927   C335    1.391   1_556 S
C928   O984    1.279   .     A
C928   O982    1.278   .     A
C928   C934    1.460   .     S
C929   C930    1.417   .     A
C929   C931    1.404   .     A
C930   C933    1.412   .     A
C930   C955    1.427   .     A
C931   C932    1.395   .     A
C931   H958    1.085   .     S
C932   C949    1.444   .     S
C932   C944    1.404   .     A
C933   H965    1.078   .     S
C933   C944    1.395   .     A
C934   C803    1.341   1_655 S
C934   C816    1.452   1_655 S
C936   C943    1.394   .     A
C936   H967    1.085   .     S
C936   C945    1.396   .     A
C937   C940    1.452   .     S
C937   C1136   1.332   .     S
C937   H1161   1.088   .     S
C938   C939    1.436   .     S
C939   O985    1.278   .     A
C939   O979    1.278   .     A
C940   O980    1.267   .     A
C940   O986    1.267   .     A
C941   O975    1.276   .     A
C941   O977    1.272   .     A
C941   C944    1.460   .     S
C942   O976    1.282   .     A
C942   O978    1.289   .     A
C942   C943    1.475   .     S
C943   C947    1.389   .     A
C945   C950    1.445   .     S
C945   C953    1.433   .     A
C946   H959    1.111   .     S
C946   H960    1.110   .     S
C946   C957    1.513   .     S
C946   H961    1.110   .     S
C947   C952    1.408   .     A
C947   H968    1.079   .     S
C948   N970    1.157   .     T
C949   N971    1.157   .     T
C950   N972    1.158   .     T
C951   N973    1.158   .     T
C952   C954    1.428   .     A
C952   C953    1.432   .     A
C953   C363    1.426   1_556 S
C954   C361    1.419   1_556 S
C955   C956    1.407   .     A
C956   H969    1.076   .     S
C956   C957    1.399   .     A
H962   C803    1.086   1_655 S
H964   C1136   1.086   .     S
O974   Zn987   1.962   .     S
O974   Zn990   1.930   .     S
O974   Zn988   1.944   .     S
O974   Zn989   1.925   .     S
O975   Zn988   1.920   .     S
O976   Zn990   1.934   .     S
O977   Zn989   1.929   .     S
O978   Zn987   1.917   .     S
O979   Zn987   1.928   .     S
O980   Zn990   1.929   .     S
O981   Zn988   1.929   .     S
O982   Zn989   1.942   .     S
O983   Zn990   1.936   .     S
O984   Zn987   1.924   .     S
O985   Zn988   1.937   .     S
O986   Zn989   1.932   .     S
C991   O1047   1.269   .     A
C991   C1001   1.441   .     S
C991   O1049   1.268   .     A
C992   C1017   1.448   .     S
C992   C1020   1.429   .     A
C992   C993    1.392   .     A
C993   H1032   1.086   .     S
C993   C401    1.391   1_556 S
C994   O1050   1.279   .     A
C994   O1048   1.278   .     A
C994   C1000   1.460   .     S
C995   C996    1.417   .     A
C995   C997    1.404   .     A
C996   C999    1.412   .     A
C996   C1021   1.427   .     A
C997   C998    1.395   .     A
C997   H1024   1.085   .     S
C998   C1015   1.444   .     S
C998   C1010   1.404   .     A
C999   H1031   1.078   .     S
C999   C1010   1.395   .     A
C1000  C1067   1.341   .     S
C1000  C1080   1.452   .     S
C1001  C1132   1.341   1_455 S
C1001  H1160   1.086   1_455 S
C1002  C1009   1.394   .     A
C1002  H1033   1.085   .     S
C1002  C1011   1.396   .     A
C1003  C1006   1.452   .     S
C1003  C608    1.332   1_565 S
C1003  H633    1.088   1_565 S
C1004  C1005   1.436   .     S
C1005  O1051   1.278   .     A
C1005  O1045   1.278   .     A
C1006  O1046   1.267   .     A
C1006  O1052   1.267   .     A
C1007  O1041   1.276   .     A
C1007  O1043   1.272   .     A
C1007  C1010   1.460   .     S
C1008  O1042   1.282   .     A
C1008  O1044   1.289   .     A
C1008  C1009   1.475   .     S
C1009  C1013   1.389   .     A
C1011  C1016   1.445   .     S
C1011  C1019   1.433   .     A
C1012  H1025   1.111   .     S
C1012  H1026   1.110   .     S
C1012  C1023   1.513   .     S
C1012  H1027   1.110   .     S
C1013  C1018   1.408   .     A
C1013  H1034   1.079   .     S
C1014  N1036   1.157   .     T
C1014  C1132   1.452   1_455 S
C1015  N1037   1.157   .     T
C1016  N1038   1.158   .     T
C1017  N1039   1.158   .     T
C1018  C1020   1.428   .     A
C1018  C1019   1.432   .     A
C1019  C429    1.426   1_556 S
C1020  C427    1.419   1_556 S
C1021  C1022   1.407   .     A
C1022  H1035   1.076   .     S
C1022  C1023   1.399   .     A
H1028  C1067   1.086   .     S
H1030  C608    1.086   1_565 S
O1040  Zn1053  1.962   .     S
O1040  Zn1056  1.930   .     S
O1040  Zn1054  1.944   .     S
O1040  Zn1055  1.925   .     S
O1041  Zn1054  1.920   .     S
O1042  Zn1056  1.934   .     S
O1043  Zn1055  1.929   .     S
O1044  Zn1053  1.917   .     S
O1045  Zn1053  1.928   .     S
O1046  Zn1056  1.929   .     S
O1047  Zn1054  1.929   .     S
O1048  Zn1055  1.942   .     S
O1049  Zn1056  1.936   .     S
O1050  Zn1053  1.924   .     S
O1051  Zn1054  1.937   .     S
O1052  Zn1055  1.932   .     S
C1057  O1113   1.269   .     A
C1057  C1067   1.441   .     S
C1057  O1115   1.268   .     A
C1058  C1083   1.448   .     S
C1058  C1086   1.429   .     A
C1058  C1059   1.392   .     A
C1059  H1098   1.086   .     S
C1059  C467    1.391   1_556 S
C1060  O1116   1.279   .     A
C1060  O1114   1.278   .     A
C1060  C1066   1.460   .     S
C1061  C1062   1.417   .     A
C1061  C1063   1.404   .     A
C1062  C1065   1.412   .     A
C1062  C1087   1.427   .     A
C1063  C1064   1.395   .     A
C1063  H1090   1.085   .     S
C1064  C1081   1.444   .     S
C1064  C1076   1.404   .     A
C1065  H1097   1.078   .     S
C1065  C1076   1.395   .     A
C1066  C1133   1.341   .     S
C1066  C1146   1.452   .     S
C1068  C1075   1.394   .     A
C1068  H1099   1.085   .     S
C1068  C1077   1.396   .     A
C1069  C1072   1.452   .     S
C1069  C674    1.332   1_565 S
C1069  H699    1.088   1_565 S
C1070  C1071   1.436   .     S
C1071  O1117   1.278   .     A
C1071  O1111   1.278   .     A
C1072  O1112   1.267   .     A
C1072  O1118   1.267   .     A
C1073  O1107   1.276   .     A
C1073  O1109   1.272   .     A
C1073  C1076   1.460   .     S
C1074  O1108   1.282   .     A
C1074  O1110   1.289   .     A
C1074  C1075   1.475   .     S
C1075  C1079   1.389   .     A
C1077  C1082   1.445   .     S
C1077  C1085   1.433   .     A
C1078  H1091   1.111   .     S
C1078  H1092   1.110   .     S
C1078  C1089   1.513   .     S
C1078  H1093   1.110   .     S
C1079  C1084   1.408   .     A
C1079  H1100   1.079   .     S
C1080  N1102   1.157   .     T
C1081  N1103   1.157   .     T
C1082  N1104   1.158   .     T
C1083  N1105   1.158   .     T
C1084  C1086   1.428   .     A
C1084  C1085   1.432   .     A
C1085  C495    1.426   1_556 S
C1086  C493    1.419   1_556 S
C1087  C1088   1.407   .     A
C1088  H1101   1.076   .     S
C1088  C1089   1.399   .     A
H1094  C1133   1.086   .     S
H1096  C674    1.086   1_565 S
O1106  Zn1119  1.962   .     S
O1106  Zn1122  1.930   .     S
O1106  Zn1120  1.944   .     S
O1106  Zn1121  1.925   .     S
O1107  Zn1120  1.920   .     S
O1108  Zn1122  1.934   .     S
O1109  Zn1121  1.929   .     S
O1110  Zn1119  1.917   .     S
O1111  Zn1119  1.928   .     S
O1112  Zn1122  1.929   .     S
O1113  Zn1120  1.929   .     S
O1114  Zn1121  1.942   .     S
O1115  Zn1122  1.936   .     S
O1116  Zn1119  1.924   .     S
O1117  Zn1120  1.937   .     S
O1118  Zn1121  1.932   .     S
C1123  O1179   1.269   .     A
C1123  C1133   1.441   .     S
C1123  O1181   1.268   .     A
C1124  C1149   1.448   .     S
C1124  C1152   1.429   .     A
C1124  C1125   1.392   .     A
C1125  H1164   1.086   .     S
C1125  C533    1.391   1_556 S
C1126  O1182   1.279   .     A
C1126  O1180   1.278   .     A
C1126  C1132   1.460   .     S
C1127  C1128   1.417   .     A
C1127  C1129   1.404   .     A
C1128  C1131   1.412   .     A
C1128  C1153   1.427   .     A
C1129  C1130   1.395   .     A
C1129  H1156   1.085   .     S
C1130  C1147   1.444   .     S
C1130  C1142   1.404   .     A
C1131  H1163   1.078   .     S
C1131  C1142   1.395   .     A
C1132  C1001   1.341   1_655 S
C1132  C1014   1.452   1_655 S
C1134  C1141   1.394   .     A
C1134  H1165   1.085   .     S
C1134  C1143   1.396   .     A
C1135  C1138   1.452   .     S
C1135  C740    1.332   1_565 S
C1135  H765    1.088   1_565 S
C1136  C1137   1.436   .     S
C1137  O1183   1.278   .     A
C1137  O1177   1.278   .     A
C1138  O1178   1.267   .     A
C1138  O1184   1.267   .     A
C1139  O1173   1.276   .     A
C1139  O1175   1.272   .     A
C1139  C1142   1.460   .     S
C1140  O1174   1.282   .     A
C1140  O1176   1.289   .     A
C1140  C1141   1.475   .     S
C1141  C1145   1.389   .     A
C1143  C1148   1.445   .     S
C1143  C1151   1.433   .     A
C1144  H1157   1.111   .     S
C1144  H1158   1.110   .     S
C1144  C1155   1.513   .     S
C1144  H1159   1.110   .     S
C1145  C1150   1.408   .     A
C1145  H1166   1.079   .     S
C1146  N1168   1.157   .     T
C1147  N1169   1.157   .     T
C1148  N1170   1.158   .     T
C1149  N1171   1.158   .     T
C1150  C1152   1.428   .     A
C1150  C1151   1.432   .     A
C1151  C561    1.426   1_556 S
C1152  C559    1.419   1_556 S
C1153  C1154   1.407   .     A
C1154  H1167   1.076   .     S
C1154  C1155   1.399   .     A
H1160  C1001   1.086   1_655 S
H1162  C740    1.086   1_565 S
O1172  Zn1185  1.962   .     S
O1172  Zn1188  1.930   .     S
O1172  Zn1186  1.944   .     S
O1172  Zn1187  1.925   .     S
O1173  Zn1186  1.920   .     S
O1174  Zn1188  1.934   .     S
O1175  Zn1187  1.929   .     S
O1176  Zn1185  1.917   .     S
O1177  Zn1185  1.928   .     S
O1178  Zn1188  1.929   .     S
O1179  Zn1186  1.929   .     S
O1180  Zn1187  1.942   .     S
O1181  Zn1188  1.936   .     S
O1182  Zn1185  1.924   .     S
O1183  Zn1186  1.937   .     S
O1184  Zn1187  1.932   .     S
