data_str_m2_o1_o10_pcu_sym.221
_audit_creation_date              2020-01-03
_audit_creation_method            'Materials Studio'
_symmetry_space_group_name_H-M    'P1'
_symmetry_Int_Tables_number       1
_symmetry_cell_setting            triclinic
loop_
_symmetry_equiv_pos_as_xyz
  x,y,z
_cell_length_a                    26.2555
_cell_length_b                    32.7603
_cell_length_c                    28.7324
_cell_angle_alpha                 90.9515
_cell_angle_beta                  97.4613
_cell_angle_gamma                 92.7083
loop_
_atom_site_label
_atom_site_type_symbol
_atom_site_fract_x
_atom_site_fract_y
_atom_site_fract_z
_atom_site_U_iso_or_equiv
_atom_site_adp_type
_atom_site_occupancy
O1     O     0.16666   0.10655   0.20625   0.00000  Uiso   1.00
O2     O     0.16667   0.22678   0.12709   0.00000  Uiso   1.00
O3     O     0.16666   0.10654   0.12706   0.00000  Uiso   1.00
O4     O     0.16667   0.22679   0.20628   0.00000  Uiso   1.00
C5     C     0.16998   0.08755   0.16660   0.00000  Uiso   1.00
C6     C     0.16336   0.24578   0.16674   0.00000  Uiso   1.00
O7     O     0.09161   0.16667   0.19712   0.00000  Uiso   1.00
O8     O     0.24172   0.16666   0.13621   0.00000  Uiso   1.00
O9     O     0.09161   0.16666   0.11793   0.00000  Uiso   1.00
O10    O     0.24172   0.16667   0.21540   0.00000  Uiso   1.00
C11    C     0.06810   0.16558   0.15501   0.00000  Uiso   1.00
C12    C     0.26523   0.16775   0.17833   0.00000  Uiso   1.00
Cu13   Cu    0.16667   0.16667   0.21355   0.00000  Uiso   1.00
Cu14   Cu    0.16667   0.16666   0.11978   0.00000  Uiso   1.00
N15    N     0.16668   0.16668   0.28403   0.00000  Uiso   1.00
N16    N     0.16665   0.16666   0.04931   0.00000  Uiso   1.00
C17    C     0.01334   0.15850   0.15052   0.00000  Uiso   1.00
C18    C     0.32000   0.17483   0.18281   0.00000  Uiso   1.00
C19    C     0.16263   0.01983   0.12346   0.00000  Uiso   1.00
C20    C     0.17070   0.31351   0.20987   0.00000  Uiso   1.00
C21    C     0.15253   0.31113   0.12432   0.00000  Uiso   1.00
C22    C     0.18081   0.02221   0.20901   0.00000  Uiso   1.00
C23    C     0.16048   0.29053   0.16723   0.00000  Uiso   1.00
C24    C     0.17285   0.04280   0.16611   0.00000  Uiso   1.00
C25    C     0.13123   0.14296   0.01990   0.00000  Uiso   1.00
C26    C     0.20211   0.19037   0.31343   0.00000  Uiso   1.00
C27    C     0.13114   0.14299   0.30383   0.00000  Uiso   1.00
C28    C     0.20220   0.19035   0.02950   0.00000  Uiso   1.00
Cl29   Cl    0.32005   0.12026   0.10875   0.00000  Uiso   1.00
Cl30   Cl    0.01328   0.21307   0.22459   0.00000  Uiso   1.00
Cl31   Cl    0.16783   0.04111   0.06785   0.00000  Uiso   1.00
Cl32   Cl    0.16550   0.29222   0.26548   0.00000  Uiso   1.00
Cl33   Cl    0.12380   0.28611   0.07130   0.00000  Uiso   1.00
Cl34   Cl    0.20953   0.04722   0.26204   0.00000  Uiso   1.00
Cl35   Cl    0.08492   0.11107   0.04237   0.00000  Uiso   1.00
Cl36   Cl    0.24841   0.22226   0.29097   0.00000  Uiso   1.00
N37    N     0.09293   0.11815   0.27483   0.00000  Uiso   1.00
O38    O     0.04563   0.12916   0.26979   0.00000  Uiso   1.00
O39    O     0.10129   0.07994   0.26747   0.00000  Uiso   1.00
N40    N     0.24041   0.21517   0.05850   0.00000  Uiso   1.00
O41    O     0.23205   0.25338   0.06588   0.00000  Uiso   1.00
O42    O     0.28771   0.20417   0.06353   0.00000  Uiso   1.00
O43    O     0.50000   0.10655   0.20625   0.00000  Uiso   1.00
O44    O     0.50000   0.22678   0.12709   0.00000  Uiso   1.00
O45    O     0.50000   0.10654   0.12706   0.00000  Uiso   1.00
O46    O     0.50000   0.22679   0.20628   0.00000  Uiso   1.00
C47    C     0.50331   0.08755   0.16660   0.00000  Uiso   1.00
C48    C     0.49669   0.24578   0.16674   0.00000  Uiso   1.00
O49    O     0.42495   0.16667   0.19712   0.00000  Uiso   1.00
O50    O     0.57505   0.16666   0.13621   0.00000  Uiso   1.00
O51    O     0.42494   0.16666   0.11793   0.00000  Uiso   1.00
O52    O     0.57506   0.16667   0.21540   0.00000  Uiso   1.00
C53    C     0.40143   0.16558   0.15501   0.00000  Uiso   1.00
C54    C     0.59857   0.16775   0.17833   0.00000  Uiso   1.00
Cu55   Cu    0.50000   0.16667   0.21355   0.00000  Uiso   1.00
Cu56   Cu    0.50000   0.16666   0.11978   0.00000  Uiso   1.00
N57    N     0.50001   0.16668   0.28403   0.00000  Uiso   1.00
N58    N     0.49999   0.16666   0.04931   0.00000  Uiso   1.00
C59    C     0.34667   0.15850   0.15052   0.00000  Uiso   1.00
C60    C     0.65333   0.17483   0.18281   0.00000  Uiso   1.00
C61    C     0.49597   0.01983   0.12346   0.00000  Uiso   1.00
C62    C     0.50403   0.31351   0.20987   0.00000  Uiso   1.00
C63    C     0.48586   0.31113   0.12432   0.00000  Uiso   1.00
C64    C     0.51414   0.02221   0.20901   0.00000  Uiso   1.00
C65    C     0.49382   0.29053   0.16723   0.00000  Uiso   1.00
C66    C     0.50619   0.04280   0.16611   0.00000  Uiso   1.00
C67    C     0.46456   0.14296   0.01990   0.00000  Uiso   1.00
C68    C     0.53544   0.19037   0.31343   0.00000  Uiso   1.00
C69    C     0.46447   0.14299   0.30383   0.00000  Uiso   1.00
C70    C     0.53553   0.19035   0.02950   0.00000  Uiso   1.00
Cl71   Cl    0.65338   0.12026   0.10875   0.00000  Uiso   1.00
Cl72   Cl    0.34662   0.21307   0.22459   0.00000  Uiso   1.00
Cl73   Cl    0.50117   0.04111   0.06785   0.00000  Uiso   1.00
Cl74   Cl    0.49883   0.29222   0.26548   0.00000  Uiso   1.00
Cl75   Cl    0.45714   0.28611   0.07130   0.00000  Uiso   1.00
Cl76   Cl    0.54287   0.04722   0.26204   0.00000  Uiso   1.00
Cl77   Cl    0.41826   0.11107   0.04237   0.00000  Uiso   1.00
Cl78   Cl    0.58174   0.22226   0.29097   0.00000  Uiso   1.00
N79    N     0.42627   0.11815   0.27483   0.00000  Uiso   1.00
O80    O     0.37896   0.12916   0.26979   0.00000  Uiso   1.00
O81    O     0.43462   0.07994   0.26747   0.00000  Uiso   1.00
N82    N     0.57374   0.21517   0.05850   0.00000  Uiso   1.00
O83    O     0.56538   0.25338   0.06588   0.00000  Uiso   1.00
O84    O     0.62104   0.20417   0.06353   0.00000  Uiso   1.00
O85    O     0.83333   0.10655   0.20625   0.00000  Uiso   1.00
O86    O     0.83334   0.22678   0.12709   0.00000  Uiso   1.00
O87    O     0.83333   0.10654   0.12706   0.00000  Uiso   1.00
O88    O     0.83334   0.22679   0.20628   0.00000  Uiso   1.00
C89    C     0.83664   0.08755   0.16660   0.00000  Uiso   1.00
C90    C     0.83002   0.24578   0.16674   0.00000  Uiso   1.00
O91    O     0.75828   0.16667   0.19712   0.00000  Uiso   1.00
O92    O     0.90839   0.16666   0.13621   0.00000  Uiso   1.00
O93    O     0.75828   0.16666   0.11793   0.00000  Uiso   1.00
O94    O     0.90839   0.16667   0.21540   0.00000  Uiso   1.00
C95    C     0.73477   0.16558   0.15501   0.00000  Uiso   1.00
C96    C     0.93190   0.16775   0.17833   0.00000  Uiso   1.00
Cu97   Cu    0.83333   0.16667   0.21355   0.00000  Uiso   1.00
Cu98   Cu    0.83333   0.16666   0.11978   0.00000  Uiso   1.00
N99    N     0.83335   0.16668   0.28403   0.00000  Uiso   1.00
N100   N     0.83332   0.16666   0.04931   0.00000  Uiso   1.00
C101   C     0.68000   0.15850   0.15052   0.00000  Uiso   1.00
C102   C     0.98666   0.17483   0.18281   0.00000  Uiso   1.00
C103   C     0.82930   0.01983   0.12346   0.00000  Uiso   1.00
C104   C     0.83737   0.31351   0.20987   0.00000  Uiso   1.00
C105   C     0.81920   0.31113   0.12432   0.00000  Uiso   1.00
C106   C     0.84747   0.02221   0.20901   0.00000  Uiso   1.00
C107   C     0.82715   0.29053   0.16723   0.00000  Uiso   1.00
C108   C     0.83952   0.04280   0.16611   0.00000  Uiso   1.00
C109   C     0.79789   0.14296   0.01990   0.00000  Uiso   1.00
C110   C     0.86877   0.19037   0.31343   0.00000  Uiso   1.00
C111   C     0.79780   0.14299   0.30383   0.00000  Uiso   1.00
C112   C     0.86887   0.19035   0.02950   0.00000  Uiso   1.00
Cl113  Cl    0.98672   0.12026   0.10875   0.00000  Uiso   1.00
Cl114  Cl    0.67995   0.21307   0.22459   0.00000  Uiso   1.00
Cl115  Cl    0.83450   0.04111   0.06785   0.00000  Uiso   1.00
Cl116  Cl    0.83217   0.29222   0.26548   0.00000  Uiso   1.00
Cl117  Cl    0.79047   0.28611   0.07130   0.00000  Uiso   1.00
Cl118  Cl    0.87620   0.04722   0.26204   0.00000  Uiso   1.00
Cl119  Cl    0.75159   0.11107   0.04237   0.00000  Uiso   1.00
Cl120  Cl    0.91508   0.22226   0.29097   0.00000  Uiso   1.00
N121   N     0.75960   0.11815   0.27483   0.00000  Uiso   1.00
O122   O     0.71230   0.12916   0.26979   0.00000  Uiso   1.00
O123   O     0.76796   0.07994   0.26747   0.00000  Uiso   1.00
N124   N     0.90707   0.21517   0.05850   0.00000  Uiso   1.00
O125   O     0.89872   0.25338   0.06588   0.00000  Uiso   1.00
O126   O     0.95438   0.20417   0.06353   0.00000  Uiso   1.00
O127   O     0.16666   0.43989   0.20625   0.00000  Uiso   1.00
O128   O     0.16667   0.56011   0.12709   0.00000  Uiso   1.00
O129   O     0.16666   0.43988   0.12706   0.00000  Uiso   1.00
O130   O     0.16667   0.56012   0.20628   0.00000  Uiso   1.00
C131   C     0.16998   0.42089   0.16660   0.00000  Uiso   1.00
C132   C     0.16336   0.57911   0.16674   0.00000  Uiso   1.00
O133   O     0.09161   0.50000   0.19712   0.00000  Uiso   1.00
O134   O     0.24172   0.50000   0.13621   0.00000  Uiso   1.00
O135   O     0.09161   0.49999   0.11793   0.00000  Uiso   1.00
O136   O     0.24172   0.50001   0.21540   0.00000  Uiso   1.00
C137   C     0.06810   0.49892   0.15501   0.00000  Uiso   1.00
C138   C     0.26523   0.50109   0.17833   0.00000  Uiso   1.00
Cu139  Cu    0.16667   0.50001   0.21355   0.00000  Uiso   1.00
Cu140  Cu    0.16667   0.49999   0.11978   0.00000  Uiso   1.00
N141   N     0.16668   0.50001   0.28403   0.00000  Uiso   1.00
N142   N     0.16665   0.49999   0.04931   0.00000  Uiso   1.00
C143   C     0.01334   0.49183   0.15052   0.00000  Uiso   1.00
C144   C     0.32000   0.50817   0.18281   0.00000  Uiso   1.00
C145   C     0.16263   0.35316   0.12346   0.00000  Uiso   1.00
C146   C     0.17070   0.64684   0.20987   0.00000  Uiso   1.00
C147   C     0.15253   0.64446   0.12432   0.00000  Uiso   1.00
C148   C     0.18081   0.35554   0.20901   0.00000  Uiso   1.00
C149   C     0.16048   0.62387   0.16723   0.00000  Uiso   1.00
C150   C     0.17285   0.37613   0.16611   0.00000  Uiso   1.00
C151   C     0.13123   0.47629   0.01990   0.00000  Uiso   1.00
C152   C     0.20211   0.52371   0.31343   0.00000  Uiso   1.00
C153   C     0.13114   0.47632   0.30383   0.00000  Uiso   1.00
C154   C     0.20220   0.52368   0.02950   0.00000  Uiso   1.00
Cl155  Cl    0.32005   0.45359   0.10875   0.00000  Uiso   1.00
Cl156  Cl    0.01328   0.54641   0.22459   0.00000  Uiso   1.00
Cl157  Cl    0.16783   0.37444   0.06785   0.00000  Uiso   1.00
Cl158  Cl    0.16550   0.62556   0.26548   0.00000  Uiso   1.00
Cl159  Cl    0.12380   0.61945   0.07130   0.00000  Uiso   1.00
Cl160  Cl    0.20953   0.38055   0.26204   0.00000  Uiso   1.00
Cl161  Cl    0.08492   0.44440   0.04237   0.00000  Uiso   1.00
Cl162  Cl    0.24841   0.55560   0.29097   0.00000  Uiso   1.00
N163   N     0.09293   0.45149   0.27483   0.00000  Uiso   1.00
O164   O     0.04563   0.46249   0.26979   0.00000  Uiso   1.00
O165   O     0.10129   0.41328   0.26747   0.00000  Uiso   1.00
N166   N     0.24041   0.54851   0.05850   0.00000  Uiso   1.00
O167   O     0.23205   0.58672   0.06588   0.00000  Uiso   1.00
O168   O     0.28771   0.53750   0.06353   0.00000  Uiso   1.00
O169   O     0.50000   0.43989   0.20625   0.00000  Uiso   1.00
O170   O     0.50000   0.56011   0.12709   0.00000  Uiso   1.00
O171   O     0.50000   0.43988   0.12706   0.00000  Uiso   1.00
O172   O     0.50000   0.56012   0.20628   0.00000  Uiso   1.00
C173   C     0.50331   0.42089   0.16660   0.00000  Uiso   1.00
C174   C     0.49669   0.57911   0.16674   0.00000  Uiso   1.00
O175   O     0.42495   0.50000   0.19712   0.00000  Uiso   1.00
O176   O     0.57505   0.50000   0.13621   0.00000  Uiso   1.00
O177   O     0.42494   0.49999   0.11793   0.00000  Uiso   1.00
O178   O     0.57506   0.50001   0.21540   0.00000  Uiso   1.00
C179   C     0.40143   0.49892   0.15501   0.00000  Uiso   1.00
C180   C     0.59857   0.50109   0.17833   0.00000  Uiso   1.00
Cu181  Cu    0.50000   0.50001   0.21355   0.00000  Uiso   1.00
Cu182  Cu    0.50000   0.49999   0.11978   0.00000  Uiso   1.00
N183   N     0.50001   0.50001   0.28403   0.00000  Uiso   1.00
N184   N     0.49999   0.49999   0.04931   0.00000  Uiso   1.00
C185   C     0.34667   0.49183   0.15052   0.00000  Uiso   1.00
C186   C     0.65333   0.50817   0.18281   0.00000  Uiso   1.00
C187   C     0.49597   0.35316   0.12346   0.00000  Uiso   1.00
C188   C     0.50403   0.64684   0.20987   0.00000  Uiso   1.00
C189   C     0.48586   0.64446   0.12432   0.00000  Uiso   1.00
C190   C     0.51414   0.35554   0.20901   0.00000  Uiso   1.00
C191   C     0.49382   0.62387   0.16723   0.00000  Uiso   1.00
C192   C     0.50619   0.37613   0.16611   0.00000  Uiso   1.00
C193   C     0.46456   0.47629   0.01990   0.00000  Uiso   1.00
C194   C     0.53544   0.52371   0.31343   0.00000  Uiso   1.00
C195   C     0.46447   0.47632   0.30383   0.00000  Uiso   1.00
C196   C     0.53553   0.52368   0.02950   0.00000  Uiso   1.00
Cl197  Cl    0.65338   0.45359   0.10875   0.00000  Uiso   1.00
Cl198  Cl    0.34662   0.54641   0.22459   0.00000  Uiso   1.00
Cl199  Cl    0.50117   0.37444   0.06785   0.00000  Uiso   1.00
Cl200  Cl    0.49883   0.62556   0.26548   0.00000  Uiso   1.00
Cl201  Cl    0.45714   0.61945   0.07130   0.00000  Uiso   1.00
Cl202  Cl    0.54287   0.38055   0.26204   0.00000  Uiso   1.00
Cl203  Cl    0.41826   0.44440   0.04237   0.00000  Uiso   1.00
Cl204  Cl    0.58174   0.55560   0.29097   0.00000  Uiso   1.00
N205   N     0.42627   0.45149   0.27483   0.00000  Uiso   1.00
O206   O     0.37896   0.46249   0.26979   0.00000  Uiso   1.00
O207   O     0.43462   0.41328   0.26747   0.00000  Uiso   1.00
N208   N     0.57374   0.54851   0.05850   0.00000  Uiso   1.00
O209   O     0.56538   0.58672   0.06588   0.00000  Uiso   1.00
O210   O     0.62104   0.53750   0.06353   0.00000  Uiso   1.00
O211   O     0.83333   0.43989   0.20625   0.00000  Uiso   1.00
O212   O     0.83334   0.56011   0.12709   0.00000  Uiso   1.00
O213   O     0.83333   0.43988   0.12706   0.00000  Uiso   1.00
O214   O     0.83334   0.56012   0.20628   0.00000  Uiso   1.00
C215   C     0.83664   0.42089   0.16660   0.00000  Uiso   1.00
C216   C     0.83002   0.57911   0.16674   0.00000  Uiso   1.00
O217   O     0.75828   0.50000   0.19712   0.00000  Uiso   1.00
O218   O     0.90839   0.50000   0.13621   0.00000  Uiso   1.00
O219   O     0.75828   0.49999   0.11793   0.00000  Uiso   1.00
O220   O     0.90839   0.50001   0.21540   0.00000  Uiso   1.00
C221   C     0.73477   0.49892   0.15501   0.00000  Uiso   1.00
C222   C     0.93190   0.50109   0.17833   0.00000  Uiso   1.00
Cu223  Cu    0.83333   0.50001   0.21355   0.00000  Uiso   1.00
Cu224  Cu    0.83333   0.49999   0.11978   0.00000  Uiso   1.00
N225   N     0.83335   0.50001   0.28403   0.00000  Uiso   1.00
N226   N     0.83332   0.49999   0.04931   0.00000  Uiso   1.00
C227   C     0.68000   0.49183   0.15052   0.00000  Uiso   1.00
C228   C     0.98666   0.50817   0.18281   0.00000  Uiso   1.00
C229   C     0.82930   0.35316   0.12346   0.00000  Uiso   1.00
C230   C     0.83737   0.64684   0.20987   0.00000  Uiso   1.00
C231   C     0.81920   0.64446   0.12432   0.00000  Uiso   1.00
C232   C     0.84747   0.35554   0.20901   0.00000  Uiso   1.00
C233   C     0.82715   0.62387   0.16723   0.00000  Uiso   1.00
C234   C     0.83952   0.37613   0.16611   0.00000  Uiso   1.00
C235   C     0.79789   0.47629   0.01990   0.00000  Uiso   1.00
C236   C     0.86877   0.52371   0.31343   0.00000  Uiso   1.00
C237   C     0.79780   0.47632   0.30383   0.00000  Uiso   1.00
C238   C     0.86887   0.52368   0.02950   0.00000  Uiso   1.00
Cl239  Cl    0.98672   0.45359   0.10875   0.00000  Uiso   1.00
Cl240  Cl    0.67995   0.54641   0.22459   0.00000  Uiso   1.00
Cl241  Cl    0.83450   0.37444   0.06785   0.00000  Uiso   1.00
Cl242  Cl    0.83217   0.62556   0.26548   0.00000  Uiso   1.00
Cl243  Cl    0.79047   0.61945   0.07130   0.00000  Uiso   1.00
Cl244  Cl    0.87620   0.38055   0.26204   0.00000  Uiso   1.00
Cl245  Cl    0.75159   0.44440   0.04237   0.00000  Uiso   1.00
Cl246  Cl    0.91508   0.55560   0.29097   0.00000  Uiso   1.00
N247   N     0.75960   0.45149   0.27483   0.00000  Uiso   1.00
O248   O     0.71230   0.46249   0.26979   0.00000  Uiso   1.00
O249   O     0.76796   0.41328   0.26747   0.00000  Uiso   1.00
N250   N     0.90707   0.54851   0.05850   0.00000  Uiso   1.00
O251   O     0.89872   0.58672   0.06588   0.00000  Uiso   1.00
O252   O     0.95438   0.53750   0.06353   0.00000  Uiso   1.00
O253   O     0.16666   0.77322   0.20625   0.00000  Uiso   1.00
O254   O     0.16667   0.89345   0.12709   0.00000  Uiso   1.00
O255   O     0.16666   0.77321   0.12706   0.00000  Uiso   1.00
O256   O     0.16667   0.89346   0.20628   0.00000  Uiso   1.00
C257   C     0.16998   0.75422   0.16660   0.00000  Uiso   1.00
C258   C     0.16336   0.91245   0.16674   0.00000  Uiso   1.00
O259   O     0.09161   0.83334   0.19712   0.00000  Uiso   1.00
O260   O     0.24172   0.83333   0.13621   0.00000  Uiso   1.00
O261   O     0.09161   0.83333   0.11793   0.00000  Uiso   1.00
O262   O     0.24172   0.83334   0.21540   0.00000  Uiso   1.00
C263   C     0.06810   0.83225   0.15501   0.00000  Uiso   1.00
C264   C     0.26523   0.83442   0.17833   0.00000  Uiso   1.00
Cu265  Cu    0.16667   0.83334   0.21355   0.00000  Uiso   1.00
Cu266  Cu    0.16667   0.83333   0.11978   0.00000  Uiso   1.00
N267   N     0.16668   0.83334   0.28403   0.00000  Uiso   1.00
N268   N     0.16665   0.83332   0.04931   0.00000  Uiso   1.00
C269   C     0.01334   0.82517   0.15052   0.00000  Uiso   1.00
C270   C     0.32000   0.84150   0.18281   0.00000  Uiso   1.00
C271   C     0.16263   0.68649   0.12346   0.00000  Uiso   1.00
C272   C     0.17070   0.98017   0.20987   0.00000  Uiso   1.00
C273   C     0.15253   0.97779   0.12432   0.00000  Uiso   1.00
C274   C     0.18081   0.68887   0.20901   0.00000  Uiso   1.00
C275   C     0.16048   0.95720   0.16723   0.00000  Uiso   1.00
C276   C     0.17285   0.70947   0.16611   0.00000  Uiso   1.00
C277   C     0.13123   0.80963   0.01990   0.00000  Uiso   1.00
C278   C     0.20211   0.85704   0.31343   0.00000  Uiso   1.00
C279   C     0.13114   0.80965   0.30383   0.00000  Uiso   1.00
C280   C     0.20220   0.85701   0.02950   0.00000  Uiso   1.00
Cl281  Cl    0.32005   0.78693   0.10875   0.00000  Uiso   1.00
Cl282  Cl    0.01328   0.87974   0.22459   0.00000  Uiso   1.00
Cl283  Cl    0.16783   0.70778   0.06785   0.00000  Uiso   1.00
Cl284  Cl    0.16550   0.95889   0.26548   0.00000  Uiso   1.00
Cl285  Cl    0.12380   0.95278   0.07130   0.00000  Uiso   1.00
Cl286  Cl    0.20953   0.71389   0.26204   0.00000  Uiso   1.00
Cl287  Cl    0.08492   0.77774   0.04237   0.00000  Uiso   1.00
Cl288  Cl    0.24841   0.88893   0.29097   0.00000  Uiso   1.00
N289   N     0.09293   0.78482   0.27483   0.00000  Uiso   1.00
O290   O     0.04563   0.79583   0.26979   0.00000  Uiso   1.00
O291   O     0.10129   0.74661   0.26747   0.00000  Uiso   1.00
N292   N     0.24041   0.88184   0.05850   0.00000  Uiso   1.00
O293   O     0.23205   0.92005   0.06588   0.00000  Uiso   1.00
O294   O     0.28771   0.87084   0.06353   0.00000  Uiso   1.00
O295   O     0.50000   0.77322   0.20625   0.00000  Uiso   1.00
O296   O     0.50000   0.89345   0.12709   0.00000  Uiso   1.00
O297   O     0.50000   0.77321   0.12706   0.00000  Uiso   1.00
O298   O     0.50000   0.89346   0.20628   0.00000  Uiso   1.00
C299   C     0.50331   0.75422   0.16660   0.00000  Uiso   1.00
C300   C     0.49669   0.91245   0.16674   0.00000  Uiso   1.00
O301   O     0.42495   0.83334   0.19712   0.00000  Uiso   1.00
O302   O     0.57505   0.83333   0.13621   0.00000  Uiso   1.00
O303   O     0.42494   0.83333   0.11793   0.00000  Uiso   1.00
O304   O     0.57506   0.83334   0.21540   0.00000  Uiso   1.00
C305   C     0.40143   0.83225   0.15501   0.00000  Uiso   1.00
C306   C     0.59857   0.83442   0.17833   0.00000  Uiso   1.00
Cu307  Cu    0.50000   0.83334   0.21355   0.00000  Uiso   1.00
Cu308  Cu    0.50000   0.83333   0.11978   0.00000  Uiso   1.00
N309   N     0.50001   0.83334   0.28403   0.00000  Uiso   1.00
N310   N     0.49999   0.83332   0.04931   0.00000  Uiso   1.00
C311   C     0.34667   0.82517   0.15052   0.00000  Uiso   1.00
C312   C     0.65333   0.84150   0.18281   0.00000  Uiso   1.00
C313   C     0.49597   0.68649   0.12346   0.00000  Uiso   1.00
C314   C     0.50403   0.98017   0.20987   0.00000  Uiso   1.00
C315   C     0.48586   0.97779   0.12432   0.00000  Uiso   1.00
C316   C     0.51414   0.68887   0.20901   0.00000  Uiso   1.00
C317   C     0.49382   0.95720   0.16723   0.00000  Uiso   1.00
C318   C     0.50619   0.70947   0.16611   0.00000  Uiso   1.00
C319   C     0.46456   0.80963   0.01990   0.00000  Uiso   1.00
C320   C     0.53544   0.85704   0.31343   0.00000  Uiso   1.00
C321   C     0.46447   0.80965   0.30383   0.00000  Uiso   1.00
C322   C     0.53553   0.85701   0.02950   0.00000  Uiso   1.00
Cl323  Cl    0.65338   0.78693   0.10875   0.00000  Uiso   1.00
Cl324  Cl    0.34662   0.87974   0.22459   0.00000  Uiso   1.00
Cl325  Cl    0.50117   0.70778   0.06785   0.00000  Uiso   1.00
Cl326  Cl    0.49883   0.95889   0.26548   0.00000  Uiso   1.00
Cl327  Cl    0.45714   0.95278   0.07130   0.00000  Uiso   1.00
Cl328  Cl    0.54287   0.71389   0.26204   0.00000  Uiso   1.00
Cl329  Cl    0.41826   0.77774   0.04237   0.00000  Uiso   1.00
Cl330  Cl    0.58174   0.88893   0.29097   0.00000  Uiso   1.00
N331   N     0.42627   0.78482   0.27483   0.00000  Uiso   1.00
O332   O     0.37896   0.79583   0.26979   0.00000  Uiso   1.00
O333   O     0.43462   0.74661   0.26747   0.00000  Uiso   1.00
N334   N     0.57374   0.88184   0.05850   0.00000  Uiso   1.00
O335   O     0.56538   0.92005   0.06588   0.00000  Uiso   1.00
O336   O     0.62104   0.87084   0.06353   0.00000  Uiso   1.00
O337   O     0.83333   0.77322   0.20625   0.00000  Uiso   1.00
O338   O     0.83334   0.89345   0.12709   0.00000  Uiso   1.00
O339   O     0.83333   0.77321   0.12706   0.00000  Uiso   1.00
O340   O     0.83334   0.89346   0.20628   0.00000  Uiso   1.00
C341   C     0.83664   0.75422   0.16660   0.00000  Uiso   1.00
C342   C     0.83002   0.91245   0.16674   0.00000  Uiso   1.00
O343   O     0.75828   0.83334   0.19712   0.00000  Uiso   1.00
O344   O     0.90839   0.83333   0.13621   0.00000  Uiso   1.00
O345   O     0.75828   0.83333   0.11793   0.00000  Uiso   1.00
O346   O     0.90839   0.83334   0.21540   0.00000  Uiso   1.00
C347   C     0.73477   0.83225   0.15501   0.00000  Uiso   1.00
C348   C     0.93190   0.83442   0.17833   0.00000  Uiso   1.00
Cu349  Cu    0.83333   0.83334   0.21355   0.00000  Uiso   1.00
Cu350  Cu    0.83333   0.83333   0.11978   0.00000  Uiso   1.00
N351   N     0.83335   0.83334   0.28403   0.00000  Uiso   1.00
N352   N     0.83332   0.83332   0.04931   0.00000  Uiso   1.00
C353   C     0.68000   0.82517   0.15052   0.00000  Uiso   1.00
C354   C     0.98666   0.84150   0.18281   0.00000  Uiso   1.00
C355   C     0.82930   0.68649   0.12346   0.00000  Uiso   1.00
C356   C     0.83737   0.98017   0.20987   0.00000  Uiso   1.00
C357   C     0.81920   0.97779   0.12432   0.00000  Uiso   1.00
C358   C     0.84747   0.68887   0.20901   0.00000  Uiso   1.00
C359   C     0.82715   0.95720   0.16723   0.00000  Uiso   1.00
C360   C     0.83952   0.70947   0.16611   0.00000  Uiso   1.00
C361   C     0.79789   0.80963   0.01990   0.00000  Uiso   1.00
C362   C     0.86877   0.85704   0.31343   0.00000  Uiso   1.00
C363   C     0.79780   0.80965   0.30383   0.00000  Uiso   1.00
C364   C     0.86887   0.85701   0.02950   0.00000  Uiso   1.00
Cl365  Cl    0.98672   0.78693   0.10875   0.00000  Uiso   1.00
Cl366  Cl    0.67995   0.87974   0.22459   0.00000  Uiso   1.00
Cl367  Cl    0.83450   0.70778   0.06785   0.00000  Uiso   1.00
Cl368  Cl    0.83217   0.95889   0.26548   0.00000  Uiso   1.00
Cl369  Cl    0.79047   0.95278   0.07130   0.00000  Uiso   1.00
Cl370  Cl    0.87620   0.71389   0.26204   0.00000  Uiso   1.00
Cl371  Cl    0.75159   0.77774   0.04237   0.00000  Uiso   1.00
Cl372  Cl    0.91508   0.88893   0.29097   0.00000  Uiso   1.00
N373   N     0.75960   0.78482   0.27483   0.00000  Uiso   1.00
O374   O     0.71230   0.79583   0.26979   0.00000  Uiso   1.00
O375   O     0.76796   0.74661   0.26747   0.00000  Uiso   1.00
N376   N     0.90707   0.88184   0.05850   0.00000  Uiso   1.00
O377   O     0.89872   0.92005   0.06588   0.00000  Uiso   1.00
O378   O     0.95438   0.87084   0.06353   0.00000  Uiso   1.00
O379   O     0.16666   0.10655   0.53958   0.00000  Uiso   1.00
O380   O     0.16667   0.22678   0.46042   0.00000  Uiso   1.00
O381   O     0.16666   0.10654   0.46039   0.00000  Uiso   1.00
O382   O     0.16667   0.22679   0.53961   0.00000  Uiso   1.00
C383   C     0.16998   0.08755   0.49993   0.00000  Uiso   1.00
C384   C     0.16336   0.24578   0.50007   0.00000  Uiso   1.00
O385   O     0.09161   0.16667   0.53046   0.00000  Uiso   1.00
O386   O     0.24172   0.16666   0.46954   0.00000  Uiso   1.00
O387   O     0.09161   0.16666   0.45127   0.00000  Uiso   1.00
O388   O     0.24172   0.16667   0.54873   0.00000  Uiso   1.00
C389   C     0.06810   0.16558   0.48834   0.00000  Uiso   1.00
C390   C     0.26523   0.16775   0.51166   0.00000  Uiso   1.00
Cu391  Cu    0.16667   0.16667   0.54689   0.00000  Uiso   1.00
Cu392  Cu    0.16667   0.16666   0.45311   0.00000  Uiso   1.00
N393   N     0.16668   0.16668   0.61736   0.00000  Uiso   1.00
N394   N     0.16665   0.16666   0.38264   0.00000  Uiso   1.00
C395   C     0.01334   0.15850   0.48385   0.00000  Uiso   1.00
C396   C     0.32000   0.17483   0.51615   0.00000  Uiso   1.00
C397   C     0.16263   0.01983   0.45679   0.00000  Uiso   1.00
C398   C     0.17070   0.31351   0.54321   0.00000  Uiso   1.00
C399   C     0.15253   0.31113   0.45765   0.00000  Uiso   1.00
C400   C     0.18081   0.02221   0.54235   0.00000  Uiso   1.00
C401   C     0.16048   0.29053   0.50056   0.00000  Uiso   1.00
C402   C     0.17285   0.04280   0.49944   0.00000  Uiso   1.00
C403   C     0.13123   0.14296   0.35324   0.00000  Uiso   1.00
C404   C     0.20211   0.19037   0.64676   0.00000  Uiso   1.00
C405   C     0.13114   0.14299   0.63716   0.00000  Uiso   1.00
C406   C     0.20220   0.19035   0.36284   0.00000  Uiso   1.00
Cl407  Cl    0.32005   0.12026   0.44208   0.00000  Uiso   1.00
Cl408  Cl    0.01328   0.21307   0.55792   0.00000  Uiso   1.00
Cl409  Cl    0.16783   0.04111   0.40119   0.00000  Uiso   1.00
Cl410  Cl    0.16550   0.29222   0.59881   0.00000  Uiso   1.00
Cl411  Cl    0.12380   0.28611   0.40463   0.00000  Uiso   1.00
Cl412  Cl    0.20953   0.04722   0.59537   0.00000  Uiso   1.00
Cl413  Cl    0.08492   0.11107   0.37570   0.00000  Uiso   1.00
Cl414  Cl    0.24841   0.22226   0.62430   0.00000  Uiso   1.00
N415   N     0.09293   0.11815   0.60816   0.00000  Uiso   1.00
O416   O     0.04563   0.12916   0.60312   0.00000  Uiso   1.00
O417   O     0.10129   0.07994   0.60080   0.00000  Uiso   1.00
N418   N     0.24041   0.21517   0.39184   0.00000  Uiso   1.00
O419   O     0.23205   0.25338   0.39921   0.00000  Uiso   1.00
O420   O     0.28771   0.20417   0.39686   0.00000  Uiso   1.00
O421   O     0.50000   0.10655   0.53958   0.00000  Uiso   1.00
O422   O     0.50000   0.22678   0.46042   0.00000  Uiso   1.00
O423   O     0.50000   0.10654   0.46039   0.00000  Uiso   1.00
O424   O     0.50000   0.22679   0.53961   0.00000  Uiso   1.00
C425   C     0.50331   0.08755   0.49993   0.00000  Uiso   1.00
C426   C     0.49669   0.24578   0.50007   0.00000  Uiso   1.00
O427   O     0.42495   0.16667   0.53046   0.00000  Uiso   1.00
O428   O     0.57505   0.16666   0.46954   0.00000  Uiso   1.00
O429   O     0.42494   0.16666   0.45127   0.00000  Uiso   1.00
O430   O     0.57506   0.16667   0.54873   0.00000  Uiso   1.00
C431   C     0.40143   0.16558   0.48834   0.00000  Uiso   1.00
C432   C     0.59857   0.16775   0.51166   0.00000  Uiso   1.00
Cu433  Cu    0.50000   0.16667   0.54689   0.00000  Uiso   1.00
Cu434  Cu    0.50000   0.16666   0.45311   0.00000  Uiso   1.00
N435   N     0.50001   0.16668   0.61736   0.00000  Uiso   1.00
N436   N     0.49999   0.16666   0.38264   0.00000  Uiso   1.00
C437   C     0.34667   0.15850   0.48385   0.00000  Uiso   1.00
C438   C     0.65333   0.17483   0.51615   0.00000  Uiso   1.00
C439   C     0.49597   0.01983   0.45679   0.00000  Uiso   1.00
C440   C     0.50403   0.31351   0.54321   0.00000  Uiso   1.00
C441   C     0.48586   0.31113   0.45765   0.00000  Uiso   1.00
C442   C     0.51414   0.02221   0.54235   0.00000  Uiso   1.00
C443   C     0.49382   0.29053   0.50056   0.00000  Uiso   1.00
C444   C     0.50619   0.04280   0.49944   0.00000  Uiso   1.00
C445   C     0.46456   0.14296   0.35324   0.00000  Uiso   1.00
C446   C     0.53544   0.19037   0.64676   0.00000  Uiso   1.00
C447   C     0.46447   0.14299   0.63716   0.00000  Uiso   1.00
C448   C     0.53553   0.19035   0.36284   0.00000  Uiso   1.00
Cl449  Cl    0.65338   0.12026   0.44208   0.00000  Uiso   1.00
Cl450  Cl    0.34662   0.21307   0.55792   0.00000  Uiso   1.00
Cl451  Cl    0.50117   0.04111   0.40119   0.00000  Uiso   1.00
Cl452  Cl    0.49883   0.29222   0.59881   0.00000  Uiso   1.00
Cl453  Cl    0.45714   0.28611   0.40463   0.00000  Uiso   1.00
Cl454  Cl    0.54287   0.04722   0.59537   0.00000  Uiso   1.00
Cl455  Cl    0.41826   0.11107   0.37570   0.00000  Uiso   1.00
Cl456  Cl    0.58174   0.22226   0.62430   0.00000  Uiso   1.00
N457   N     0.42627   0.11815   0.60816   0.00000  Uiso   1.00
O458   O     0.37896   0.12916   0.60312   0.00000  Uiso   1.00
O459   O     0.43462   0.07994   0.60080   0.00000  Uiso   1.00
N460   N     0.57374   0.21517   0.39184   0.00000  Uiso   1.00
O461   O     0.56538   0.25338   0.39921   0.00000  Uiso   1.00
O462   O     0.62104   0.20417   0.39686   0.00000  Uiso   1.00
O463   O     0.83333   0.10655   0.53958   0.00000  Uiso   1.00
O464   O     0.83334   0.22678   0.46042   0.00000  Uiso   1.00
O465   O     0.83333   0.10654   0.46039   0.00000  Uiso   1.00
O466   O     0.83334   0.22679   0.53961   0.00000  Uiso   1.00
C467   C     0.83664   0.08755   0.49993   0.00000  Uiso   1.00
C468   C     0.83002   0.24578   0.50007   0.00000  Uiso   1.00
O469   O     0.75828   0.16667   0.53046   0.00000  Uiso   1.00
O470   O     0.90839   0.16666   0.46954   0.00000  Uiso   1.00
O471   O     0.75828   0.16666   0.45127   0.00000  Uiso   1.00
O472   O     0.90839   0.16667   0.54873   0.00000  Uiso   1.00
C473   C     0.73477   0.16558   0.48834   0.00000  Uiso   1.00
C474   C     0.93190   0.16775   0.51166   0.00000  Uiso   1.00
Cu475  Cu    0.83333   0.16667   0.54689   0.00000  Uiso   1.00
Cu476  Cu    0.83333   0.16666   0.45311   0.00000  Uiso   1.00
N477   N     0.83335   0.16668   0.61736   0.00000  Uiso   1.00
N478   N     0.83332   0.16666   0.38264   0.00000  Uiso   1.00
C479   C     0.68000   0.15850   0.48385   0.00000  Uiso   1.00
C480   C     0.98666   0.17483   0.51615   0.00000  Uiso   1.00
C481   C     0.82930   0.01983   0.45679   0.00000  Uiso   1.00
C482   C     0.83737   0.31351   0.54321   0.00000  Uiso   1.00
C483   C     0.81920   0.31113   0.45765   0.00000  Uiso   1.00
C484   C     0.84747   0.02221   0.54235   0.00000  Uiso   1.00
C485   C     0.82715   0.29053   0.50056   0.00000  Uiso   1.00
C486   C     0.83952   0.04280   0.49944   0.00000  Uiso   1.00
C487   C     0.79789   0.14296   0.35324   0.00000  Uiso   1.00
C488   C     0.86877   0.19037   0.64676   0.00000  Uiso   1.00
C489   C     0.79780   0.14299   0.63716   0.00000  Uiso   1.00
C490   C     0.86887   0.19035   0.36284   0.00000  Uiso   1.00
Cl491  Cl    0.98672   0.12026   0.44208   0.00000  Uiso   1.00
Cl492  Cl    0.67995   0.21307   0.55792   0.00000  Uiso   1.00
Cl493  Cl    0.83450   0.04111   0.40119   0.00000  Uiso   1.00
Cl494  Cl    0.83217   0.29222   0.59881   0.00000  Uiso   1.00
Cl495  Cl    0.79047   0.28611   0.40463   0.00000  Uiso   1.00
Cl496  Cl    0.87620   0.04722   0.59537   0.00000  Uiso   1.00
Cl497  Cl    0.75159   0.11107   0.37570   0.00000  Uiso   1.00
Cl498  Cl    0.91508   0.22226   0.62430   0.00000  Uiso   1.00
N499   N     0.75960   0.11815   0.60816   0.00000  Uiso   1.00
O500   O     0.71230   0.12916   0.60312   0.00000  Uiso   1.00
O501   O     0.76796   0.07994   0.60080   0.00000  Uiso   1.00
N502   N     0.90707   0.21517   0.39184   0.00000  Uiso   1.00
O503   O     0.89872   0.25338   0.39921   0.00000  Uiso   1.00
O504   O     0.95438   0.20417   0.39686   0.00000  Uiso   1.00
O505   O     0.16666   0.43989   0.53958   0.00000  Uiso   1.00
O506   O     0.16667   0.56011   0.46042   0.00000  Uiso   1.00
O507   O     0.16666   0.43988   0.46039   0.00000  Uiso   1.00
O508   O     0.16667   0.56012   0.53961   0.00000  Uiso   1.00
C509   C     0.16998   0.42089   0.49993   0.00000  Uiso   1.00
C510   C     0.16336   0.57911   0.50007   0.00000  Uiso   1.00
O511   O     0.09161   0.50000   0.53046   0.00000  Uiso   1.00
O512   O     0.24172   0.50000   0.46954   0.00000  Uiso   1.00
O513   O     0.09161   0.49999   0.45127   0.00000  Uiso   1.00
O514   O     0.24172   0.50001   0.54873   0.00000  Uiso   1.00
C515   C     0.06810   0.49892   0.48834   0.00000  Uiso   1.00
C516   C     0.26523   0.50109   0.51166   0.00000  Uiso   1.00
Cu517  Cu    0.16667   0.50001   0.54689   0.00000  Uiso   1.00
Cu518  Cu    0.16667   0.49999   0.45311   0.00000  Uiso   1.00
N519   N     0.16668   0.50001   0.61736   0.00000  Uiso   1.00
N520   N     0.16665   0.49999   0.38264   0.00000  Uiso   1.00
C521   C     0.01334   0.49183   0.48385   0.00000  Uiso   1.00
C522   C     0.32000   0.50817   0.51615   0.00000  Uiso   1.00
C523   C     0.16263   0.35316   0.45679   0.00000  Uiso   1.00
C524   C     0.17070   0.64684   0.54321   0.00000  Uiso   1.00
C525   C     0.15253   0.64446   0.45765   0.00000  Uiso   1.00
C526   C     0.18081   0.35554   0.54235   0.00000  Uiso   1.00
C527   C     0.16048   0.62387   0.50056   0.00000  Uiso   1.00
C528   C     0.17285   0.37613   0.49944   0.00000  Uiso   1.00
C529   C     0.13123   0.47629   0.35324   0.00000  Uiso   1.00
C530   C     0.20211   0.52371   0.64676   0.00000  Uiso   1.00
C531   C     0.13114   0.47632   0.63716   0.00000  Uiso   1.00
C532   C     0.20220   0.52368   0.36284   0.00000  Uiso   1.00
Cl533  Cl    0.32005   0.45359   0.44208   0.00000  Uiso   1.00
Cl534  Cl    0.01328   0.54641   0.55792   0.00000  Uiso   1.00
Cl535  Cl    0.16783   0.37444   0.40119   0.00000  Uiso   1.00
Cl536  Cl    0.16550   0.62556   0.59881   0.00000  Uiso   1.00
Cl537  Cl    0.12380   0.61945   0.40463   0.00000  Uiso   1.00
Cl538  Cl    0.20953   0.38055   0.59537   0.00000  Uiso   1.00
Cl539  Cl    0.08492   0.44440   0.37570   0.00000  Uiso   1.00
Cl540  Cl    0.24841   0.55560   0.62430   0.00000  Uiso   1.00
N541   N     0.09293   0.45149   0.60816   0.00000  Uiso   1.00
O542   O     0.04563   0.46249   0.60312   0.00000  Uiso   1.00
O543   O     0.10129   0.41328   0.60080   0.00000  Uiso   1.00
N544   N     0.24041   0.54851   0.39184   0.00000  Uiso   1.00
O545   O     0.23205   0.58672   0.39921   0.00000  Uiso   1.00
O546   O     0.28771   0.53750   0.39686   0.00000  Uiso   1.00
O547   O     0.50000   0.43989   0.53958   0.00000  Uiso   1.00
O548   O     0.50000   0.56011   0.46042   0.00000  Uiso   1.00
O549   O     0.50000   0.43988   0.46039   0.00000  Uiso   1.00
O550   O     0.50000   0.56012   0.53961   0.00000  Uiso   1.00
C551   C     0.50331   0.42089   0.49993   0.00000  Uiso   1.00
C552   C     0.49669   0.57911   0.50007   0.00000  Uiso   1.00
O553   O     0.42495   0.50000   0.53046   0.00000  Uiso   1.00
O554   O     0.57505   0.50000   0.46954   0.00000  Uiso   1.00
O555   O     0.42494   0.49999   0.45127   0.00000  Uiso   1.00
O556   O     0.57506   0.50001   0.54873   0.00000  Uiso   1.00
C557   C     0.40143   0.49892   0.48834   0.00000  Uiso   1.00
C558   C     0.59857   0.50109   0.51166   0.00000  Uiso   1.00
Cu559  Cu    0.50000   0.50001   0.54689   0.00000  Uiso   1.00
Cu560  Cu    0.50000   0.49999   0.45311   0.00000  Uiso   1.00
N561   N     0.50001   0.50001   0.61736   0.00000  Uiso   1.00
N562   N     0.49999   0.49999   0.38264   0.00000  Uiso   1.00
C563   C     0.34667   0.49183   0.48385   0.00000  Uiso   1.00
C564   C     0.65333   0.50817   0.51615   0.00000  Uiso   1.00
C565   C     0.49597   0.35316   0.45679   0.00000  Uiso   1.00
C566   C     0.50403   0.64684   0.54321   0.00000  Uiso   1.00
C567   C     0.48586   0.64446   0.45765   0.00000  Uiso   1.00
C568   C     0.51414   0.35554   0.54235   0.00000  Uiso   1.00
C569   C     0.49382   0.62387   0.50056   0.00000  Uiso   1.00
C570   C     0.50619   0.37613   0.49944   0.00000  Uiso   1.00
C571   C     0.46456   0.47629   0.35324   0.00000  Uiso   1.00
C572   C     0.53544   0.52371   0.64676   0.00000  Uiso   1.00
C573   C     0.46447   0.47632   0.63716   0.00000  Uiso   1.00
C574   C     0.53553   0.52368   0.36284   0.00000  Uiso   1.00
Cl575  Cl    0.65338   0.45359   0.44208   0.00000  Uiso   1.00
Cl576  Cl    0.34662   0.54641   0.55792   0.00000  Uiso   1.00
Cl577  Cl    0.50117   0.37444   0.40119   0.00000  Uiso   1.00
Cl578  Cl    0.49883   0.62556   0.59881   0.00000  Uiso   1.00
Cl579  Cl    0.45714   0.61945   0.40463   0.00000  Uiso   1.00
Cl580  Cl    0.54287   0.38055   0.59537   0.00000  Uiso   1.00
Cl581  Cl    0.41826   0.44440   0.37570   0.00000  Uiso   1.00
Cl582  Cl    0.58174   0.55560   0.62430   0.00000  Uiso   1.00
N583   N     0.42627   0.45149   0.60816   0.00000  Uiso   1.00
O584   O     0.37896   0.46249   0.60312   0.00000  Uiso   1.00
O585   O     0.43462   0.41328   0.60080   0.00000  Uiso   1.00
N586   N     0.57374   0.54851   0.39184   0.00000  Uiso   1.00
O587   O     0.56538   0.58672   0.39921   0.00000  Uiso   1.00
O588   O     0.62104   0.53750   0.39686   0.00000  Uiso   1.00
O589   O     0.83333   0.43989   0.53958   0.00000  Uiso   1.00
O590   O     0.83334   0.56011   0.46042   0.00000  Uiso   1.00
O591   O     0.83333   0.43988   0.46039   0.00000  Uiso   1.00
O592   O     0.83334   0.56012   0.53961   0.00000  Uiso   1.00
C593   C     0.83664   0.42089   0.49993   0.00000  Uiso   1.00
C594   C     0.83002   0.57911   0.50007   0.00000  Uiso   1.00
O595   O     0.75828   0.50000   0.53046   0.00000  Uiso   1.00
O596   O     0.90839   0.50000   0.46954   0.00000  Uiso   1.00
O597   O     0.75828   0.49999   0.45127   0.00000  Uiso   1.00
O598   O     0.90839   0.50001   0.54873   0.00000  Uiso   1.00
C599   C     0.73477   0.49892   0.48834   0.00000  Uiso   1.00
C600   C     0.93190   0.50109   0.51166   0.00000  Uiso   1.00
Cu601  Cu    0.83333   0.50001   0.54689   0.00000  Uiso   1.00
Cu602  Cu    0.83333   0.49999   0.45311   0.00000  Uiso   1.00
N603   N     0.83335   0.50001   0.61736   0.00000  Uiso   1.00
N604   N     0.83332   0.49999   0.38264   0.00000  Uiso   1.00
C605   C     0.68000   0.49183   0.48385   0.00000  Uiso   1.00
C606   C     0.98666   0.50817   0.51615   0.00000  Uiso   1.00
C607   C     0.82930   0.35316   0.45679   0.00000  Uiso   1.00
C608   C     0.83737   0.64684   0.54321   0.00000  Uiso   1.00
C609   C     0.81920   0.64446   0.45765   0.00000  Uiso   1.00
C610   C     0.84747   0.35554   0.54235   0.00000  Uiso   1.00
C611   C     0.82715   0.62387   0.50056   0.00000  Uiso   1.00
C612   C     0.83952   0.37613   0.49944   0.00000  Uiso   1.00
C613   C     0.79789   0.47629   0.35324   0.00000  Uiso   1.00
C614   C     0.86877   0.52371   0.64676   0.00000  Uiso   1.00
C615   C     0.79780   0.47632   0.63716   0.00000  Uiso   1.00
C616   C     0.86887   0.52368   0.36284   0.00000  Uiso   1.00
Cl617  Cl    0.98672   0.45359   0.44208   0.00000  Uiso   1.00
Cl618  Cl    0.67995   0.54641   0.55792   0.00000  Uiso   1.00
Cl619  Cl    0.83450   0.37444   0.40119   0.00000  Uiso   1.00
Cl620  Cl    0.83217   0.62556   0.59881   0.00000  Uiso   1.00
Cl621  Cl    0.79047   0.61945   0.40463   0.00000  Uiso   1.00
Cl622  Cl    0.87620   0.38055   0.59537   0.00000  Uiso   1.00
Cl623  Cl    0.75159   0.44440   0.37570   0.00000  Uiso   1.00
Cl624  Cl    0.91508   0.55560   0.62430   0.00000  Uiso   1.00
N625   N     0.75960   0.45149   0.60816   0.00000  Uiso   1.00
O626   O     0.71230   0.46249   0.60312   0.00000  Uiso   1.00
O627   O     0.76796   0.41328   0.60080   0.00000  Uiso   1.00
N628   N     0.90707   0.54851   0.39184   0.00000  Uiso   1.00
O629   O     0.89872   0.58672   0.39921   0.00000  Uiso   1.00
O630   O     0.95438   0.53750   0.39686   0.00000  Uiso   1.00
O631   O     0.16666   0.77322   0.53958   0.00000  Uiso   1.00
O632   O     0.16667   0.89345   0.46042   0.00000  Uiso   1.00
O633   O     0.16666   0.77321   0.46039   0.00000  Uiso   1.00
O634   O     0.16667   0.89346   0.53961   0.00000  Uiso   1.00
C635   C     0.16998   0.75422   0.49993   0.00000  Uiso   1.00
C636   C     0.16336   0.91245   0.50007   0.00000  Uiso   1.00
O637   O     0.09161   0.83334   0.53046   0.00000  Uiso   1.00
O638   O     0.24172   0.83333   0.46954   0.00000  Uiso   1.00
O639   O     0.09161   0.83333   0.45127   0.00000  Uiso   1.00
O640   O     0.24172   0.83334   0.54873   0.00000  Uiso   1.00
C641   C     0.06810   0.83225   0.48834   0.00000  Uiso   1.00
C642   C     0.26523   0.83442   0.51166   0.00000  Uiso   1.00
Cu643  Cu    0.16667   0.83334   0.54689   0.00000  Uiso   1.00
Cu644  Cu    0.16667   0.83333   0.45311   0.00000  Uiso   1.00
N645   N     0.16668   0.83334   0.61736   0.00000  Uiso   1.00
N646   N     0.16665   0.83332   0.38264   0.00000  Uiso   1.00
C647   C     0.01334   0.82517   0.48385   0.00000  Uiso   1.00
C648   C     0.32000   0.84150   0.51615   0.00000  Uiso   1.00
C649   C     0.16263   0.68649   0.45679   0.00000  Uiso   1.00
C650   C     0.17070   0.98017   0.54321   0.00000  Uiso   1.00
C651   C     0.15253   0.97779   0.45765   0.00000  Uiso   1.00
C652   C     0.18081   0.68887   0.54235   0.00000  Uiso   1.00
C653   C     0.16048   0.95720   0.50056   0.00000  Uiso   1.00
C654   C     0.17285   0.70947   0.49944   0.00000  Uiso   1.00
C655   C     0.13123   0.80963   0.35324   0.00000  Uiso   1.00
C656   C     0.20211   0.85704   0.64676   0.00000  Uiso   1.00
C657   C     0.13114   0.80965   0.63716   0.00000  Uiso   1.00
C658   C     0.20220   0.85701   0.36284   0.00000  Uiso   1.00
Cl659  Cl    0.32005   0.78693   0.44208   0.00000  Uiso   1.00
Cl660  Cl    0.01328   0.87974   0.55792   0.00000  Uiso   1.00
Cl661  Cl    0.16783   0.70778   0.40119   0.00000  Uiso   1.00
Cl662  Cl    0.16550   0.95889   0.59881   0.00000  Uiso   1.00
Cl663  Cl    0.12380   0.95278   0.40463   0.00000  Uiso   1.00
Cl664  Cl    0.20953   0.71389   0.59537   0.00000  Uiso   1.00
Cl665  Cl    0.08492   0.77774   0.37570   0.00000  Uiso   1.00
Cl666  Cl    0.24841   0.88893   0.62430   0.00000  Uiso   1.00
N667   N     0.09293   0.78482   0.60816   0.00000  Uiso   1.00
O668   O     0.04563   0.79583   0.60312   0.00000  Uiso   1.00
O669   O     0.10129   0.74661   0.60080   0.00000  Uiso   1.00
N670   N     0.24041   0.88184   0.39184   0.00000  Uiso   1.00
O671   O     0.23205   0.92005   0.39921   0.00000  Uiso   1.00
O672   O     0.28771   0.87084   0.39686   0.00000  Uiso   1.00
O673   O     0.50000   0.77322   0.53958   0.00000  Uiso   1.00
O674   O     0.50000   0.89345   0.46042   0.00000  Uiso   1.00
O675   O     0.50000   0.77321   0.46039   0.00000  Uiso   1.00
O676   O     0.50000   0.89346   0.53961   0.00000  Uiso   1.00
C677   C     0.50331   0.75422   0.49993   0.00000  Uiso   1.00
C678   C     0.49669   0.91245   0.50007   0.00000  Uiso   1.00
O679   O     0.42495   0.83334   0.53046   0.00000  Uiso   1.00
O680   O     0.57505   0.83333   0.46954   0.00000  Uiso   1.00
O681   O     0.42494   0.83333   0.45127   0.00000  Uiso   1.00
O682   O     0.57506   0.83334   0.54873   0.00000  Uiso   1.00
C683   C     0.40143   0.83225   0.48834   0.00000  Uiso   1.00
C684   C     0.59857   0.83442   0.51166   0.00000  Uiso   1.00
Cu685  Cu    0.50000   0.83334   0.54689   0.00000  Uiso   1.00
Cu686  Cu    0.50000   0.83333   0.45311   0.00000  Uiso   1.00
N687   N     0.50001   0.83334   0.61736   0.00000  Uiso   1.00
N688   N     0.49999   0.83332   0.38264   0.00000  Uiso   1.00
C689   C     0.34667   0.82517   0.48385   0.00000  Uiso   1.00
C690   C     0.65333   0.84150   0.51615   0.00000  Uiso   1.00
C691   C     0.49597   0.68649   0.45679   0.00000  Uiso   1.00
C692   C     0.50403   0.98017   0.54321   0.00000  Uiso   1.00
C693   C     0.48586   0.97779   0.45765   0.00000  Uiso   1.00
C694   C     0.51414   0.68887   0.54235   0.00000  Uiso   1.00
C695   C     0.49382   0.95720   0.50056   0.00000  Uiso   1.00
C696   C     0.50619   0.70947   0.49944   0.00000  Uiso   1.00
C697   C     0.46456   0.80963   0.35324   0.00000  Uiso   1.00
C698   C     0.53544   0.85704   0.64676   0.00000  Uiso   1.00
C699   C     0.46447   0.80965   0.63716   0.00000  Uiso   1.00
C700   C     0.53553   0.85701   0.36284   0.00000  Uiso   1.00
Cl701  Cl    0.65338   0.78693   0.44208   0.00000  Uiso   1.00
Cl702  Cl    0.34662   0.87974   0.55792   0.00000  Uiso   1.00
Cl703  Cl    0.50117   0.70778   0.40119   0.00000  Uiso   1.00
Cl704  Cl    0.49883   0.95889   0.59881   0.00000  Uiso   1.00
Cl705  Cl    0.45714   0.95278   0.40463   0.00000  Uiso   1.00
Cl706  Cl    0.54287   0.71389   0.59537   0.00000  Uiso   1.00
Cl707  Cl    0.41826   0.77774   0.37570   0.00000  Uiso   1.00
Cl708  Cl    0.58174   0.88893   0.62430   0.00000  Uiso   1.00
N709   N     0.42627   0.78482   0.60816   0.00000  Uiso   1.00
O710   O     0.37896   0.79583   0.60312   0.00000  Uiso   1.00
O711   O     0.43462   0.74661   0.60080   0.00000  Uiso   1.00
N712   N     0.57374   0.88184   0.39184   0.00000  Uiso   1.00
O713   O     0.56538   0.92005   0.39921   0.00000  Uiso   1.00
O714   O     0.62104   0.87084   0.39686   0.00000  Uiso   1.00
O715   O     0.83333   0.77322   0.53958   0.00000  Uiso   1.00
O716   O     0.83334   0.89345   0.46042   0.00000  Uiso   1.00
O717   O     0.83333   0.77321   0.46039   0.00000  Uiso   1.00
O718   O     0.83334   0.89346   0.53961   0.00000  Uiso   1.00
C719   C     0.83664   0.75422   0.49993   0.00000  Uiso   1.00
C720   C     0.83002   0.91245   0.50007   0.00000  Uiso   1.00
O721   O     0.75828   0.83334   0.53046   0.00000  Uiso   1.00
O722   O     0.90839   0.83333   0.46954   0.00000  Uiso   1.00
O723   O     0.75828   0.83333   0.45127   0.00000  Uiso   1.00
O724   O     0.90839   0.83334   0.54873   0.00000  Uiso   1.00
C725   C     0.73477   0.83225   0.48834   0.00000  Uiso   1.00
C726   C     0.93190   0.83442   0.51166   0.00000  Uiso   1.00
Cu727  Cu    0.83333   0.83334   0.54689   0.00000  Uiso   1.00
Cu728  Cu    0.83333   0.83333   0.45311   0.00000  Uiso   1.00
N729   N     0.83335   0.83334   0.61736   0.00000  Uiso   1.00
N730   N     0.83332   0.83332   0.38264   0.00000  Uiso   1.00
C731   C     0.68000   0.82517   0.48385   0.00000  Uiso   1.00
C732   C     0.98666   0.84150   0.51615   0.00000  Uiso   1.00
C733   C     0.82930   0.68649   0.45679   0.00000  Uiso   1.00
C734   C     0.83737   0.98017   0.54321   0.00000  Uiso   1.00
C735   C     0.81920   0.97779   0.45765   0.00000  Uiso   1.00
C736   C     0.84747   0.68887   0.54235   0.00000  Uiso   1.00
C737   C     0.82715   0.95720   0.50056   0.00000  Uiso   1.00
C738   C     0.83952   0.70947   0.49944   0.00000  Uiso   1.00
C739   C     0.79789   0.80963   0.35324   0.00000  Uiso   1.00
C740   C     0.86877   0.85704   0.64676   0.00000  Uiso   1.00
C741   C     0.79780   0.80965   0.63716   0.00000  Uiso   1.00
C742   C     0.86887   0.85701   0.36284   0.00000  Uiso   1.00
Cl743  Cl    0.98672   0.78693   0.44208   0.00000  Uiso   1.00
Cl744  Cl    0.67995   0.87974   0.55792   0.00000  Uiso   1.00
Cl745  Cl    0.83450   0.70778   0.40119   0.00000  Uiso   1.00
Cl746  Cl    0.83217   0.95889   0.59881   0.00000  Uiso   1.00
Cl747  Cl    0.79047   0.95278   0.40463   0.00000  Uiso   1.00
Cl748  Cl    0.87620   0.71389   0.59537   0.00000  Uiso   1.00
Cl749  Cl    0.75159   0.77774   0.37570   0.00000  Uiso   1.00
Cl750  Cl    0.91508   0.88893   0.62430   0.00000  Uiso   1.00
N751   N     0.75960   0.78482   0.60816   0.00000  Uiso   1.00
O752   O     0.71230   0.79583   0.60312   0.00000  Uiso   1.00
O753   O     0.76796   0.74661   0.60080   0.00000  Uiso   1.00
N754   N     0.90707   0.88184   0.39184   0.00000  Uiso   1.00
O755   O     0.89872   0.92005   0.39921   0.00000  Uiso   1.00
O756   O     0.95438   0.87084   0.39686   0.00000  Uiso   1.00
O757   O     0.16666   0.10655   0.87291   0.00000  Uiso   1.00
O758   O     0.16667   0.22678   0.79375   0.00000  Uiso   1.00
O759   O     0.16666   0.10654   0.79372   0.00000  Uiso   1.00
O760   O     0.16667   0.22679   0.87294   0.00000  Uiso   1.00
C761   C     0.16998   0.08755   0.83326   0.00000  Uiso   1.00
C762   C     0.16336   0.24578   0.83340   0.00000  Uiso   1.00
O763   O     0.09161   0.16667   0.86379   0.00000  Uiso   1.00
O764   O     0.24172   0.16666   0.80288   0.00000  Uiso   1.00
O765   O     0.09161   0.16666   0.78460   0.00000  Uiso   1.00
O766   O     0.24172   0.16667   0.88207   0.00000  Uiso   1.00
C767   C     0.06810   0.16558   0.82167   0.00000  Uiso   1.00
C768   C     0.26523   0.16775   0.84499   0.00000  Uiso   1.00
Cu769  Cu    0.16667   0.16667   0.88022   0.00000  Uiso   1.00
Cu770  Cu    0.16667   0.16666   0.78645   0.00000  Uiso   1.00
N771   N     0.16668   0.16668   0.95069   0.00000  Uiso   1.00
N772   N     0.16665   0.16666   0.71597   0.00000  Uiso   1.00
C773   C     0.01334   0.15850   0.81718   0.00000  Uiso   1.00
C774   C     0.32000   0.17483   0.84948   0.00000  Uiso   1.00
C775   C     0.16263   0.01983   0.79013   0.00000  Uiso   1.00
C776   C     0.17070   0.31351   0.87654   0.00000  Uiso   1.00
C777   C     0.15253   0.31113   0.79098   0.00000  Uiso   1.00
C778   C     0.18081   0.02221   0.87568   0.00000  Uiso   1.00
C779   C     0.16048   0.29053   0.83389   0.00000  Uiso   1.00
C780   C     0.17285   0.04280   0.83277   0.00000  Uiso   1.00
C781   C     0.13123   0.14296   0.68657   0.00000  Uiso   1.00
C782   C     0.20211   0.19037   0.98010   0.00000  Uiso   1.00
C783   C     0.13114   0.14299   0.97050   0.00000  Uiso   1.00
C784   C     0.20220   0.19035   0.69617   0.00000  Uiso   1.00
Cl785  Cl    0.32005   0.12026   0.77541   0.00000  Uiso   1.00
Cl786  Cl    0.01328   0.21307   0.89125   0.00000  Uiso   1.00
Cl787  Cl    0.16783   0.04111   0.73452   0.00000  Uiso   1.00
Cl788  Cl    0.16550   0.29222   0.93215   0.00000  Uiso   1.00
Cl789  Cl    0.12380   0.28611   0.73796   0.00000  Uiso   1.00
Cl790  Cl    0.20953   0.04722   0.92870   0.00000  Uiso   1.00
Cl791  Cl    0.08492   0.11107   0.70903   0.00000  Uiso   1.00
Cl792  Cl    0.24841   0.22226   0.95763   0.00000  Uiso   1.00
N793   N     0.09293   0.11815   0.94150   0.00000  Uiso   1.00
O794   O     0.04563   0.12916   0.93646   0.00000  Uiso   1.00
O795   O     0.10129   0.07994   0.93414   0.00000  Uiso   1.00
N796   N     0.24041   0.21517   0.72517   0.00000  Uiso   1.00
O797   O     0.23205   0.25338   0.73254   0.00000  Uiso   1.00
O798   O     0.28771   0.20417   0.73020   0.00000  Uiso   1.00
O799   O     0.50000   0.10655   0.87291   0.00000  Uiso   1.00
O800   O     0.50000   0.22678   0.79375   0.00000  Uiso   1.00
O801   O     0.50000   0.10654   0.79372   0.00000  Uiso   1.00
O802   O     0.50000   0.22679   0.87294   0.00000  Uiso   1.00
C803   C     0.50331   0.08755   0.83326   0.00000  Uiso   1.00
C804   C     0.49669   0.24578   0.83340   0.00000  Uiso   1.00
O805   O     0.42495   0.16667   0.86379   0.00000  Uiso   1.00
O806   O     0.57505   0.16666   0.80288   0.00000  Uiso   1.00
O807   O     0.42494   0.16666   0.78460   0.00000  Uiso   1.00
O808   O     0.57506   0.16667   0.88207   0.00000  Uiso   1.00
C809   C     0.40143   0.16558   0.82167   0.00000  Uiso   1.00
C810   C     0.59857   0.16775   0.84499   0.00000  Uiso   1.00
Cu811  Cu    0.50000   0.16667   0.88022   0.00000  Uiso   1.00
Cu812  Cu    0.50000   0.16666   0.78645   0.00000  Uiso   1.00
N813   N     0.50001   0.16668   0.95069   0.00000  Uiso   1.00
N814   N     0.49999   0.16666   0.71597   0.00000  Uiso   1.00
C815   C     0.34667   0.15850   0.81718   0.00000  Uiso   1.00
C816   C     0.65333   0.17483   0.84948   0.00000  Uiso   1.00
C817   C     0.49597   0.01983   0.79013   0.00000  Uiso   1.00
C818   C     0.50403   0.31351   0.87654   0.00000  Uiso   1.00
C819   C     0.48586   0.31113   0.79098   0.00000  Uiso   1.00
C820   C     0.51414   0.02221   0.87568   0.00000  Uiso   1.00
C821   C     0.49382   0.29053   0.83389   0.00000  Uiso   1.00
C822   C     0.50619   0.04280   0.83277   0.00000  Uiso   1.00
C823   C     0.46456   0.14296   0.68657   0.00000  Uiso   1.00
C824   C     0.53544   0.19037   0.98010   0.00000  Uiso   1.00
C825   C     0.46447   0.14299   0.97050   0.00000  Uiso   1.00
C826   C     0.53553   0.19035   0.69617   0.00000  Uiso   1.00
Cl827  Cl    0.65338   0.12026   0.77541   0.00000  Uiso   1.00
Cl828  Cl    0.34662   0.21307   0.89125   0.00000  Uiso   1.00
Cl829  Cl    0.50117   0.04111   0.73452   0.00000  Uiso   1.00
Cl830  Cl    0.49883   0.29222   0.93215   0.00000  Uiso   1.00
Cl831  Cl    0.45714   0.28611   0.73796   0.00000  Uiso   1.00
Cl832  Cl    0.54287   0.04722   0.92870   0.00000  Uiso   1.00
Cl833  Cl    0.41826   0.11107   0.70903   0.00000  Uiso   1.00
Cl834  Cl    0.58174   0.22226   0.95763   0.00000  Uiso   1.00
N835   N     0.42627   0.11815   0.94150   0.00000  Uiso   1.00
O836   O     0.37896   0.12916   0.93646   0.00000  Uiso   1.00
O837   O     0.43462   0.07994   0.93414   0.00000  Uiso   1.00
N838   N     0.57374   0.21517   0.72517   0.00000  Uiso   1.00
O839   O     0.56538   0.25338   0.73254   0.00000  Uiso   1.00
O840   O     0.62104   0.20417   0.73020   0.00000  Uiso   1.00
O841   O     0.83333   0.10655   0.87291   0.00000  Uiso   1.00
O842   O     0.83334   0.22678   0.79375   0.00000  Uiso   1.00
O843   O     0.83333   0.10654   0.79372   0.00000  Uiso   1.00
O844   O     0.83334   0.22679   0.87294   0.00000  Uiso   1.00
C845   C     0.83664   0.08755   0.83326   0.00000  Uiso   1.00
C846   C     0.83002   0.24578   0.83340   0.00000  Uiso   1.00
O847   O     0.75828   0.16667   0.86379   0.00000  Uiso   1.00
O848   O     0.90839   0.16666   0.80288   0.00000  Uiso   1.00
O849   O     0.75828   0.16666   0.78460   0.00000  Uiso   1.00
O850   O     0.90839   0.16667   0.88207   0.00000  Uiso   1.00
C851   C     0.73477   0.16558   0.82167   0.00000  Uiso   1.00
C852   C     0.93190   0.16775   0.84499   0.00000  Uiso   1.00
Cu853  Cu    0.83333   0.16667   0.88022   0.00000  Uiso   1.00
Cu854  Cu    0.83333   0.16666   0.78645   0.00000  Uiso   1.00
N855   N     0.83335   0.16668   0.95069   0.00000  Uiso   1.00
N856   N     0.83332   0.16666   0.71597   0.00000  Uiso   1.00
C857   C     0.68000   0.15850   0.81718   0.00000  Uiso   1.00
C858   C     0.98666   0.17483   0.84948   0.00000  Uiso   1.00
C859   C     0.82930   0.01983   0.79013   0.00000  Uiso   1.00
C860   C     0.83737   0.31351   0.87654   0.00000  Uiso   1.00
C861   C     0.81920   0.31113   0.79098   0.00000  Uiso   1.00
C862   C     0.84747   0.02221   0.87568   0.00000  Uiso   1.00
C863   C     0.82715   0.29053   0.83389   0.00000  Uiso   1.00
C864   C     0.83952   0.04280   0.83277   0.00000  Uiso   1.00
C865   C     0.79789   0.14296   0.68657   0.00000  Uiso   1.00
C866   C     0.86877   0.19037   0.98010   0.00000  Uiso   1.00
C867   C     0.79780   0.14299   0.97050   0.00000  Uiso   1.00
C868   C     0.86887   0.19035   0.69617   0.00000  Uiso   1.00
Cl869  Cl    0.98672   0.12026   0.77541   0.00000  Uiso   1.00
Cl870  Cl    0.67995   0.21307   0.89125   0.00000  Uiso   1.00
Cl871  Cl    0.83450   0.04111   0.73452   0.00000  Uiso   1.00
Cl872  Cl    0.83217   0.29222   0.93215   0.00000  Uiso   1.00
Cl873  Cl    0.79047   0.28611   0.73796   0.00000  Uiso   1.00
Cl874  Cl    0.87620   0.04722   0.92870   0.00000  Uiso   1.00
Cl875  Cl    0.75159   0.11107   0.70903   0.00000  Uiso   1.00
Cl876  Cl    0.91508   0.22226   0.95763   0.00000  Uiso   1.00
N877   N     0.75960   0.11815   0.94150   0.00000  Uiso   1.00
O878   O     0.71230   0.12916   0.93646   0.00000  Uiso   1.00
O879   O     0.76796   0.07994   0.93414   0.00000  Uiso   1.00
N880   N     0.90707   0.21517   0.72517   0.00000  Uiso   1.00
O881   O     0.89872   0.25338   0.73254   0.00000  Uiso   1.00
O882   O     0.95438   0.20417   0.73020   0.00000  Uiso   1.00
O883   O     0.16666   0.43989   0.87291   0.00000  Uiso   1.00
O884   O     0.16667   0.56011   0.79375   0.00000  Uiso   1.00
O885   O     0.16666   0.43988   0.79372   0.00000  Uiso   1.00
O886   O     0.16667   0.56012   0.87294   0.00000  Uiso   1.00
C887   C     0.16998   0.42089   0.83326   0.00000  Uiso   1.00
C888   C     0.16336   0.57911   0.83340   0.00000  Uiso   1.00
O889   O     0.09161   0.50000   0.86379   0.00000  Uiso   1.00
O890   O     0.24172   0.50000   0.80288   0.00000  Uiso   1.00
O891   O     0.09161   0.49999   0.78460   0.00000  Uiso   1.00
O892   O     0.24172   0.50001   0.88207   0.00000  Uiso   1.00
C893   C     0.06810   0.49892   0.82167   0.00000  Uiso   1.00
C894   C     0.26523   0.50109   0.84499   0.00000  Uiso   1.00
Cu895  Cu    0.16667   0.50001   0.88022   0.00000  Uiso   1.00
Cu896  Cu    0.16667   0.49999   0.78645   0.00000  Uiso   1.00
N897   N     0.16668   0.50001   0.95069   0.00000  Uiso   1.00
N898   N     0.16665   0.49999   0.71597   0.00000  Uiso   1.00
C899   C     0.01334   0.49183   0.81718   0.00000  Uiso   1.00
C900   C     0.32000   0.50817   0.84948   0.00000  Uiso   1.00
C901   C     0.16263   0.35316   0.79013   0.00000  Uiso   1.00
C902   C     0.17070   0.64684   0.87654   0.00000  Uiso   1.00
C903   C     0.15253   0.64446   0.79098   0.00000  Uiso   1.00
C904   C     0.18081   0.35554   0.87568   0.00000  Uiso   1.00
C905   C     0.16048   0.62387   0.83389   0.00000  Uiso   1.00
C906   C     0.17285   0.37613   0.83277   0.00000  Uiso   1.00
C907   C     0.13123   0.47629   0.68657   0.00000  Uiso   1.00
C908   C     0.20211   0.52371   0.98010   0.00000  Uiso   1.00
C909   C     0.13114   0.47632   0.97050   0.00000  Uiso   1.00
C910   C     0.20220   0.52368   0.69617   0.00000  Uiso   1.00
Cl911  Cl    0.32005   0.45359   0.77541   0.00000  Uiso   1.00
Cl912  Cl    0.01328   0.54641   0.89125   0.00000  Uiso   1.00
Cl913  Cl    0.16783   0.37444   0.73452   0.00000  Uiso   1.00
Cl914  Cl    0.16550   0.62556   0.93215   0.00000  Uiso   1.00
Cl915  Cl    0.12380   0.61945   0.73796   0.00000  Uiso   1.00
Cl916  Cl    0.20953   0.38055   0.92870   0.00000  Uiso   1.00
Cl917  Cl    0.08492   0.44440   0.70903   0.00000  Uiso   1.00
Cl918  Cl    0.24841   0.55560   0.95763   0.00000  Uiso   1.00
N919   N     0.09293   0.45149   0.94150   0.00000  Uiso   1.00
O920   O     0.04563   0.46249   0.93646   0.00000  Uiso   1.00
O921   O     0.10129   0.41328   0.93414   0.00000  Uiso   1.00
N922   N     0.24041   0.54851   0.72517   0.00000  Uiso   1.00
O923   O     0.23205   0.58672   0.73254   0.00000  Uiso   1.00
O924   O     0.28771   0.53750   0.73020   0.00000  Uiso   1.00
O925   O     0.50000   0.43989   0.87291   0.00000  Uiso   1.00
O926   O     0.50000   0.56011   0.79375   0.00000  Uiso   1.00
O927   O     0.50000   0.43988   0.79372   0.00000  Uiso   1.00
O928   O     0.50000   0.56012   0.87294   0.00000  Uiso   1.00
C929   C     0.50331   0.42089   0.83326   0.00000  Uiso   1.00
C930   C     0.49669   0.57911   0.83340   0.00000  Uiso   1.00
O931   O     0.42495   0.50000   0.86379   0.00000  Uiso   1.00
O932   O     0.57505   0.50000   0.80288   0.00000  Uiso   1.00
O933   O     0.42494   0.49999   0.78460   0.00000  Uiso   1.00
O934   O     0.57506   0.50001   0.88207   0.00000  Uiso   1.00
C935   C     0.40143   0.49892   0.82167   0.00000  Uiso   1.00
C936   C     0.59857   0.50109   0.84499   0.00000  Uiso   1.00
Cu937  Cu    0.50000   0.50001   0.88022   0.00000  Uiso   1.00
Cu938  Cu    0.50000   0.49999   0.78645   0.00000  Uiso   1.00
N939   N     0.50001   0.50001   0.95069   0.00000  Uiso   1.00
N940   N     0.49999   0.49999   0.71597   0.00000  Uiso   1.00
C941   C     0.34667   0.49183   0.81718   0.00000  Uiso   1.00
C942   C     0.65333   0.50817   0.84948   0.00000  Uiso   1.00
C943   C     0.49597   0.35316   0.79013   0.00000  Uiso   1.00
C944   C     0.50403   0.64684   0.87654   0.00000  Uiso   1.00
C945   C     0.48586   0.64446   0.79098   0.00000  Uiso   1.00
C946   C     0.51414   0.35554   0.87568   0.00000  Uiso   1.00
C947   C     0.49382   0.62387   0.83389   0.00000  Uiso   1.00
C948   C     0.50619   0.37613   0.83277   0.00000  Uiso   1.00
C949   C     0.46456   0.47629   0.68657   0.00000  Uiso   1.00
C950   C     0.53544   0.52371   0.98010   0.00000  Uiso   1.00
C951   C     0.46447   0.47632   0.97050   0.00000  Uiso   1.00
C952   C     0.53553   0.52368   0.69617   0.00000  Uiso   1.00
Cl953  Cl    0.65338   0.45359   0.77541   0.00000  Uiso   1.00
Cl954  Cl    0.34662   0.54641   0.89125   0.00000  Uiso   1.00
Cl955  Cl    0.50117   0.37444   0.73452   0.00000  Uiso   1.00
Cl956  Cl    0.49883   0.62556   0.93215   0.00000  Uiso   1.00
Cl957  Cl    0.45714   0.61945   0.73796   0.00000  Uiso   1.00
Cl958  Cl    0.54287   0.38055   0.92870   0.00000  Uiso   1.00
Cl959  Cl    0.41826   0.44440   0.70903   0.00000  Uiso   1.00
Cl960  Cl    0.58174   0.55560   0.95763   0.00000  Uiso   1.00
N961   N     0.42627   0.45149   0.94150   0.00000  Uiso   1.00
O962   O     0.37896   0.46249   0.93646   0.00000  Uiso   1.00
O963   O     0.43462   0.41328   0.93414   0.00000  Uiso   1.00
N964   N     0.57374   0.54851   0.72517   0.00000  Uiso   1.00
O965   O     0.56538   0.58672   0.73254   0.00000  Uiso   1.00
O966   O     0.62104   0.53750   0.73020   0.00000  Uiso   1.00
O967   O     0.83333   0.43989   0.87291   0.00000  Uiso   1.00
O968   O     0.83334   0.56011   0.79375   0.00000  Uiso   1.00
O969   O     0.83333   0.43988   0.79372   0.00000  Uiso   1.00
O970   O     0.83334   0.56012   0.87294   0.00000  Uiso   1.00
C971   C     0.83664   0.42089   0.83326   0.00000  Uiso   1.00
C972   C     0.83002   0.57911   0.83340   0.00000  Uiso   1.00
O973   O     0.75828   0.50000   0.86379   0.00000  Uiso   1.00
O974   O     0.90839   0.50000   0.80288   0.00000  Uiso   1.00
O975   O     0.75828   0.49999   0.78460   0.00000  Uiso   1.00
O976   O     0.90839   0.50001   0.88207   0.00000  Uiso   1.00
C977   C     0.73477   0.49892   0.82167   0.00000  Uiso   1.00
C978   C     0.93190   0.50109   0.84499   0.00000  Uiso   1.00
Cu979  Cu    0.83333   0.50001   0.88022   0.00000  Uiso   1.00
Cu980  Cu    0.83333   0.49999   0.78645   0.00000  Uiso   1.00
N981   N     0.83335   0.50001   0.95069   0.00000  Uiso   1.00
N982   N     0.83332   0.49999   0.71597   0.00000  Uiso   1.00
C983   C     0.68000   0.49183   0.81718   0.00000  Uiso   1.00
C984   C     0.98666   0.50817   0.84948   0.00000  Uiso   1.00
C985   C     0.82930   0.35316   0.79013   0.00000  Uiso   1.00
C986   C     0.83737   0.64684   0.87654   0.00000  Uiso   1.00
C987   C     0.81920   0.64446   0.79098   0.00000  Uiso   1.00
C988   C     0.84747   0.35554   0.87568   0.00000  Uiso   1.00
C989   C     0.82715   0.62387   0.83389   0.00000  Uiso   1.00
C990   C     0.83952   0.37613   0.83277   0.00000  Uiso   1.00
C991   C     0.79789   0.47629   0.68657   0.00000  Uiso   1.00
C992   C     0.86877   0.52371   0.98010   0.00000  Uiso   1.00
C993   C     0.79780   0.47632   0.97050   0.00000  Uiso   1.00
C994   C     0.86887   0.52368   0.69617   0.00000  Uiso   1.00
Cl995  Cl    0.98672   0.45359   0.77541   0.00000  Uiso   1.00
Cl996  Cl    0.67995   0.54641   0.89125   0.00000  Uiso   1.00
Cl997  Cl    0.83450   0.37444   0.73452   0.00000  Uiso   1.00
Cl998  Cl    0.83217   0.62556   0.93215   0.00000  Uiso   1.00
Cl999  Cl    0.79047   0.61945   0.73796   0.00000  Uiso   1.00
Cl1000 Cl    0.87620   0.38055   0.92870   0.00000  Uiso   1.00
Cl1001 Cl    0.75159   0.44440   0.70903   0.00000  Uiso   1.00
Cl1002 Cl    0.91508   0.55560   0.95763   0.00000  Uiso   1.00
N1003  N     0.75960   0.45149   0.94150   0.00000  Uiso   1.00
O1004  O     0.71230   0.46249   0.93646   0.00000  Uiso   1.00
O1005  O     0.76796   0.41328   0.93414   0.00000  Uiso   1.00
N1006  N     0.90707   0.54851   0.72517   0.00000  Uiso   1.00
O1007  O     0.89872   0.58672   0.73254   0.00000  Uiso   1.00
O1008  O     0.95438   0.53750   0.73020   0.00000  Uiso   1.00
O1009  O     0.16666   0.77322   0.87291   0.00000  Uiso   1.00
O1010  O     0.16667   0.89345   0.79375   0.00000  Uiso   1.00
O1011  O     0.16666   0.77321   0.79372   0.00000  Uiso   1.00
O1012  O     0.16667   0.89346   0.87294   0.00000  Uiso   1.00
C1013  C     0.16998   0.75422   0.83326   0.00000  Uiso   1.00
C1014  C     0.16336   0.91245   0.83340   0.00000  Uiso   1.00
O1015  O     0.09161   0.83334   0.86379   0.00000  Uiso   1.00
O1016  O     0.24172   0.83333   0.80288   0.00000  Uiso   1.00
O1017  O     0.09161   0.83333   0.78460   0.00000  Uiso   1.00
O1018  O     0.24172   0.83334   0.88207   0.00000  Uiso   1.00
C1019  C     0.06810   0.83225   0.82167   0.00000  Uiso   1.00
C1020  C     0.26523   0.83442   0.84499   0.00000  Uiso   1.00
Cu1021 Cu    0.16667   0.83334   0.88022   0.00000  Uiso   1.00
Cu1022 Cu    0.16667   0.83333   0.78645   0.00000  Uiso   1.00
N1023  N     0.16668   0.83334   0.95069   0.00000  Uiso   1.00
N1024  N     0.16665   0.83332   0.71597   0.00000  Uiso   1.00
C1025  C     0.01334   0.82517   0.81718   0.00000  Uiso   1.00
C1026  C     0.32000   0.84150   0.84948   0.00000  Uiso   1.00
C1027  C     0.16263   0.68649   0.79013   0.00000  Uiso   1.00
C1028  C     0.17070   0.98017   0.87654   0.00000  Uiso   1.00
C1029  C     0.15253   0.97779   0.79098   0.00000  Uiso   1.00
C1030  C     0.18081   0.68887   0.87568   0.00000  Uiso   1.00
C1031  C     0.16048   0.95720   0.83389   0.00000  Uiso   1.00
C1032  C     0.17285   0.70947   0.83277   0.00000  Uiso   1.00
C1033  C     0.13123   0.80963   0.68657   0.00000  Uiso   1.00
C1034  C     0.20211   0.85704   0.98010   0.00000  Uiso   1.00
C1035  C     0.13114   0.80965   0.97050   0.00000  Uiso   1.00
C1036  C     0.20220   0.85701   0.69617   0.00000  Uiso   1.00
Cl1037 Cl    0.32005   0.78693   0.77541   0.00000  Uiso   1.00
Cl1038 Cl    0.01328   0.87974   0.89125   0.00000  Uiso   1.00
Cl1039 Cl    0.16783   0.70778   0.73452   0.00000  Uiso   1.00
Cl1040 Cl    0.16550   0.95889   0.93215   0.00000  Uiso   1.00
Cl1041 Cl    0.12380   0.95278   0.73796   0.00000  Uiso   1.00
Cl1042 Cl    0.20953   0.71389   0.92870   0.00000  Uiso   1.00
Cl1043 Cl    0.08492   0.77774   0.70903   0.00000  Uiso   1.00
Cl1044 Cl    0.24841   0.88893   0.95763   0.00000  Uiso   1.00
N1045  N     0.09293   0.78482   0.94150   0.00000  Uiso   1.00
O1046  O     0.04563   0.79583   0.93646   0.00000  Uiso   1.00
O1047  O     0.10129   0.74661   0.93414   0.00000  Uiso   1.00
N1048  N     0.24041   0.88184   0.72517   0.00000  Uiso   1.00
O1049  O     0.23205   0.92005   0.73254   0.00000  Uiso   1.00
O1050  O     0.28771   0.87084   0.73020   0.00000  Uiso   1.00
O1051  O     0.50000   0.77322   0.87291   0.00000  Uiso   1.00
O1052  O     0.50000   0.89345   0.79375   0.00000  Uiso   1.00
O1053  O     0.50000   0.77321   0.79372   0.00000  Uiso   1.00
O1054  O     0.50000   0.89346   0.87294   0.00000  Uiso   1.00
C1055  C     0.50331   0.75422   0.83326   0.00000  Uiso   1.00
C1056  C     0.49669   0.91245   0.83340   0.00000  Uiso   1.00
O1057  O     0.42495   0.83334   0.86379   0.00000  Uiso   1.00
O1058  O     0.57505   0.83333   0.80288   0.00000  Uiso   1.00
O1059  O     0.42494   0.83333   0.78460   0.00000  Uiso   1.00
O1060  O     0.57506   0.83334   0.88207   0.00000  Uiso   1.00
C1061  C     0.40143   0.83225   0.82167   0.00000  Uiso   1.00
C1062  C     0.59857   0.83442   0.84499   0.00000  Uiso   1.00
Cu1063 Cu    0.50000   0.83334   0.88022   0.00000  Uiso   1.00
Cu1064 Cu    0.50000   0.83333   0.78645   0.00000  Uiso   1.00
N1065  N     0.50001   0.83334   0.95069   0.00000  Uiso   1.00
N1066  N     0.49999   0.83332   0.71597   0.00000  Uiso   1.00
C1067  C     0.34667   0.82517   0.81718   0.00000  Uiso   1.00
C1068  C     0.65333   0.84150   0.84948   0.00000  Uiso   1.00
C1069  C     0.49597   0.68649   0.79013   0.00000  Uiso   1.00
C1070  C     0.50403   0.98017   0.87654   0.00000  Uiso   1.00
C1071  C     0.48586   0.97779   0.79098   0.00000  Uiso   1.00
C1072  C     0.51414   0.68887   0.87568   0.00000  Uiso   1.00
C1073  C     0.49382   0.95720   0.83389   0.00000  Uiso   1.00
C1074  C     0.50619   0.70947   0.83277   0.00000  Uiso   1.00
C1075  C     0.46456   0.80963   0.68657   0.00000  Uiso   1.00
C1076  C     0.53544   0.85704   0.98010   0.00000  Uiso   1.00
C1077  C     0.46447   0.80965   0.97050   0.00000  Uiso   1.00
C1078  C     0.53553   0.85701   0.69617   0.00000  Uiso   1.00
Cl1079 Cl    0.65338   0.78693   0.77541   0.00000  Uiso   1.00
Cl1080 Cl    0.34662   0.87974   0.89125   0.00000  Uiso   1.00
Cl1081 Cl    0.50117   0.70778   0.73452   0.00000  Uiso   1.00
Cl1082 Cl    0.49883   0.95889   0.93215   0.00000  Uiso   1.00
Cl1083 Cl    0.45714   0.95278   0.73796   0.00000  Uiso   1.00
Cl1084 Cl    0.54287   0.71389   0.92870   0.00000  Uiso   1.00
Cl1085 Cl    0.41826   0.77774   0.70903   0.00000  Uiso   1.00
Cl1086 Cl    0.58174   0.88893   0.95763   0.00000  Uiso   1.00
N1087  N     0.42627   0.78482   0.94150   0.00000  Uiso   1.00
O1088  O     0.37896   0.79583   0.93646   0.00000  Uiso   1.00
O1089  O     0.43462   0.74661   0.93414   0.00000  Uiso   1.00
N1090  N     0.57374   0.88184   0.72517   0.00000  Uiso   1.00
O1091  O     0.56538   0.92005   0.73254   0.00000  Uiso   1.00
O1092  O     0.62104   0.87084   0.73020   0.00000  Uiso   1.00
O1093  O     0.83333   0.77322   0.87291   0.00000  Uiso   1.00
O1094  O     0.83334   0.89345   0.79375   0.00000  Uiso   1.00
O1095  O     0.83333   0.77321   0.79372   0.00000  Uiso   1.00
O1096  O     0.83334   0.89346   0.87294   0.00000  Uiso   1.00
C1097  C     0.83664   0.75422   0.83326   0.00000  Uiso   1.00
C1098  C     0.83002   0.91245   0.83340   0.00000  Uiso   1.00
O1099  O     0.75828   0.83334   0.86379   0.00000  Uiso   1.00
O1100  O     0.90839   0.83333   0.80288   0.00000  Uiso   1.00
O1101  O     0.75828   0.83333   0.78460   0.00000  Uiso   1.00
O1102  O     0.90839   0.83334   0.88207   0.00000  Uiso   1.00
C1103  C     0.73477   0.83225   0.82167   0.00000  Uiso   1.00
C1104  C     0.93190   0.83442   0.84499   0.00000  Uiso   1.00
Cu1105 Cu    0.83333   0.83334   0.88022   0.00000  Uiso   1.00
Cu1106 Cu    0.83333   0.83333   0.78645   0.00000  Uiso   1.00
N1107  N     0.83335   0.83334   0.95069   0.00000  Uiso   1.00
N1108  N     0.83332   0.83332   0.71597   0.00000  Uiso   1.00
C1109  C     0.68000   0.82517   0.81718   0.00000  Uiso   1.00
C1110  C     0.98666   0.84150   0.84948   0.00000  Uiso   1.00
C1111  C     0.82930   0.68649   0.79013   0.00000  Uiso   1.00
C1112  C     0.83737   0.98017   0.87654   0.00000  Uiso   1.00
C1113  C     0.81920   0.97779   0.79098   0.00000  Uiso   1.00
C1114  C     0.84747   0.68887   0.87568   0.00000  Uiso   1.00
C1115  C     0.82715   0.95720   0.83389   0.00000  Uiso   1.00
C1116  C     0.83952   0.70947   0.83277   0.00000  Uiso   1.00
C1117  C     0.79789   0.80963   0.68657   0.00000  Uiso   1.00
C1118  C     0.86877   0.85704   0.98010   0.00000  Uiso   1.00
C1119  C     0.79780   0.80965   0.97050   0.00000  Uiso   1.00
C1120  C     0.86887   0.85701   0.69617   0.00000  Uiso   1.00
Cl1121 Cl    0.98672   0.78693   0.77541   0.00000  Uiso   1.00
Cl1122 Cl    0.67995   0.87974   0.89125   0.00000  Uiso   1.00
Cl1123 Cl    0.83450   0.70778   0.73452   0.00000  Uiso   1.00
Cl1124 Cl    0.83217   0.95889   0.93215   0.00000  Uiso   1.00
Cl1125 Cl    0.79047   0.95278   0.73796   0.00000  Uiso   1.00
Cl1126 Cl    0.87620   0.71389   0.92870   0.00000  Uiso   1.00
Cl1127 Cl    0.75159   0.77774   0.70903   0.00000  Uiso   1.00
Cl1128 Cl    0.91508   0.88893   0.95763   0.00000  Uiso   1.00
N1129  N     0.75960   0.78482   0.94150   0.00000  Uiso   1.00
O1130  O     0.71230   0.79583   0.93646   0.00000  Uiso   1.00
O1131  O     0.76796   0.74661   0.93414   0.00000  Uiso   1.00
N1132  N     0.90707   0.88184   0.72517   0.00000  Uiso   1.00
O1133  O     0.89872   0.92005   0.73254   0.00000  Uiso   1.00
O1134  O     0.95438   0.87084   0.73020   0.00000  Uiso   1.00
loop_
_geom_bond_atom_site_label_1
_geom_bond_atom_site_label_2
_geom_bond_distance
_geom_bond_site_symmetry_2
_ccdc_geom_bond_type
O1     C5      1.304   .     A
O1     Cu13    1.977   .     S
O2     C6      1.304   .     A
O2     Cu14    1.977   .     S
O3     Cu14    1.984   .     S
O3     C5      1.299   .     A
O4     C6      1.299   .     A
O4     Cu13    1.984   .     S
C5     C24     1.472   .     S
C6     C23     1.472   .     S
O7     C11     1.284   .     A
O7     Cu13    1.966   .     S
O8     C12     1.284   .     A
O8     Cu14    1.966   .     S
O9     Cu14    1.964   .     S
O9     C11     1.299   .     A
O10    C12     1.299   .     A
O10    Cu13    1.964   .     S
C11    C17     1.434   .     S
C12    C18     1.434   .     S
Cu13   Cu14    2.694   .     S
Cu13   N15     2.025   .     S
Cu14   N16     2.025   .     S
N15    C27     1.372   .     A
N15    C26     1.374   .     A
N16    C28     1.372   .     A
N16    C25     1.374   .     A
C17    C102    1.351   1_455 S
C17    Cl113   1.774   1_455 S
C18    C59     1.351   .     S
C18    Cl72    1.774   .     S
C19    Cl31    1.773   .     S
C19    C24     1.416   .     A
C19    C273    1.391   1_545 S
C20    C23     1.416   .     A
C20    Cl32    1.773   .     S
C20    C148    1.391   .     S
C21    C23     1.412   .     A
C21    Cl33    1.778   .     S
C21    C145    1.391   .     S
C22    Cl34    1.778   .     S
C22    C24     1.412   .     A
C22    C272    1.391   1_545 S
C25    Cl35    1.758   .     S
C25    C783    1.419   1_554 S
C26    Cl36    1.758   .     S
C26    C406    1.419   .     S
C27    N37     1.430   .     S
C27    C403    1.419   .     S
C28    N40     1.430   .     S
C28    C782    1.419   1_554 S
Cl29   C59     1.774   .     S
Cl30   C102    1.774   1_455 S
N37    O38     1.300   .     A
N37    O39     1.300   .     A
N40    O42     1.300   .     A
N40    O41     1.300   .     A
O43    C47     1.304   .     A
O43    Cu55    1.977   .     S
O44    C48     1.304   .     A
O44    Cu56    1.977   .     S
O45    Cu56    1.984   .     S
O45    C47     1.299   .     A
O46    C48     1.299   .     A
O46    Cu55    1.984   .     S
C47    C66     1.472   .     S
C48    C65     1.472   .     S
O49    C53     1.284   .     A
O49    Cu55    1.966   .     S
O50    C54     1.284   .     A
O50    Cu56    1.966   .     S
O51    Cu56    1.964   .     S
O51    C53     1.299   .     A
O52    C54     1.299   .     A
O52    Cu55    1.964   .     S
C53    C59     1.434   .     S
C54    C60     1.434   .     S
Cu55   Cu56    2.694   .     S
Cu55   N57     2.025   .     S
Cu56   N58     2.025   .     S
N57    C69     1.372   .     A
N57    C68     1.374   .     A
N58    C70     1.372   .     A
N58    C67     1.374   .     A
C60    C101    1.351   .     S
C60    Cl114   1.774   .     S
C61    Cl73    1.773   .     S
C61    C66     1.416   .     A
C61    C315    1.391   1_545 S
C62    C65     1.416   .     A
C62    Cl74    1.773   .     S
C62    C190    1.391   .     S
C63    C65     1.412   .     A
C63    Cl75    1.778   .     S
C63    C187    1.391   .     S
C64    Cl76    1.778   .     S
C64    C66     1.412   .     A
C64    C314    1.391   1_545 S
C67    Cl77    1.758   .     S
C67    C825    1.419   1_554 S
C68    Cl78    1.758   .     S
C68    C448    1.419   .     S
C69    N79     1.430   .     S
C69    C445    1.419   .     S
C70    N82     1.430   .     S
C70    C824    1.419   1_554 S
Cl71   C101    1.774   .     S
N79    O80     1.300   .     A
N79    O81     1.300   .     A
N82    O84     1.300   .     A
N82    O83     1.300   .     A
O85    C89     1.304   .     A
O85    Cu97    1.977   .     S
O86    C90     1.304   .     A
O86    Cu98    1.977   .     S
O87    Cu98    1.984   .     S
O87    C89     1.299   .     A
O88    C90     1.299   .     A
O88    Cu97    1.984   .     S
C89    C108    1.472   .     S
C90    C107    1.472   .     S
O91    C95     1.284   .     A
O91    Cu97    1.966   .     S
O92    C96     1.284   .     A
O92    Cu98    1.966   .     S
O93    Cu98    1.964   .     S
O93    C95     1.299   .     A
O94    C96     1.299   .     A
O94    Cu97    1.964   .     S
C95    C101    1.434   .     S
C96    C102    1.434   .     S
Cu97   Cu98    2.694   .     S
Cu97   N99     2.025   .     S
Cu98   N100    2.025   .     S
N99    C111    1.372   .     A
N99    C110    1.374   .     A
N100   C112    1.372   .     A
N100   C109    1.374   .     A
C102   C17     1.351   1_655 S
C102   Cl30    1.774   1_655 S
C103   Cl115   1.773   .     S
C103   C108    1.416   .     A
C103   C357    1.391   1_545 S
C104   C107    1.416   .     A
C104   Cl116   1.773   .     S
C104   C232    1.391   .     S
C105   C107    1.412   .     A
C105   Cl117   1.778   .     S
C105   C229    1.391   .     S
C106   Cl118   1.778   .     S
C106   C108    1.412   .     A
C106   C356    1.391   1_545 S
C109   Cl119   1.758   .     S
C109   C867    1.419   1_554 S
C110   Cl120   1.758   .     S
C110   C490    1.419   .     S
C111   N121    1.430   .     S
C111   C487    1.419   .     S
C112   N124    1.430   .     S
C112   C866    1.419   1_554 S
Cl113  C17     1.774   1_655 S
N121   O122    1.300   .     A
N121   O123    1.300   .     A
N124   O126    1.300   .     A
N124   O125    1.300   .     A
O127   C131    1.304   .     A
O127   Cu139   1.977   .     S
O128   C132    1.304   .     A
O128   Cu140   1.977   .     S
O129   Cu140   1.984   .     S
O129   C131    1.299   .     A
O130   C132    1.299   .     A
O130   Cu139   1.984   .     S
C131   C150    1.472   .     S
C132   C149    1.472   .     S
O133   C137    1.284   .     A
O133   Cu139   1.966   .     S
O134   C138    1.284   .     A
O134   Cu140   1.966   .     S
O135   Cu140   1.964   .     S
O135   C137    1.299   .     A
O136   C138    1.299   .     A
O136   Cu139   1.964   .     S
C137   C143    1.434   .     S
C138   C144    1.434   .     S
Cu139  Cu140   2.694   .     S
Cu139  N141    2.025   .     S
Cu140  N142    2.025   .     S
N141   C153    1.372   .     A
N141   C152    1.374   .     A
N142   C154    1.372   .     A
N142   C151    1.374   .     A
C143   C228    1.351   1_455 S
C143   Cl239   1.774   1_455 S
C144   C185    1.351   .     S
C144   Cl198   1.774   .     S
C145   Cl157   1.773   .     S
C145   C150    1.416   .     A
C146   C149    1.416   .     A
C146   Cl158   1.773   .     S
C146   C274    1.391   .     S
C147   C149    1.412   .     A
C147   Cl159   1.778   .     S
C147   C271    1.391   .     S
C148   Cl160   1.778   .     S
C148   C150    1.412   .     A
C151   Cl161   1.758   .     S
C151   C909    1.419   1_554 S
C152   Cl162   1.758   .     S
C152   C532    1.419   .     S
C153   N163    1.430   .     S
C153   C529    1.419   .     S
C154   N166    1.430   .     S
C154   C908    1.419   1_554 S
Cl155  C185    1.774   .     S
Cl156  C228    1.774   1_455 S
N163   O164    1.300   .     A
N163   O165    1.300   .     A
N166   O168    1.300   .     A
N166   O167    1.300   .     A
O169   C173    1.304   .     A
O169   Cu181   1.977   .     S
O170   C174    1.304   .     A
O170   Cu182   1.977   .     S
O171   Cu182   1.984   .     S
O171   C173    1.299   .     A
O172   C174    1.299   .     A
O172   Cu181   1.984   .     S
C173   C192    1.472   .     S
C174   C191    1.472   .     S
O175   C179    1.284   .     A
O175   Cu181   1.966   .     S
O176   C180    1.284   .     A
O176   Cu182   1.966   .     S
O177   Cu182   1.964   .     S
O177   C179    1.299   .     A
O178   C180    1.299   .     A
O178   Cu181   1.964   .     S
C179   C185    1.434   .     S
C180   C186    1.434   .     S
Cu181  Cu182   2.694   .     S
Cu181  N183    2.025   .     S
Cu182  N184    2.025   .     S
N183   C195    1.372   .     A
N183   C194    1.374   .     A
N184   C196    1.372   .     A
N184   C193    1.374   .     A
C186   C227    1.351   .     S
C186   Cl240   1.774   .     S
C187   Cl199   1.773   .     S
C187   C192    1.416   .     A
C188   C191    1.416   .     A
C188   Cl200   1.773   .     S
C188   C316    1.391   .     S
C189   C191    1.412   .     A
C189   Cl201   1.778   .     S
C189   C313    1.391   .     S
C190   Cl202   1.778   .     S
C190   C192    1.412   .     A
C193   Cl203   1.758   .     S
C193   C951    1.419   1_554 S
C194   Cl204   1.758   .     S
C194   C574    1.419   .     S
C195   N205    1.430   .     S
C195   C571    1.419   .     S
C196   N208    1.430   .     S
C196   C950    1.419   1_554 S
Cl197  C227    1.774   .     S
N205   O206    1.300   .     A
N205   O207    1.300   .     A
N208   O210    1.300   .     A
N208   O209    1.300   .     A
O211   C215    1.304   .     A
O211   Cu223   1.977   .     S
O212   C216    1.304   .     A
O212   Cu224   1.977   .     S
O213   Cu224   1.984   .     S
O213   C215    1.299   .     A
O214   C216    1.299   .     A
O214   Cu223   1.984   .     S
C215   C234    1.472   .     S
C216   C233    1.472   .     S
O217   C221    1.284   .     A
O217   Cu223   1.966   .     S
O218   C222    1.284   .     A
O218   Cu224   1.966   .     S
O219   Cu224   1.964   .     S
O219   C221    1.299   .     A
O220   C222    1.299   .     A
O220   Cu223   1.964   .     S
C221   C227    1.434   .     S
C222   C228    1.434   .     S
Cu223  Cu224   2.694   .     S
Cu223  N225    2.025   .     S
Cu224  N226    2.025   .     S
N225   C237    1.372   .     A
N225   C236    1.374   .     A
N226   C238    1.372   .     A
N226   C235    1.374   .     A
C228   C143    1.351   1_655 S
C228   Cl156   1.774   1_655 S
C229   Cl241   1.773   .     S
C229   C234    1.416   .     A
C230   C233    1.416   .     A
C230   Cl242   1.773   .     S
C230   C358    1.391   .     S
C231   C233    1.412   .     A
C231   Cl243   1.778   .     S
C231   C355    1.391   .     S
C232   Cl244   1.778   .     S
C232   C234    1.412   .     A
C235   Cl245   1.758   .     S
C235   C993    1.419   1_554 S
C236   Cl246   1.758   .     S
C236   C616    1.419   .     S
C237   N247    1.430   .     S
C237   C613    1.419   .     S
C238   N250    1.430   .     S
C238   C992    1.419   1_554 S
Cl239  C143    1.774   1_655 S
N247   O248    1.300   .     A
N247   O249    1.300   .     A
N250   O252    1.300   .     A
N250   O251    1.300   .     A
O253   C257    1.304   .     A
O253   Cu265   1.977   .     S
O254   C258    1.304   .     A
O254   Cu266   1.977   .     S
O255   Cu266   1.984   .     S
O255   C257    1.299   .     A
O256   C258    1.299   .     A
O256   Cu265   1.984   .     S
C257   C276    1.472   .     S
C258   C275    1.472   .     S
O259   C263    1.284   .     A
O259   Cu265   1.966   .     S
O260   C264    1.284   .     A
O260   Cu266   1.966   .     S
O261   Cu266   1.964   .     S
O261   C263    1.299   .     A
O262   C264    1.299   .     A
O262   Cu265   1.964   .     S
C263   C269    1.434   .     S
C264   C270    1.434   .     S
Cu265  Cu266   2.694   .     S
Cu265  N267    2.025   .     S
Cu266  N268    2.025   .     S
N267   C279    1.372   .     A
N267   C278    1.374   .     A
N268   C280    1.372   .     A
N268   C277    1.374   .     A
C269   C354    1.351   1_455 S
C269   Cl365   1.774   1_455 S
C270   C311    1.351   .     S
C270   Cl324   1.774   .     S
C271   Cl283   1.773   .     S
C271   C276    1.416   .     A
C272   C275    1.416   .     A
C272   Cl284   1.773   .     S
C272   C22     1.391   1_565 S
C273   C275    1.412   .     A
C273   Cl285   1.778   .     S
C273   C19     1.391   1_565 S
C274   Cl286   1.778   .     S
C274   C276    1.412   .     A
C277   Cl287   1.758   .     S
C277   C1035   1.419   1_554 S
C278   Cl288   1.758   .     S
C278   C658    1.419   .     S
C279   N289    1.430   .     S
C279   C655    1.419   .     S
C280   N292    1.430   .     S
C280   C1034   1.419   1_554 S
Cl281  C311    1.774   .     S
Cl282  C354    1.774   1_455 S
N289   O290    1.300   .     A
N289   O291    1.300   .     A
N292   O294    1.300   .     A
N292   O293    1.300   .     A
O295   C299    1.304   .     A
O295   Cu307   1.977   .     S
O296   C300    1.304   .     A
O296   Cu308   1.977   .     S
O297   Cu308   1.984   .     S
O297   C299    1.299   .     A
O298   C300    1.299   .     A
O298   Cu307   1.984   .     S
C299   C318    1.472   .     S
C300   C317    1.472   .     S
O301   C305    1.284   .     A
O301   Cu307   1.966   .     S
O302   C306    1.284   .     A
O302   Cu308   1.966   .     S
O303   Cu308   1.964   .     S
O303   C305    1.299   .     A
O304   C306    1.299   .     A
O304   Cu307   1.964   .     S
C305   C311    1.434   .     S
C306   C312    1.434   .     S
Cu307  Cu308   2.694   .     S
Cu307  N309    2.025   .     S
Cu308  N310    2.025   .     S
N309   C321    1.372   .     A
N309   C320    1.374   .     A
N310   C322    1.372   .     A
N310   C319    1.374   .     A
C312   C353    1.351   .     S
C312   Cl366   1.774   .     S
C313   Cl325   1.773   .     S
C313   C318    1.416   .     A
C314   C317    1.416   .     A
C314   Cl326   1.773   .     S
C314   C64     1.391   1_565 S
C315   C317    1.412   .     A
C315   Cl327   1.778   .     S
C315   C61     1.391   1_565 S
C316   Cl328   1.778   .     S
C316   C318    1.412   .     A
C319   Cl329   1.758   .     S
C319   C1077   1.419   1_554 S
C320   Cl330   1.758   .     S
C320   C700    1.419   .     S
C321   N331    1.430   .     S
C321   C697    1.419   .     S
C322   N334    1.430   .     S
C322   C1076   1.419   1_554 S
Cl323  C353    1.774   .     S
N331   O332    1.300   .     A
N331   O333    1.300   .     A
N334   O336    1.300   .     A
N334   O335    1.300   .     A
O337   C341    1.304   .     A
O337   Cu349   1.977   .     S
O338   C342    1.304   .     A
O338   Cu350   1.977   .     S
O339   Cu350   1.984   .     S
O339   C341    1.299   .     A
O340   C342    1.299   .     A
O340   Cu349   1.984   .     S
C341   C360    1.472   .     S
C342   C359    1.472   .     S
O343   C347    1.284   .     A
O343   Cu349   1.966   .     S
O344   C348    1.284   .     A
O344   Cu350   1.966   .     S
O345   Cu350   1.964   .     S
O345   C347    1.299   .     A
O346   C348    1.299   .     A
O346   Cu349   1.964   .     S
C347   C353    1.434   .     S
C348   C354    1.434   .     S
Cu349  Cu350   2.694   .     S
Cu349  N351    2.025   .     S
Cu350  N352    2.025   .     S
N351   C363    1.372   .     A
N351   C362    1.374   .     A
N352   C364    1.372   .     A
N352   C361    1.374   .     A
C354   C269    1.351   1_655 S
C354   Cl282   1.774   1_655 S
C355   Cl367   1.773   .     S
C355   C360    1.416   .     A
C356   C359    1.416   .     A
C356   Cl368   1.773   .     S
C356   C106    1.391   1_565 S
C357   C359    1.412   .     A
C357   Cl369   1.778   .     S
C357   C103    1.391   1_565 S
C358   Cl370   1.778   .     S
C358   C360    1.412   .     A
C361   Cl371   1.758   .     S
C361   C1119   1.419   1_554 S
C362   Cl372   1.758   .     S
C362   C742    1.419   .     S
C363   N373    1.430   .     S
C363   C739    1.419   .     S
C364   N376    1.430   .     S
C364   C1118   1.419   1_554 S
Cl365  C269    1.774   1_655 S
N373   O374    1.300   .     A
N373   O375    1.300   .     A
N376   O378    1.300   .     A
N376   O377    1.300   .     A
O379   C383    1.304   .     A
O379   Cu391   1.977   .     S
O380   C384    1.304   .     A
O380   Cu392   1.977   .     S
O381   Cu392   1.984   .     S
O381   C383    1.299   .     A
O382   C384    1.299   .     A
O382   Cu391   1.984   .     S
C383   C402    1.472   .     S
C384   C401    1.472   .     S
O385   C389    1.284   .     A
O385   Cu391   1.966   .     S
O386   C390    1.284   .     A
O386   Cu392   1.966   .     S
O387   Cu392   1.964   .     S
O387   C389    1.299   .     A
O388   C390    1.299   .     A
O388   Cu391   1.964   .     S
C389   C395    1.434   .     S
C390   C396    1.434   .     S
Cu391  Cu392   2.694   .     S
Cu391  N393    2.025   .     S
Cu392  N394    2.025   .     S
N393   C405    1.372   .     A
N393   C404    1.374   .     A
N394   C406    1.372   .     A
N394   C403    1.374   .     A
C395   C480    1.351   1_455 S
C395   Cl491   1.774   1_455 S
C396   C437    1.351   .     S
C396   Cl450   1.774   .     S
C397   Cl409   1.773   .     S
C397   C402    1.416   .     A
C397   C651    1.391   1_545 S
C398   C401    1.416   .     A
C398   Cl410   1.773   .     S
C398   C526    1.391   .     S
C399   C401    1.412   .     A
C399   Cl411   1.778   .     S
C399   C523    1.391   .     S
C400   Cl412   1.778   .     S
C400   C402    1.412   .     A
C400   C650    1.391   1_545 S
C403   Cl413   1.758   .     S
C404   Cl414   1.758   .     S
C404   C784    1.419   .     S
C405   N415    1.430   .     S
C405   C781    1.419   .     S
C406   N418    1.430   .     S
Cl407  C437    1.774   .     S
Cl408  C480    1.774   1_455 S
N415   O416    1.300   .     A
N415   O417    1.300   .     A
N418   O420    1.300   .     A
N418   O419    1.300   .     A
O421   C425    1.304   .     A
O421   Cu433   1.977   .     S
O422   C426    1.304   .     A
O422   Cu434   1.977   .     S
O423   Cu434   1.984   .     S
O423   C425    1.299   .     A
O424   C426    1.299   .     A
O424   Cu433   1.984   .     S
C425   C444    1.472   .     S
C426   C443    1.472   .     S
O427   C431    1.284   .     A
O427   Cu433   1.966   .     S
O428   C432    1.284   .     A
O428   Cu434   1.966   .     S
O429   Cu434   1.964   .     S
O429   C431    1.299   .     A
O430   C432    1.299   .     A
O430   Cu433   1.964   .     S
C431   C437    1.434   .     S
C432   C438    1.434   .     S
Cu433  Cu434   2.694   .     S
Cu433  N435    2.025   .     S
Cu434  N436    2.025   .     S
N435   C447    1.372   .     A
N435   C446    1.374   .     A
N436   C448    1.372   .     A
N436   C445    1.374   .     A
C438   C479    1.351   .     S
C438   Cl492   1.774   .     S
C439   Cl451   1.773   .     S
C439   C444    1.416   .     A
C439   C693    1.391   1_545 S
C440   C443    1.416   .     A
C440   Cl452   1.773   .     S
C440   C568    1.391   .     S
C441   C443    1.412   .     A
C441   Cl453   1.778   .     S
C441   C565    1.391   .     S
C442   Cl454   1.778   .     S
C442   C444    1.412   .     A
C442   C692    1.391   1_545 S
C445   Cl455   1.758   .     S
C446   Cl456   1.758   .     S
C446   C826    1.419   .     S
C447   N457    1.430   .     S
C447   C823    1.419   .     S
C448   N460    1.430   .     S
Cl449  C479    1.774   .     S
N457   O458    1.300   .     A
N457   O459    1.300   .     A
N460   O462    1.300   .     A
N460   O461    1.300   .     A
O463   C467    1.304   .     A
O463   Cu475   1.977   .     S
O464   C468    1.304   .     A
O464   Cu476   1.977   .     S
O465   Cu476   1.984   .     S
O465   C467    1.299   .     A
O466   C468    1.299   .     A
O466   Cu475   1.984   .     S
C467   C486    1.472   .     S
C468   C485    1.472   .     S
O469   C473    1.284   .     A
O469   Cu475   1.966   .     S
O470   C474    1.284   .     A
O470   Cu476   1.966   .     S
O471   Cu476   1.964   .     S
O471   C473    1.299   .     A
O472   C474    1.299   .     A
O472   Cu475   1.964   .     S
C473   C479    1.434   .     S
C474   C480    1.434   .     S
Cu475  Cu476   2.694   .     S
Cu475  N477    2.025   .     S
Cu476  N478    2.025   .     S
N477   C489    1.372   .     A
N477   C488    1.374   .     A
N478   C490    1.372   .     A
N478   C487    1.374   .     A
C480   C395    1.351   1_655 S
C480   Cl408   1.774   1_655 S
C481   Cl493   1.773   .     S
C481   C486    1.416   .     A
C481   C735    1.391   1_545 S
C482   C485    1.416   .     A
C482   Cl494   1.773   .     S
C482   C610    1.391   .     S
C483   C485    1.412   .     A
C483   Cl495   1.778   .     S
C483   C607    1.391   .     S
C484   Cl496   1.778   .     S
C484   C486    1.412   .     A
C484   C734    1.391   1_545 S
C487   Cl497   1.758   .     S
C488   Cl498   1.758   .     S
C488   C868    1.419   .     S
C489   N499    1.430   .     S
C489   C865    1.419   .     S
C490   N502    1.430   .     S
Cl491  C395    1.774   1_655 S
N499   O500    1.300   .     A
N499   O501    1.300   .     A
N502   O504    1.300   .     A
N502   O503    1.300   .     A
O505   C509    1.304   .     A
O505   Cu517   1.977   .     S
O506   C510    1.304   .     A
O506   Cu518   1.977   .     S
O507   Cu518   1.984   .     S
O507   C509    1.299   .     A
O508   C510    1.299   .     A
O508   Cu517   1.984   .     S
C509   C528    1.472   .     S
C510   C527    1.472   .     S
O511   C515    1.284   .     A
O511   Cu517   1.966   .     S
O512   C516    1.284   .     A
O512   Cu518   1.966   .     S
O513   Cu518   1.964   .     S
O513   C515    1.299   .     A
O514   C516    1.299   .     A
O514   Cu517   1.964   .     S
C515   C521    1.434   .     S
C516   C522    1.434   .     S
Cu517  Cu518   2.694   .     S
Cu517  N519    2.025   .     S
Cu518  N520    2.025   .     S
N519   C531    1.372   .     A
N519   C530    1.374   .     A
N520   C532    1.372   .     A
N520   C529    1.374   .     A
C521   C606    1.351   1_455 S
C521   Cl617   1.774   1_455 S
C522   C563    1.351   .     S
C522   Cl576   1.774   .     S
C523   Cl535   1.773   .     S
C523   C528    1.416   .     A
C524   C527    1.416   .     A
C524   Cl536   1.773   .     S
C524   C652    1.391   .     S
C525   C527    1.412   .     A
C525   Cl537   1.778   .     S
C525   C649    1.391   .     S
C526   Cl538   1.778   .     S
C526   C528    1.412   .     A
C529   Cl539   1.758   .     S
C530   Cl540   1.758   .     S
C530   C910    1.419   .     S
C531   N541    1.430   .     S
C531   C907    1.419   .     S
C532   N544    1.430   .     S
Cl533  C563    1.774   .     S
Cl534  C606    1.774   1_455 S
N541   O542    1.300   .     A
N541   O543    1.300   .     A
N544   O546    1.300   .     A
N544   O545    1.300   .     A
O547   C551    1.304   .     A
O547   Cu559   1.977   .     S
O548   C552    1.304   .     A
O548   Cu560   1.977   .     S
O549   Cu560   1.984   .     S
O549   C551    1.299   .     A
O550   C552    1.299   .     A
O550   Cu559   1.984   .     S
C551   C570    1.472   .     S
C552   C569    1.472   .     S
O553   C557    1.284   .     A
O553   Cu559   1.966   .     S
O554   C558    1.284   .     A
O554   Cu560   1.966   .     S
O555   Cu560   1.964   .     S
O555   C557    1.299   .     A
O556   C558    1.299   .     A
O556   Cu559   1.964   .     S
C557   C563    1.434   .     S
C558   C564    1.434   .     S
Cu559  Cu560   2.694   .     S
Cu559  N561    2.025   .     S
Cu560  N562    2.025   .     S
N561   C573    1.372   .     A
N561   C572    1.374   .     A
N562   C574    1.372   .     A
N562   C571    1.374   .     A
C564   C605    1.351   .     S
C564   Cl618   1.774   .     S
C565   Cl577   1.773   .     S
C565   C570    1.416   .     A
C566   C569    1.416   .     A
C566   Cl578   1.773   .     S
C566   C694    1.391   .     S
C567   C569    1.412   .     A
C567   Cl579   1.778   .     S
C567   C691    1.391   .     S
C568   Cl580   1.778   .     S
C568   C570    1.412   .     A
C571   Cl581   1.758   .     S
C572   Cl582   1.758   .     S
C572   C952    1.419   .     S
C573   N583    1.430   .     S
C573   C949    1.419   .     S
C574   N586    1.430   .     S
Cl575  C605    1.774   .     S
N583   O584    1.300   .     A
N583   O585    1.300   .     A
N586   O588    1.300   .     A
N586   O587    1.300   .     A
O589   C593    1.304   .     A
O589   Cu601   1.977   .     S
O590   C594    1.304   .     A
O590   Cu602   1.977   .     S
O591   Cu602   1.984   .     S
O591   C593    1.299   .     A
O592   C594    1.299   .     A
O592   Cu601   1.984   .     S
C593   C612    1.472   .     S
C594   C611    1.472   .     S
O595   C599    1.284   .     A
O595   Cu601   1.966   .     S
O596   C600    1.284   .     A
O596   Cu602   1.966   .     S
O597   Cu602   1.964   .     S
O597   C599    1.299   .     A
O598   C600    1.299   .     A
O598   Cu601   1.964   .     S
C599   C605    1.434   .     S
C600   C606    1.434   .     S
Cu601  Cu602   2.694   .     S
Cu601  N603    2.025   .     S
Cu602  N604    2.025   .     S
N603   C615    1.372   .     A
N603   C614    1.374   .     A
N604   C616    1.372   .     A
N604   C613    1.374   .     A
C606   C521    1.351   1_655 S
C606   Cl534   1.774   1_655 S
C607   Cl619   1.773   .     S
C607   C612    1.416   .     A
C608   C611    1.416   .     A
C608   Cl620   1.773   .     S
C608   C736    1.391   .     S
C609   C611    1.412   .     A
C609   Cl621   1.778   .     S
C609   C733    1.391   .     S
C610   Cl622   1.778   .     S
C610   C612    1.412   .     A
C613   Cl623   1.758   .     S
C614   Cl624   1.758   .     S
C614   C994    1.419   .     S
C615   N625    1.430   .     S
C615   C991    1.419   .     S
C616   N628    1.430   .     S
Cl617  C521    1.774   1_655 S
N625   O626    1.300   .     A
N625   O627    1.300   .     A
N628   O630    1.300   .     A
N628   O629    1.300   .     A
O631   C635    1.304   .     A
O631   Cu643   1.977   .     S
O632   C636    1.304   .     A
O632   Cu644   1.977   .     S
O633   Cu644   1.984   .     S
O633   C635    1.299   .     A
O634   C636    1.299   .     A
O634   Cu643   1.984   .     S
C635   C654    1.472   .     S
C636   C653    1.472   .     S
O637   C641    1.284   .     A
O637   Cu643   1.966   .     S
O638   C642    1.284   .     A
O638   Cu644   1.966   .     S
O639   Cu644   1.964   .     S
O639   C641    1.299   .     A
O640   C642    1.299   .     A
O640   Cu643   1.964   .     S
C641   C647    1.434   .     S
C642   C648    1.434   .     S
Cu643  Cu644   2.694   .     S
Cu643  N645    2.025   .     S
Cu644  N646    2.025   .     S
N645   C657    1.372   .     A
N645   C656    1.374   .     A
N646   C658    1.372   .     A
N646   C655    1.374   .     A
C647   C732    1.351   1_455 S
C647   Cl743   1.774   1_455 S
C648   C689    1.351   .     S
C648   Cl702   1.774   .     S
C649   Cl661   1.773   .     S
C649   C654    1.416   .     A
C650   C653    1.416   .     A
C650   Cl662   1.773   .     S
C650   C400    1.391   1_565 S
C651   C653    1.412   .     A
C651   Cl663   1.778   .     S
C651   C397    1.391   1_565 S
C652   Cl664   1.778   .     S
C652   C654    1.412   .     A
C655   Cl665   1.758   .     S
C656   Cl666   1.758   .     S
C656   C1036   1.419   .     S
C657   N667    1.430   .     S
C657   C1033   1.419   .     S
C658   N670    1.430   .     S
Cl659  C689    1.774   .     S
Cl660  C732    1.774   1_455 S
N667   O668    1.300   .     A
N667   O669    1.300   .     A
N670   O672    1.300   .     A
N670   O671    1.300   .     A
O673   C677    1.304   .     A
O673   Cu685   1.977   .     S
O674   C678    1.304   .     A
O674   Cu686   1.977   .     S
O675   Cu686   1.984   .     S
O675   C677    1.299   .     A
O676   C678    1.299   .     A
O676   Cu685   1.984   .     S
C677   C696    1.472   .     S
C678   C695    1.472   .     S
O679   C683    1.284   .     A
O679   Cu685   1.966   .     S
O680   C684    1.284   .     A
O680   Cu686   1.966   .     S
O681   Cu686   1.964   .     S
O681   C683    1.299   .     A
O682   C684    1.299   .     A
O682   Cu685   1.964   .     S
C683   C689    1.434   .     S
C684   C690    1.434   .     S
Cu685  Cu686   2.694   .     S
Cu685  N687    2.025   .     S
Cu686  N688    2.025   .     S
N687   C699    1.372   .     A
N687   C698    1.374   .     A
N688   C700    1.372   .     A
N688   C697    1.374   .     A
C690   C731    1.351   .     S
C690   Cl744   1.774   .     S
C691   Cl703   1.773   .     S
C691   C696    1.416   .     A
C692   C695    1.416   .     A
C692   Cl704   1.773   .     S
C692   C442    1.391   1_565 S
C693   C695    1.412   .     A
C693   Cl705   1.778   .     S
C693   C439    1.391   1_565 S
C694   Cl706   1.778   .     S
C694   C696    1.412   .     A
C697   Cl707   1.758   .     S
C698   Cl708   1.758   .     S
C698   C1078   1.419   .     S
C699   N709    1.430   .     S
C699   C1075   1.419   .     S
C700   N712    1.430   .     S
Cl701  C731    1.774   .     S
N709   O710    1.300   .     A
N709   O711    1.300   .     A
N712   O714    1.300   .     A
N712   O713    1.300   .     A
O715   C719    1.304   .     A
O715   Cu727   1.977   .     S
O716   C720    1.304   .     A
O716   Cu728   1.977   .     S
O717   Cu728   1.984   .     S
O717   C719    1.299   .     A
O718   C720    1.299   .     A
O718   Cu727   1.984   .     S
C719   C738    1.472   .     S
C720   C737    1.472   .     S
O721   C725    1.284   .     A
O721   Cu727   1.966   .     S
O722   C726    1.284   .     A
O722   Cu728   1.966   .     S
O723   Cu728   1.964   .     S
O723   C725    1.299   .     A
O724   C726    1.299   .     A
O724   Cu727   1.964   .     S
C725   C731    1.434   .     S
C726   C732    1.434   .     S
Cu727  Cu728   2.694   .     S
Cu727  N729    2.025   .     S
Cu728  N730    2.025   .     S
N729   C741    1.372   .     A
N729   C740    1.374   .     A
N730   C742    1.372   .     A
N730   C739    1.374   .     A
C732   C647    1.351   1_655 S
C732   Cl660   1.774   1_655 S
C733   Cl745   1.773   .     S
C733   C738    1.416   .     A
C734   C737    1.416   .     A
C734   Cl746   1.773   .     S
C734   C484    1.391   1_565 S
C735   C737    1.412   .     A
C735   Cl747   1.778   .     S
C735   C481    1.391   1_565 S
C736   Cl748   1.778   .     S
C736   C738    1.412   .     A
C739   Cl749   1.758   .     S
C740   Cl750   1.758   .     S
C740   C1120   1.419   .     S
C741   N751    1.430   .     S
C741   C1117   1.419   .     S
C742   N754    1.430   .     S
Cl743  C647    1.774   1_655 S
N751   O752    1.300   .     A
N751   O753    1.300   .     A
N754   O756    1.300   .     A
N754   O755    1.300   .     A
O757   C761    1.304   .     A
O757   Cu769   1.977   .     S
O758   C762    1.304   .     A
O758   Cu770   1.977   .     S
O759   Cu770   1.984   .     S
O759   C761    1.299   .     A
O760   C762    1.299   .     A
O760   Cu769   1.984   .     S
C761   C780    1.472   .     S
C762   C779    1.472   .     S
O763   C767    1.284   .     A
O763   Cu769   1.966   .     S
O764   C768    1.284   .     A
O764   Cu770   1.966   .     S
O765   Cu770   1.964   .     S
O765   C767    1.299   .     A
O766   C768    1.299   .     A
O766   Cu769   1.964   .     S
C767   C773    1.434   .     S
C768   C774    1.434   .     S
Cu769  Cu770   2.694   .     S
Cu769  N771    2.025   .     S
Cu770  N772    2.025   .     S
N771   C783    1.372   .     A
N771   C782    1.374   .     A
N772   C784    1.372   .     A
N772   C781    1.374   .     A
C773   C858    1.351   1_455 S
C773   Cl869   1.774   1_455 S
C774   C815    1.351   .     S
C774   Cl828   1.774   .     S
C775   Cl787   1.773   .     S
C775   C780    1.416   .     A
C775   C1029   1.391   1_545 S
C776   C779    1.416   .     A
C776   Cl788   1.773   .     S
C776   C904    1.391   .     S
C777   C779    1.412   .     A
C777   Cl789   1.778   .     S
C777   C901    1.391   .     S
C778   Cl790   1.778   .     S
C778   C780    1.412   .     A
C778   C1028   1.391   1_545 S
C781   Cl791   1.758   .     S
C782   Cl792   1.758   .     S
C782   C28     1.419   1_556 S
C783   N793    1.430   .     S
C783   C25     1.419   1_556 S
C784   N796    1.430   .     S
Cl785  C815    1.774   .     S
Cl786  C858    1.774   1_455 S
N793   O794    1.300   .     A
N793   O795    1.300   .     A
N796   O798    1.300   .     A
N796   O797    1.300   .     A
O799   C803    1.304   .     A
O799   Cu811   1.977   .     S
O800   C804    1.304   .     A
O800   Cu812   1.977   .     S
O801   Cu812   1.984   .     S
O801   C803    1.299   .     A
O802   C804    1.299   .     A
O802   Cu811   1.984   .     S
C803   C822    1.472   .     S
C804   C821    1.472   .     S
O805   C809    1.284   .     A
O805   Cu811   1.966   .     S
O806   C810    1.284   .     A
O806   Cu812   1.966   .     S
O807   Cu812   1.964   .     S
O807   C809    1.299   .     A
O808   C810    1.299   .     A
O808   Cu811   1.964   .     S
C809   C815    1.434   .     S
C810   C816    1.434   .     S
Cu811  Cu812   2.694   .     S
Cu811  N813    2.025   .     S
Cu812  N814    2.025   .     S
N813   C825    1.372   .     A
N813   C824    1.374   .     A
N814   C826    1.372   .     A
N814   C823    1.374   .     A
C816   C857    1.351   .     S
C816   Cl870   1.774   .     S
C817   Cl829   1.773   .     S
C817   C822    1.416   .     A
C817   C1071   1.391   1_545 S
C818   C821    1.416   .     A
C818   Cl830   1.773   .     S
C818   C946    1.391   .     S
C819   C821    1.412   .     A
C819   Cl831   1.778   .     S
C819   C943    1.391   .     S
C820   Cl832   1.778   .     S
C820   C822    1.412   .     A
C820   C1070   1.391   1_545 S
C823   Cl833   1.758   .     S
C824   Cl834   1.758   .     S
C824   C70     1.419   1_556 S
C825   N835    1.430   .     S
C825   C67     1.419   1_556 S
C826   N838    1.430   .     S
Cl827  C857    1.774   .     S
N835   O836    1.300   .     A
N835   O837    1.300   .     A
N838   O840    1.300   .     A
N838   O839    1.300   .     A
O841   C845    1.304   .     A
O841   Cu853   1.977   .     S
O842   C846    1.304   .     A
O842   Cu854   1.977   .     S
O843   Cu854   1.984   .     S
O843   C845    1.299   .     A
O844   C846    1.299   .     A
O844   Cu853   1.984   .     S
C845   C864    1.472   .     S
C846   C863    1.472   .     S
O847   C851    1.284   .     A
O847   Cu853   1.966   .     S
O848   C852    1.284   .     A
O848   Cu854   1.966   .     S
O849   Cu854   1.964   .     S
O849   C851    1.299   .     A
O850   C852    1.299   .     A
O850   Cu853   1.964   .     S
C851   C857    1.434   .     S
C852   C858    1.434   .     S
Cu853  Cu854   2.694   .     S
Cu853  N855    2.025   .     S
Cu854  N856    2.025   .     S
N855   C867    1.372   .     A
N855   C866    1.374   .     A
N856   C868    1.372   .     A
N856   C865    1.374   .     A
C858   C773    1.351   1_655 S
C858   Cl786   1.774   1_655 S
C859   Cl871   1.773   .     S
C859   C864    1.416   .     A
C859   C1113   1.391   1_545 S
C860   C863    1.416   .     A
C860   Cl872   1.773   .     S
C860   C988    1.391   .     S
C861   C863    1.412   .     A
C861   Cl873   1.778   .     S
C861   C985    1.391   .     S
C862   Cl874   1.778   .     S
C862   C864    1.412   .     A
C862   C1112   1.391   1_545 S
C865   Cl875   1.758   .     S
C866   Cl876   1.758   .     S
C866   C112    1.419   1_556 S
C867   N877    1.430   .     S
C867   C109    1.419   1_556 S
C868   N880    1.430   .     S
Cl869  C773    1.774   1_655 S
N877   O878    1.300   .     A
N877   O879    1.300   .     A
N880   O882    1.300   .     A
N880   O881    1.300   .     A
O883   C887    1.304   .     A
O883   Cu895   1.977   .     S
O884   C888    1.304   .     A
O884   Cu896   1.977   .     S
O885   Cu896   1.984   .     S
O885   C887    1.299   .     A
O886   C888    1.299   .     A
O886   Cu895   1.984   .     S
C887   C906    1.472   .     S
C888   C905    1.472   .     S
O889   C893    1.284   .     A
O889   Cu895   1.966   .     S
O890   C894    1.284   .     A
O890   Cu896   1.966   .     S
O891   Cu896   1.964   .     S
O891   C893    1.299   .     A
O892   C894    1.299   .     A
O892   Cu895   1.964   .     S
C893   C899    1.434   .     S
C894   C900    1.434   .     S
Cu895  Cu896   2.694   .     S
Cu895  N897    2.025   .     S
Cu896  N898    2.025   .     S
N897   C909    1.372   .     A
N897   C908    1.374   .     A
N898   C910    1.372   .     A
N898   C907    1.374   .     A
C899   C984    1.351   1_455 S
C899   Cl995   1.774   1_455 S
C900   C941    1.351   .     S
C900   Cl954   1.774   .     S
C901   Cl913   1.773   .     S
C901   C906    1.416   .     A
C902   C905    1.416   .     A
C902   Cl914   1.773   .     S
C902   C1030   1.391   .     S
C903   C905    1.412   .     A
C903   Cl915   1.778   .     S
C903   C1027   1.391   .     S
C904   Cl916   1.778   .     S
C904   C906    1.412   .     A
C907   Cl917   1.758   .     S
C908   Cl918   1.758   .     S
C908   C154    1.419   1_556 S
C909   N919    1.430   .     S
C909   C151    1.419   1_556 S
C910   N922    1.430   .     S
Cl911  C941    1.774   .     S
Cl912  C984    1.774   1_455 S
N919   O920    1.300   .     A
N919   O921    1.300   .     A
N922   O924    1.300   .     A
N922   O923    1.300   .     A
O925   C929    1.304   .     A
O925   Cu937   1.977   .     S
O926   C930    1.304   .     A
O926   Cu938   1.977   .     S
O927   Cu938   1.984   .     S
O927   C929    1.299   .     A
O928   C930    1.299   .     A
O928   Cu937   1.984   .     S
C929   C948    1.472   .     S
C930   C947    1.472   .     S
O931   C935    1.284   .     A
O931   Cu937   1.966   .     S
O932   C936    1.284   .     A
O932   Cu938   1.966   .     S
O933   Cu938   1.964   .     S
O933   C935    1.299   .     A
O934   C936    1.299   .     A
O934   Cu937   1.964   .     S
C935   C941    1.434   .     S
C936   C942    1.434   .     S
Cu937  Cu938   2.694   .     S
Cu937  N939    2.025   .     S
Cu938  N940    2.025   .     S
N939   C951    1.372   .     A
N939   C950    1.374   .     A
N940   C952    1.372   .     A
N940   C949    1.374   .     A
C942   C983    1.351   .     S
C942   Cl996   1.774   .     S
C943   Cl955   1.773   .     S
C943   C948    1.416   .     A
C944   C947    1.416   .     A
C944   Cl956   1.773   .     S
C944   C1072   1.391   .     S
C945   C947    1.412   .     A
C945   Cl957   1.778   .     S
C945   C1069   1.391   .     S
C946   Cl958   1.778   .     S
C946   C948    1.412   .     A
C949   Cl959   1.758   .     S
C950   Cl960   1.758   .     S
C950   C196    1.419   1_556 S
C951   N961    1.430   .     S
C951   C193    1.419   1_556 S
C952   N964    1.430   .     S
Cl953  C983    1.774   .     S
N961   O962    1.300   .     A
N961   O963    1.300   .     A
N964   O966    1.300   .     A
N964   O965    1.300   .     A
O967   C971    1.304   .     A
O967   Cu979   1.977   .     S
O968   C972    1.304   .     A
O968   Cu980   1.977   .     S
O969   Cu980   1.984   .     S
O969   C971    1.299   .     A
O970   C972    1.299   .     A
O970   Cu979   1.984   .     S
C971   C990    1.472   .     S
C972   C989    1.472   .     S
O973   C977    1.284   .     A
O973   Cu979   1.966   .     S
O974   C978    1.284   .     A
O974   Cu980   1.966   .     S
O975   Cu980   1.964   .     S
O975   C977    1.299   .     A
O976   C978    1.299   .     A
O976   Cu979   1.964   .     S
C977   C983    1.434   .     S
C978   C984    1.434   .     S
Cu979  Cu980   2.694   .     S
Cu979  N981    2.025   .     S
Cu980  N982    2.025   .     S
N981   C993    1.372   .     A
N981   C992    1.374   .     A
N982   C994    1.372   .     A
N982   C991    1.374   .     A
C984   C899    1.351   1_655 S
C984   Cl912   1.774   1_655 S
C985   Cl997   1.773   .     S
C985   C990    1.416   .     A
C986   C989    1.416   .     A
C986   Cl998   1.773   .     S
C986   C1114   1.391   .     S
C987   C989    1.412   .     A
C987   Cl999   1.778   .     S
C987   C1111   1.391   .     S
C988   Cl1000  1.778   .     S
C988   C990    1.412   .     A
C991   Cl1001  1.758   .     S
C992   Cl1002  1.758   .     S
C992   C238    1.419   1_556 S
C993   N1003   1.430   .     S
C993   C235    1.419   1_556 S
C994   N1006   1.430   .     S
Cl995  C899    1.774   1_655 S
N1003  O1004   1.300   .     A
N1003  O1005   1.300   .     A
N1006  O1008   1.300   .     A
N1006  O1007   1.300   .     A
O1009  C1013   1.304   .     A
O1009  Cu1021  1.977   .     S
O1010  C1014   1.304   .     A
O1010  Cu1022  1.977   .     S
O1011  Cu1022  1.984   .     S
O1011  C1013   1.299   .     A
O1012  C1014   1.299   .     A
O1012  Cu1021  1.984   .     S
C1013  C1032   1.472   .     S
C1014  C1031   1.472   .     S
O1015  C1019   1.284   .     A
O1015  Cu1021  1.966   .     S
O1016  C1020   1.284   .     A
O1016  Cu1022  1.966   .     S
O1017  Cu1022  1.964   .     S
O1017  C1019   1.299   .     A
O1018  C1020   1.299   .     A
O1018  Cu1021  1.964   .     S
C1019  C1025   1.434   .     S
C1020  C1026   1.434   .     S
Cu1021 Cu1022  2.694   .     S
Cu1021 N1023   2.025   .     S
Cu1022 N1024   2.025   .     S
N1023  C1035   1.372   .     A
N1023  C1034   1.374   .     A
N1024  C1036   1.372   .     A
N1024  C1033   1.374   .     A
C1025  C1110   1.351   1_455 S
C1025  Cl1121  1.774   1_455 S
C1026  C1067   1.351   .     S
C1026  Cl1080  1.774   .     S
C1027  Cl1039  1.773   .     S
C1027  C1032   1.416   .     A
C1028  C1031   1.416   .     A
C1028  Cl1040  1.773   .     S
C1028  C778    1.391   1_565 S
C1029  C1031   1.412   .     A
C1029  Cl1041  1.778   .     S
C1029  C775    1.391   1_565 S
C1030  Cl1042  1.778   .     S
C1030  C1032   1.412   .     A
C1033  Cl1043  1.758   .     S
C1034  Cl1044  1.758   .     S
C1034  C280    1.419   1_556 S
C1035  N1045   1.430   .     S
C1035  C277    1.419   1_556 S
C1036  N1048   1.430   .     S
Cl1037 C1067   1.774   .     S
Cl1038 C1110   1.774   1_455 S
N1045  O1046   1.300   .     A
N1045  O1047   1.300   .     A
N1048  O1050   1.300   .     A
N1048  O1049   1.300   .     A
O1051  C1055   1.304   .     A
O1051  Cu1063  1.977   .     S
O1052  C1056   1.304   .     A
O1052  Cu1064  1.977   .     S
O1053  Cu1064  1.984   .     S
O1053  C1055   1.299   .     A
O1054  C1056   1.299   .     A
O1054  Cu1063  1.984   .     S
C1055  C1074   1.472   .     S
C1056  C1073   1.472   .     S
O1057  C1061   1.284   .     A
O1057  Cu1063  1.966   .     S
O1058  C1062   1.284   .     A
O1058  Cu1064  1.966   .     S
O1059  Cu1064  1.964   .     S
O1059  C1061   1.299   .     A
O1060  C1062   1.299   .     A
O1060  Cu1063  1.964   .     S
C1061  C1067   1.434   .     S
C1062  C1068   1.434   .     S
Cu1063 Cu1064  2.694   .     S
Cu1063 N1065   2.025   .     S
Cu1064 N1066   2.025   .     S
N1065  C1077   1.372   .     A
N1065  C1076   1.374   .     A
N1066  C1078   1.372   .     A
N1066  C1075   1.374   .     A
C1068  C1109   1.351   .     S
C1068  Cl1122  1.774   .     S
C1069  Cl1081  1.773   .     S
C1069  C1074   1.416   .     A
C1070  C1073   1.416   .     A
C1070  Cl1082  1.773   .     S
C1070  C820    1.391   1_565 S
C1071  C1073   1.412   .     A
C1071  Cl1083  1.778   .     S
C1071  C817    1.391   1_565 S
C1072  Cl1084  1.778   .     S
C1072  C1074   1.412   .     A
C1075  Cl1085  1.758   .     S
C1076  Cl1086  1.758   .     S
C1076  C322    1.419   1_556 S
C1077  N1087   1.430   .     S
C1077  C319    1.419   1_556 S
C1078  N1090   1.430   .     S
Cl1079 C1109   1.774   .     S
N1087  O1088   1.300   .     A
N1087  O1089   1.300   .     A
N1090  O1092   1.300   .     A
N1090  O1091   1.300   .     A
O1093  C1097   1.304   .     A
O1093  Cu1105  1.977   .     S
O1094  C1098   1.304   .     A
O1094  Cu1106  1.977   .     S
O1095  Cu1106  1.984   .     S
O1095  C1097   1.299   .     A
O1096  C1098   1.299   .     A
O1096  Cu1105  1.984   .     S
C1097  C1116   1.472   .     S
C1098  C1115   1.472   .     S
O1099  C1103   1.284   .     A
O1099  Cu1105  1.966   .     S
O1100  C1104   1.284   .     A
O1100  Cu1106  1.966   .     S
O1101  Cu1106  1.964   .     S
O1101  C1103   1.299   .     A
O1102  C1104   1.299   .     A
O1102  Cu1105  1.964   .     S
C1103  C1109   1.434   .     S
C1104  C1110   1.434   .     S
Cu1105 Cu1106  2.694   .     S
Cu1105 N1107   2.025   .     S
Cu1106 N1108   2.025   .     S
N1107  C1119   1.372   .     A
N1107  C1118   1.374   .     A
N1108  C1120   1.372   .     A
N1108  C1117   1.374   .     A
C1110  C1025   1.351   1_655 S
C1110  Cl1038  1.774   1_655 S
C1111  Cl1123  1.773   .     S
C1111  C1116   1.416   .     A
C1112  C1115   1.416   .     A
C1112  Cl1124  1.773   .     S
C1112  C862    1.391   1_565 S
C1113  C1115   1.412   .     A
C1113  Cl1125  1.778   .     S
C1113  C859    1.391   1_565 S
C1114  Cl1126  1.778   .     S
C1114  C1116   1.412   .     A
C1117  Cl1127  1.758   .     S
C1118  Cl1128  1.758   .     S
C1118  C364    1.419   1_556 S
C1119  N1129   1.430   .     S
C1119  C361    1.419   1_556 S
C1120  N1132   1.430   .     S
Cl1121 C1025   1.774   1_655 S
N1129  O1130   1.300   .     A
N1129  O1131   1.300   .     A
N1132  O1134   1.300   .     A
N1132  O1133   1.300   .     A
