data_str_m3_o2_o10_pcu_sym.26
_audit_creation_date              2020-01-03
_audit_creation_method            'Materials Studio'
_symmetry_space_group_name_H-M    'P1'
_symmetry_Int_Tables_number       1
_symmetry_cell_setting            triclinic
loop_
_symmetry_equiv_pos_as_xyz
  x,y,z
_cell_length_a                    25.4519
_cell_length_b                    29.7431
_cell_length_c                    28.2188
_cell_angle_alpha                 89.9084
_cell_angle_beta                  98.8341
_cell_angle_gamma                 89.9669
loop_
_atom_site_label
_atom_site_type_symbol
_atom_site_fract_x
_atom_site_fract_y
_atom_site_fract_z
_atom_site_U_iso_or_equiv
_atom_site_adp_type
_atom_site_occupancy
C1     C     0.16770   0.16365   0.25019   0.00000  Uiso   1.00
C2     C     0.13370   0.21898   0.44277   0.00000  Uiso   1.00
C3     C     0.16544   0.25061   0.02643   0.00000  Uiso   1.00
C4     C     0.16538   0.24957   0.47321   0.00000  Uiso   1.00
C5     C     0.06752   0.25703   0.23767   0.00000  Uiso   1.00
C6     C     0.26582   0.25699   0.26232   0.00000  Uiso   1.00
C7     C     0.01319   0.27182   0.23092   0.00000  Uiso   1.00
C8     C     0.32012   0.27174   0.26911   0.00000  Uiso   1.00
C9     C     0.21401   0.04978   0.29304   0.00000  Uiso   1.00
C10    C     0.21907   0.44939   0.22538   0.00000  Uiso   1.00
C11    C     0.20451   0.09577   0.29204   0.00000  Uiso   1.00
C12    C     0.16741   0.33629   0.25006   0.00000  Uiso   1.00
C13    C     0.20951   0.40342   0.22307   0.00000  Uiso   1.00
C14    C     0.17519   0.11571   0.25135   0.00000  Uiso   1.00
C15    C     0.17462   0.38408   0.25106   0.00000  Uiso   1.00
C16    C     0.15577   0.09013   0.21107   0.00000  Uiso   1.00
C17    C     0.14930   0.41004   0.28186   0.00000  Uiso   1.00
C18    C     0.16366   0.04423   0.21220   0.00000  Uiso   1.00
C19    C     0.15713   0.45592   0.28326   0.00000  Uiso   1.00
C20    C     0.19220   0.02402   0.25303   0.00000  Uiso   1.00
C21    C     0.19158   0.47562   0.25507   0.00000  Uiso   1.00
C22    C     0.32166   0.28514   0.18037   0.00000  Uiso   1.00
C23    C     0.19652   0.21951   0.05608   0.00000  Uiso   1.00
C24    C     0.01163   0.28472   0.31972   0.00000  Uiso   1.00
C25    C     0.19759   0.27977   0.45229   0.00000  Uiso   1.00
C26    C     0.19657   0.21971   0.10588   0.00000  Uiso   1.00
C27    C     0.19763   0.27951   0.40250   0.00000  Uiso   1.00
C28    C     0.13638   0.28080   0.09851   0.00000  Uiso   1.00
C29    C     0.13527   0.22008   0.39297   0.00000  Uiso   1.00
C30    C     0.13492   0.28203   0.04829   0.00000  Uiso   1.00
H31    H     0.22049   0.11618   0.32265   0.00000  Uiso   1.00
H32    H     0.22250   0.30297   0.38677   0.00000  Uiso   1.00
H33    H     0.11325   0.30453   0.11573   0.00000  Uiso   1.00
H34    H     0.11131   0.19697   0.36924   0.00000  Uiso   1.00
H35    H     0.01732   0.30458   0.16287   0.00000  Uiso   1.00
H36    H     0.30999   0.25469   0.15856   0.00000  Uiso   1.00
H37    H     0.28695   0.30776   0.18055   0.00000  Uiso   1.00
H38    H     0.31598   0.30408   0.33727   0.00000  Uiso   1.00
H39    H     0.02326   0.25412   0.34144   0.00000  Uiso   1.00
H40    H     0.04635   0.30733   0.31966   0.00000  Uiso   1.00
H41    H     0.23486   0.49010   0.40698   0.00000  Uiso   1.00
H42    H     0.22986   0.38251   0.20021   0.00000  Uiso   1.00
H43    H     0.25879   0.00864   0.12379   0.00000  Uiso   1.00
H44    H     0.15848   0.37204   0.02107   0.00000  Uiso   1.00
H45    H     0.10607   0.12134   0.01235   0.00000  Uiso   1.00
H46    H     0.13337   0.10548   0.17940   0.00000  Uiso   1.00
H47    H     0.12255   0.39495   0.30374   0.00000  Uiso   1.00
H48    H     0.14612   0.02415   0.18183   0.00000  Uiso   1.00
H49    H     0.13533   0.47635   0.30540   0.00000  Uiso   1.00
H50    H     0.22059   0.19511   0.04069   0.00000  Uiso   1.00
H51    H     0.22255   0.30351   0.47444   0.00000  Uiso   1.00
H52    H     0.22059   0.19557   0.12833   0.00000  Uiso   1.00
N53    N     0.16667   0.24999   0.12623   0.00000  Uiso   1.00
N54    N     0.16667   0.25001   0.37376   0.00000  Uiso   1.00
O55    O     0.16667   0.18454   0.28974   0.00000  Uiso   1.00
O56    O     0.28762   0.06069   0.37135   0.00000  Uiso   1.00
O57    O     0.21128   0.00497   0.38034   0.00000  Uiso   1.00
O58    O     0.29605   0.00988   0.21876   0.00000  Uiso   1.00
O59    O     0.30283   0.43723   0.17916   0.00000  Uiso   1.00
O60    O     0.23144   0.49392   0.13994   0.00000  Uiso   1.00
O61    O     0.06068   0.30097   0.47270   0.00000  Uiso   1.00
O62    O     0.06034   0.34706   0.04440   0.00000  Uiso   1.00
O63    O     0.13474   0.36065   0.49250   0.00000  Uiso   1.00
O64    O     0.05916   0.20225   0.49811   0.00000  Uiso   1.00
O65    O     0.05645   0.15658   0.42552   0.00000  Uiso   1.00
O66    O     0.16666   0.31547   0.21026   0.00000  Uiso   1.00
O67    O     0.13095   0.14030   0.49732   0.00000  Uiso   1.00
O68    O     0.16667   0.18453   0.21026   0.00000  Uiso   1.00
O69    O     0.16666   0.31547   0.28974   0.00000  Uiso   1.00
O70    O     0.09058   0.25000   0.28044   0.00000  Uiso   1.00
O71    O     0.24275   0.25000   0.21955   0.00000  Uiso   1.00
O72    O     0.09058   0.25000   0.20096   0.00000  Uiso   1.00
O73    O     0.24275   0.25001   0.29903   0.00000  Uiso   1.00
O74    O     0.28634   0.48819   0.32994   0.00000  Uiso   1.00
S75    S     0.25245   0.02562   0.34445   0.00000  Uiso   1.00
S76    S     0.26503   0.47284   0.19110   0.00000  Uiso   1.00
S77    S     0.09519   0.32304   0.01414   0.00000  Uiso   1.00
S78    S     0.09239   0.17922   0.46570   0.00000  Uiso   1.00
Zn79   Zn    0.16667   0.25001   0.30307   0.00000  Uiso   1.00
Zn80   Zn    0.16667   0.25000   0.19693   0.00000  Uiso   1.00
C81    C     0.50104   0.16365   0.25019   0.00000  Uiso   1.00
C82    C     0.46704   0.21898   0.44277   0.00000  Uiso   1.00
C83    C     0.49878   0.25061   0.02643   0.00000  Uiso   1.00
C84    C     0.49871   0.24957   0.47321   0.00000  Uiso   1.00
C85    C     0.40085   0.25703   0.23767   0.00000  Uiso   1.00
C86    C     0.59915   0.25699   0.26232   0.00000  Uiso   1.00
C87    C     0.34653   0.27182   0.23092   0.00000  Uiso   1.00
C88    C     0.65345   0.27174   0.26911   0.00000  Uiso   1.00
C89    C     0.54734   0.04978   0.29304   0.00000  Uiso   1.00
C90    C     0.55240   0.44939   0.22538   0.00000  Uiso   1.00
C91    C     0.53784   0.09577   0.29204   0.00000  Uiso   1.00
C92    C     0.50074   0.33629   0.25006   0.00000  Uiso   1.00
C93    C     0.54284   0.40342   0.22307   0.00000  Uiso   1.00
C94    C     0.50852   0.11571   0.25135   0.00000  Uiso   1.00
C95    C     0.50796   0.38408   0.25106   0.00000  Uiso   1.00
C96    C     0.48911   0.09013   0.21107   0.00000  Uiso   1.00
C97    C     0.48263   0.41004   0.28186   0.00000  Uiso   1.00
C98    C     0.49700   0.04423   0.21220   0.00000  Uiso   1.00
C99    C     0.49047   0.45592   0.28326   0.00000  Uiso   1.00
C100   C     0.52553   0.02402   0.25303   0.00000  Uiso   1.00
C101   C     0.52491   0.47562   0.25507   0.00000  Uiso   1.00
C102   C     0.65499   0.28514   0.18037   0.00000  Uiso   1.00
C103   C     0.52985   0.21951   0.05608   0.00000  Uiso   1.00
C104   C     0.34497   0.28472   0.31972   0.00000  Uiso   1.00
C105   C     0.53093   0.27977   0.45229   0.00000  Uiso   1.00
C106   C     0.52990   0.21971   0.10588   0.00000  Uiso   1.00
C107   C     0.53096   0.27951   0.40250   0.00000  Uiso   1.00
C108   C     0.46972   0.28080   0.09851   0.00000  Uiso   1.00
C109   C     0.46860   0.22008   0.39297   0.00000  Uiso   1.00
C110   C     0.46826   0.28203   0.04829   0.00000  Uiso   1.00
H111   H     0.55383   0.11618   0.32265   0.00000  Uiso   1.00
H112   H     0.55583   0.30297   0.38677   0.00000  Uiso   1.00
H113   H     0.44658   0.30453   0.11573   0.00000  Uiso   1.00
H114   H     0.44465   0.19697   0.36924   0.00000  Uiso   1.00
H115   H     0.35065   0.30458   0.16287   0.00000  Uiso   1.00
H116   H     0.64333   0.25469   0.15856   0.00000  Uiso   1.00
H117   H     0.62028   0.30776   0.18055   0.00000  Uiso   1.00
H118   H     0.64931   0.30408   0.33727   0.00000  Uiso   1.00
H119   H     0.35659   0.25412   0.34144   0.00000  Uiso   1.00
H120   H     0.37968   0.30733   0.31966   0.00000  Uiso   1.00
H121   H     0.56819   0.49010   0.40698   0.00000  Uiso   1.00
H122   H     0.56319   0.38251   0.20021   0.00000  Uiso   1.00
H123   H     0.59213   0.00864   0.12379   0.00000  Uiso   1.00
H124   H     0.49182   0.37204   0.02107   0.00000  Uiso   1.00
H125   H     0.43941   0.12134   0.01235   0.00000  Uiso   1.00
H126   H     0.46671   0.10548   0.17940   0.00000  Uiso   1.00
H127   H     0.45588   0.39495   0.30374   0.00000  Uiso   1.00
H128   H     0.47946   0.02415   0.18183   0.00000  Uiso   1.00
H129   H     0.46867   0.47635   0.30540   0.00000  Uiso   1.00
H130   H     0.55392   0.19511   0.04069   0.00000  Uiso   1.00
H131   H     0.55589   0.30351   0.47444   0.00000  Uiso   1.00
H132   H     0.55392   0.19557   0.12833   0.00000  Uiso   1.00
N133   N     0.50000   0.24999   0.12623   0.00000  Uiso   1.00
N134   N     0.50000   0.25001   0.37376   0.00000  Uiso   1.00
O135   O     0.50000   0.18454   0.28974   0.00000  Uiso   1.00
O136   O     0.62095   0.06069   0.37135   0.00000  Uiso   1.00
O137   O     0.54461   0.00497   0.38034   0.00000  Uiso   1.00
O138   O     0.62939   0.00988   0.21876   0.00000  Uiso   1.00
O139   O     0.63617   0.43723   0.17916   0.00000  Uiso   1.00
O140   O     0.56477   0.49392   0.13994   0.00000  Uiso   1.00
O141   O     0.39401   0.30097   0.47270   0.00000  Uiso   1.00
O142   O     0.39367   0.34706   0.04440   0.00000  Uiso   1.00
O143   O     0.46807   0.36065   0.49250   0.00000  Uiso   1.00
O144   O     0.39249   0.20225   0.49811   0.00000  Uiso   1.00
O145   O     0.38978   0.15658   0.42552   0.00000  Uiso   1.00
O146   O     0.50000   0.31547   0.21026   0.00000  Uiso   1.00
O147   O     0.46429   0.14030   0.49732   0.00000  Uiso   1.00
O148   O     0.50000   0.18453   0.21026   0.00000  Uiso   1.00
O149   O     0.50000   0.31547   0.28974   0.00000  Uiso   1.00
O150   O     0.42392   0.25000   0.28044   0.00000  Uiso   1.00
O151   O     0.57608   0.25000   0.21955   0.00000  Uiso   1.00
O152   O     0.42392   0.25000   0.20096   0.00000  Uiso   1.00
O153   O     0.57608   0.25001   0.29903   0.00000  Uiso   1.00
O154   O     0.61968   0.48819   0.32994   0.00000  Uiso   1.00
S155   S     0.58578   0.02562   0.34445   0.00000  Uiso   1.00
S156   S     0.59836   0.47284   0.19110   0.00000  Uiso   1.00
S157   S     0.42852   0.32304   0.01414   0.00000  Uiso   1.00
S158   S     0.42572   0.17922   0.46570   0.00000  Uiso   1.00
Zn159  Zn    0.50000   0.25001   0.30307   0.00000  Uiso   1.00
Zn160  Zn    0.50000   0.25000   0.19693   0.00000  Uiso   1.00
C161   C     0.83437   0.16365   0.25019   0.00000  Uiso   1.00
C162   C     0.80037   0.21898   0.44277   0.00000  Uiso   1.00
C163   C     0.83211   0.25061   0.02643   0.00000  Uiso   1.00
C164   C     0.83205   0.24957   0.47321   0.00000  Uiso   1.00
C165   C     0.73418   0.25703   0.23767   0.00000  Uiso   1.00
C166   C     0.93248   0.25699   0.26232   0.00000  Uiso   1.00
C167   C     0.67986   0.27182   0.23092   0.00000  Uiso   1.00
C168   C     0.98679   0.27174   0.26911   0.00000  Uiso   1.00
C169   C     0.88067   0.04978   0.29304   0.00000  Uiso   1.00
C170   C     0.88574   0.44939   0.22538   0.00000  Uiso   1.00
C171   C     0.87117   0.09577   0.29204   0.00000  Uiso   1.00
C172   C     0.83407   0.33629   0.25006   0.00000  Uiso   1.00
C173   C     0.87618   0.40342   0.22307   0.00000  Uiso   1.00
C174   C     0.84186   0.11571   0.25135   0.00000  Uiso   1.00
C175   C     0.84129   0.38408   0.25106   0.00000  Uiso   1.00
C176   C     0.82244   0.09013   0.21107   0.00000  Uiso   1.00
C177   C     0.81597   0.41004   0.28186   0.00000  Uiso   1.00
C178   C     0.83033   0.04423   0.21220   0.00000  Uiso   1.00
C179   C     0.82380   0.45592   0.28326   0.00000  Uiso   1.00
C180   C     0.85886   0.02402   0.25303   0.00000  Uiso   1.00
C181   C     0.85824   0.47562   0.25507   0.00000  Uiso   1.00
C182   C     0.98833   0.28514   0.18037   0.00000  Uiso   1.00
C183   C     0.86319   0.21951   0.05608   0.00000  Uiso   1.00
C184   C     0.67830   0.28472   0.31972   0.00000  Uiso   1.00
C185   C     0.86426   0.27977   0.45229   0.00000  Uiso   1.00
C186   C     0.86323   0.21971   0.10588   0.00000  Uiso   1.00
C187   C     0.86430   0.27951   0.40250   0.00000  Uiso   1.00
C188   C     0.80305   0.28080   0.09851   0.00000  Uiso   1.00
C189   C     0.80194   0.22008   0.39297   0.00000  Uiso   1.00
C190   C     0.80159   0.28203   0.04829   0.00000  Uiso   1.00
H191   H     0.88716   0.11618   0.32265   0.00000  Uiso   1.00
H192   H     0.88916   0.30297   0.38677   0.00000  Uiso   1.00
H193   H     0.77991   0.30453   0.11573   0.00000  Uiso   1.00
H194   H     0.77798   0.19697   0.36924   0.00000  Uiso   1.00
H195   H     0.68398   0.30458   0.16287   0.00000  Uiso   1.00
H196   H     0.97666   0.25469   0.15856   0.00000  Uiso   1.00
H197   H     0.95362   0.30776   0.18055   0.00000  Uiso   1.00
H198   H     0.98264   0.30408   0.33727   0.00000  Uiso   1.00
H199   H     0.68992   0.25412   0.34144   0.00000  Uiso   1.00
H200   H     0.71301   0.30733   0.31966   0.00000  Uiso   1.00
H201   H     0.90153   0.49010   0.40698   0.00000  Uiso   1.00
H202   H     0.89652   0.38251   0.20021   0.00000  Uiso   1.00
H203   H     0.92546   0.00864   0.12379   0.00000  Uiso   1.00
H204   H     0.82515   0.37204   0.02107   0.00000  Uiso   1.00
H205   H     0.77274   0.12134   0.01235   0.00000  Uiso   1.00
H206   H     0.80004   0.10548   0.17940   0.00000  Uiso   1.00
H207   H     0.78922   0.39495   0.30374   0.00000  Uiso   1.00
H208   H     0.81279   0.02415   0.18183   0.00000  Uiso   1.00
H209   H     0.80200   0.47635   0.30540   0.00000  Uiso   1.00
H210   H     0.88725   0.19511   0.04069   0.00000  Uiso   1.00
H211   H     0.88922   0.30351   0.47444   0.00000  Uiso   1.00
H212   H     0.88725   0.19557   0.12833   0.00000  Uiso   1.00
N213   N     0.83333   0.24999   0.12623   0.00000  Uiso   1.00
N214   N     0.83333   0.25001   0.37376   0.00000  Uiso   1.00
O215   O     0.83334   0.18454   0.28974   0.00000  Uiso   1.00
O216   O     0.95429   0.06069   0.37135   0.00000  Uiso   1.00
O217   O     0.87794   0.00497   0.38034   0.00000  Uiso   1.00
O218   O     0.96272   0.00988   0.21876   0.00000  Uiso   1.00
O219   O     0.96950   0.43723   0.17916   0.00000  Uiso   1.00
O220   O     0.89811   0.49392   0.13994   0.00000  Uiso   1.00
O221   O     0.72734   0.30097   0.47270   0.00000  Uiso   1.00
O222   O     0.72700   0.34706   0.04440   0.00000  Uiso   1.00
O223   O     0.80140   0.36065   0.49250   0.00000  Uiso   1.00
O224   O     0.72583   0.20225   0.49811   0.00000  Uiso   1.00
O225   O     0.72312   0.15658   0.42552   0.00000  Uiso   1.00
O226   O     0.83333   0.31547   0.21026   0.00000  Uiso   1.00
O227   O     0.79762   0.14030   0.49732   0.00000  Uiso   1.00
O228   O     0.83334   0.18453   0.21026   0.00000  Uiso   1.00
O229   O     0.83333   0.31547   0.28974   0.00000  Uiso   1.00
O230   O     0.75725   0.25000   0.28044   0.00000  Uiso   1.00
O231   O     0.90942   0.25000   0.21955   0.00000  Uiso   1.00
O232   O     0.75725   0.25000   0.20096   0.00000  Uiso   1.00
O233   O     0.90942   0.25001   0.29903   0.00000  Uiso   1.00
O234   O     0.95301   0.48819   0.32994   0.00000  Uiso   1.00
S235   S     0.91911   0.02562   0.34445   0.00000  Uiso   1.00
S236   S     0.93169   0.47284   0.19110   0.00000  Uiso   1.00
S237   S     0.76185   0.32304   0.01414   0.00000  Uiso   1.00
S238   S     0.75905   0.17922   0.46570   0.00000  Uiso   1.00
Zn239  Zn    0.83333   0.25001   0.30307   0.00000  Uiso   1.00
Zn240  Zn    0.83333   0.25000   0.19693   0.00000  Uiso   1.00
C241   C     0.16770   0.66365   0.25019   0.00000  Uiso   1.00
C242   C     0.13370   0.71898   0.44277   0.00000  Uiso   1.00
C243   C     0.16544   0.75061   0.02643   0.00000  Uiso   1.00
C244   C     0.16538   0.74957   0.47321   0.00000  Uiso   1.00
C245   C     0.06752   0.75703   0.23767   0.00000  Uiso   1.00
C246   C     0.26582   0.75699   0.26232   0.00000  Uiso   1.00
C247   C     0.01319   0.77182   0.23092   0.00000  Uiso   1.00
C248   C     0.32012   0.77174   0.26911   0.00000  Uiso   1.00
C249   C     0.21401   0.54978   0.29304   0.00000  Uiso   1.00
C250   C     0.21907   0.94939   0.22538   0.00000  Uiso   1.00
C251   C     0.20451   0.59577   0.29204   0.00000  Uiso   1.00
C252   C     0.16741   0.83629   0.25006   0.00000  Uiso   1.00
C253   C     0.20951   0.90342   0.22307   0.00000  Uiso   1.00
C254   C     0.17519   0.61571   0.25135   0.00000  Uiso   1.00
C255   C     0.17462   0.88408   0.25106   0.00000  Uiso   1.00
C256   C     0.15577   0.59013   0.21107   0.00000  Uiso   1.00
C257   C     0.14930   0.91004   0.28186   0.00000  Uiso   1.00
C258   C     0.16366   0.54423   0.21220   0.00000  Uiso   1.00
C259   C     0.15713   0.95592   0.28326   0.00000  Uiso   1.00
C260   C     0.19220   0.52402   0.25303   0.00000  Uiso   1.00
C261   C     0.19158   0.97562   0.25507   0.00000  Uiso   1.00
C262   C     0.32166   0.78514   0.18037   0.00000  Uiso   1.00
C263   C     0.19652   0.71951   0.05608   0.00000  Uiso   1.00
C264   C     0.01163   0.78472   0.31972   0.00000  Uiso   1.00
C265   C     0.19759   0.77977   0.45229   0.00000  Uiso   1.00
C266   C     0.19657   0.71971   0.10588   0.00000  Uiso   1.00
C267   C     0.19763   0.77951   0.40250   0.00000  Uiso   1.00
C268   C     0.13638   0.78080   0.09851   0.00000  Uiso   1.00
C269   C     0.13527   0.72008   0.39297   0.00000  Uiso   1.00
C270   C     0.13492   0.78203   0.04829   0.00000  Uiso   1.00
H271   H     0.22049   0.61618   0.32265   0.00000  Uiso   1.00
H272   H     0.22250   0.80297   0.38677   0.00000  Uiso   1.00
H273   H     0.11325   0.80453   0.11573   0.00000  Uiso   1.00
H274   H     0.11131   0.69697   0.36924   0.00000  Uiso   1.00
H275   H     0.01732   0.80458   0.16287   0.00000  Uiso   1.00
H276   H     0.30999   0.75469   0.15856   0.00000  Uiso   1.00
H277   H     0.28695   0.80776   0.18055   0.00000  Uiso   1.00
H278   H     0.31598   0.80408   0.33727   0.00000  Uiso   1.00
H279   H     0.02326   0.75412   0.34144   0.00000  Uiso   1.00
H280   H     0.04635   0.80733   0.31966   0.00000  Uiso   1.00
H281   H     0.23486   0.99010   0.40698   0.00000  Uiso   1.00
H282   H     0.22986   0.88251   0.20021   0.00000  Uiso   1.00
H283   H     0.25879   0.50864   0.12379   0.00000  Uiso   1.00
H284   H     0.15848   0.87204   0.02107   0.00000  Uiso   1.00
H285   H     0.10607   0.62134   0.01235   0.00000  Uiso   1.00
H286   H     0.13337   0.60548   0.17940   0.00000  Uiso   1.00
H287   H     0.12255   0.89495   0.30374   0.00000  Uiso   1.00
H288   H     0.14612   0.52415   0.18183   0.00000  Uiso   1.00
H289   H     0.13533   0.97635   0.30540   0.00000  Uiso   1.00
H290   H     0.22059   0.69511   0.04069   0.00000  Uiso   1.00
H291   H     0.22255   0.80351   0.47444   0.00000  Uiso   1.00
H292   H     0.22059   0.69557   0.12833   0.00000  Uiso   1.00
N293   N     0.16667   0.74999   0.12623   0.00000  Uiso   1.00
N294   N     0.16667   0.75001   0.37376   0.00000  Uiso   1.00
O295   O     0.16667   0.68454   0.28974   0.00000  Uiso   1.00
O296   O     0.28762   0.56069   0.37135   0.00000  Uiso   1.00
O297   O     0.21128   0.50497   0.38034   0.00000  Uiso   1.00
O298   O     0.29605   0.50988   0.21876   0.00000  Uiso   1.00
O299   O     0.30283   0.93723   0.17916   0.00000  Uiso   1.00
O300   O     0.23144   0.99392   0.13994   0.00000  Uiso   1.00
O301   O     0.06068   0.80097   0.47270   0.00000  Uiso   1.00
O302   O     0.06034   0.84706   0.04440   0.00000  Uiso   1.00
O303   O     0.13474   0.86065   0.49250   0.00000  Uiso   1.00
O304   O     0.05916   0.70225   0.49811   0.00000  Uiso   1.00
O305   O     0.05645   0.65658   0.42552   0.00000  Uiso   1.00
O306   O     0.16666   0.81547   0.21026   0.00000  Uiso   1.00
O307   O     0.13095   0.64030   0.49732   0.00000  Uiso   1.00
O308   O     0.16667   0.68453   0.21026   0.00000  Uiso   1.00
O309   O     0.16666   0.81547   0.28974   0.00000  Uiso   1.00
O310   O     0.09058   0.75000   0.28044   0.00000  Uiso   1.00
O311   O     0.24275   0.75000   0.21955   0.00000  Uiso   1.00
O312   O     0.09058   0.75000   0.20096   0.00000  Uiso   1.00
O313   O     0.24275   0.75001   0.29903   0.00000  Uiso   1.00
O314   O     0.28634   0.98819   0.32994   0.00000  Uiso   1.00
S315   S     0.25245   0.52562   0.34445   0.00000  Uiso   1.00
S316   S     0.26503   0.97284   0.19110   0.00000  Uiso   1.00
S317   S     0.09519   0.82304   0.01414   0.00000  Uiso   1.00
S318   S     0.09239   0.67922   0.46570   0.00000  Uiso   1.00
Zn319  Zn    0.16667   0.75001   0.30307   0.00000  Uiso   1.00
Zn320  Zn    0.16667   0.75000   0.19693   0.00000  Uiso   1.00
C321   C     0.50104   0.66365   0.25019   0.00000  Uiso   1.00
C322   C     0.46704   0.71898   0.44277   0.00000  Uiso   1.00
C323   C     0.49878   0.75061   0.02643   0.00000  Uiso   1.00
C324   C     0.49871   0.74957   0.47321   0.00000  Uiso   1.00
C325   C     0.40085   0.75703   0.23767   0.00000  Uiso   1.00
C326   C     0.59915   0.75699   0.26232   0.00000  Uiso   1.00
C327   C     0.34653   0.77182   0.23092   0.00000  Uiso   1.00
C328   C     0.65345   0.77174   0.26911   0.00000  Uiso   1.00
C329   C     0.54734   0.54978   0.29304   0.00000  Uiso   1.00
C330   C     0.55240   0.94939   0.22538   0.00000  Uiso   1.00
C331   C     0.53784   0.59577   0.29204   0.00000  Uiso   1.00
C332   C     0.50074   0.83629   0.25006   0.00000  Uiso   1.00
C333   C     0.54284   0.90342   0.22307   0.00000  Uiso   1.00
C334   C     0.50852   0.61571   0.25135   0.00000  Uiso   1.00
C335   C     0.50796   0.88408   0.25106   0.00000  Uiso   1.00
C336   C     0.48911   0.59013   0.21107   0.00000  Uiso   1.00
C337   C     0.48263   0.91004   0.28186   0.00000  Uiso   1.00
C338   C     0.49700   0.54423   0.21220   0.00000  Uiso   1.00
C339   C     0.49047   0.95592   0.28326   0.00000  Uiso   1.00
C340   C     0.52553   0.52402   0.25303   0.00000  Uiso   1.00
C341   C     0.52491   0.97562   0.25507   0.00000  Uiso   1.00
C342   C     0.65499   0.78514   0.18037   0.00000  Uiso   1.00
C343   C     0.52985   0.71951   0.05608   0.00000  Uiso   1.00
C344   C     0.34497   0.78472   0.31972   0.00000  Uiso   1.00
C345   C     0.53093   0.77977   0.45229   0.00000  Uiso   1.00
C346   C     0.52990   0.71971   0.10588   0.00000  Uiso   1.00
C347   C     0.53096   0.77951   0.40250   0.00000  Uiso   1.00
C348   C     0.46972   0.78080   0.09851   0.00000  Uiso   1.00
C349   C     0.46860   0.72008   0.39297   0.00000  Uiso   1.00
C350   C     0.46826   0.78203   0.04829   0.00000  Uiso   1.00
H351   H     0.55383   0.61618   0.32265   0.00000  Uiso   1.00
H352   H     0.55583   0.80297   0.38677   0.00000  Uiso   1.00
H353   H     0.44658   0.80453   0.11573   0.00000  Uiso   1.00
H354   H     0.44465   0.69697   0.36924   0.00000  Uiso   1.00
H355   H     0.35065   0.80458   0.16287   0.00000  Uiso   1.00
H356   H     0.64333   0.75469   0.15856   0.00000  Uiso   1.00
H357   H     0.62028   0.80776   0.18055   0.00000  Uiso   1.00
H358   H     0.64931   0.80408   0.33727   0.00000  Uiso   1.00
H359   H     0.35659   0.75412   0.34144   0.00000  Uiso   1.00
H360   H     0.37968   0.80733   0.31966   0.00000  Uiso   1.00
H361   H     0.56819   0.99010   0.40698   0.00000  Uiso   1.00
H362   H     0.56319   0.88251   0.20021   0.00000  Uiso   1.00
H363   H     0.59213   0.50864   0.12379   0.00000  Uiso   1.00
H364   H     0.49182   0.87204   0.02107   0.00000  Uiso   1.00
H365   H     0.43941   0.62134   0.01235   0.00000  Uiso   1.00
H366   H     0.46671   0.60548   0.17940   0.00000  Uiso   1.00
H367   H     0.45588   0.89495   0.30374   0.00000  Uiso   1.00
H368   H     0.47946   0.52415   0.18183   0.00000  Uiso   1.00
H369   H     0.46867   0.97635   0.30540   0.00000  Uiso   1.00
H370   H     0.55392   0.69511   0.04069   0.00000  Uiso   1.00
H371   H     0.55589   0.80351   0.47444   0.00000  Uiso   1.00
H372   H     0.55392   0.69557   0.12833   0.00000  Uiso   1.00
N373   N     0.50000   0.74999   0.12623   0.00000  Uiso   1.00
N374   N     0.50000   0.75001   0.37376   0.00000  Uiso   1.00
O375   O     0.50000   0.68454   0.28974   0.00000  Uiso   1.00
O376   O     0.62095   0.56069   0.37135   0.00000  Uiso   1.00
O377   O     0.54461   0.50497   0.38034   0.00000  Uiso   1.00
O378   O     0.62939   0.50988   0.21876   0.00000  Uiso   1.00
O379   O     0.63617   0.93723   0.17916   0.00000  Uiso   1.00
O380   O     0.56477   0.99392   0.13994   0.00000  Uiso   1.00
O381   O     0.39401   0.80097   0.47270   0.00000  Uiso   1.00
O382   O     0.39367   0.84706   0.04440   0.00000  Uiso   1.00
O383   O     0.46807   0.86065   0.49250   0.00000  Uiso   1.00
O384   O     0.39249   0.70225   0.49811   0.00000  Uiso   1.00
O385   O     0.38978   0.65658   0.42552   0.00000  Uiso   1.00
O386   O     0.50000   0.81547   0.21026   0.00000  Uiso   1.00
O387   O     0.46429   0.64030   0.49732   0.00000  Uiso   1.00
O388   O     0.50000   0.68453   0.21026   0.00000  Uiso   1.00
O389   O     0.50000   0.81547   0.28974   0.00000  Uiso   1.00
O390   O     0.42392   0.75000   0.28044   0.00000  Uiso   1.00
O391   O     0.57608   0.75000   0.21955   0.00000  Uiso   1.00
O392   O     0.42392   0.75000   0.20096   0.00000  Uiso   1.00
O393   O     0.57608   0.75001   0.29903   0.00000  Uiso   1.00
O394   O     0.61968   0.98819   0.32994   0.00000  Uiso   1.00
S395   S     0.58578   0.52562   0.34445   0.00000  Uiso   1.00
S396   S     0.59836   0.97284   0.19110   0.00000  Uiso   1.00
S397   S     0.42852   0.82304   0.01414   0.00000  Uiso   1.00
S398   S     0.42572   0.67922   0.46570   0.00000  Uiso   1.00
Zn399  Zn    0.50000   0.75001   0.30307   0.00000  Uiso   1.00
Zn400  Zn    0.50000   0.75000   0.19693   0.00000  Uiso   1.00
C401   C     0.83437   0.66365   0.25019   0.00000  Uiso   1.00
C402   C     0.80037   0.71898   0.44277   0.00000  Uiso   1.00
C403   C     0.83211   0.75061   0.02643   0.00000  Uiso   1.00
C404   C     0.83205   0.74957   0.47321   0.00000  Uiso   1.00
C405   C     0.73418   0.75703   0.23767   0.00000  Uiso   1.00
C406   C     0.93248   0.75699   0.26232   0.00000  Uiso   1.00
C407   C     0.67986   0.77182   0.23092   0.00000  Uiso   1.00
C408   C     0.98679   0.77174   0.26911   0.00000  Uiso   1.00
C409   C     0.88067   0.54978   0.29304   0.00000  Uiso   1.00
C410   C     0.88574   0.94939   0.22538   0.00000  Uiso   1.00
C411   C     0.87117   0.59577   0.29204   0.00000  Uiso   1.00
C412   C     0.83407   0.83629   0.25006   0.00000  Uiso   1.00
C413   C     0.87618   0.90342   0.22307   0.00000  Uiso   1.00
C414   C     0.84186   0.61571   0.25135   0.00000  Uiso   1.00
C415   C     0.84129   0.88408   0.25106   0.00000  Uiso   1.00
C416   C     0.82244   0.59013   0.21107   0.00000  Uiso   1.00
C417   C     0.81597   0.91004   0.28186   0.00000  Uiso   1.00
C418   C     0.83033   0.54423   0.21220   0.00000  Uiso   1.00
C419   C     0.82380   0.95592   0.28326   0.00000  Uiso   1.00
C420   C     0.85886   0.52402   0.25303   0.00000  Uiso   1.00
C421   C     0.85824   0.97562   0.25507   0.00000  Uiso   1.00
C422   C     0.98833   0.78514   0.18037   0.00000  Uiso   1.00
C423   C     0.86319   0.71951   0.05608   0.00000  Uiso   1.00
C424   C     0.67830   0.78472   0.31972   0.00000  Uiso   1.00
C425   C     0.86426   0.77977   0.45229   0.00000  Uiso   1.00
C426   C     0.86323   0.71971   0.10588   0.00000  Uiso   1.00
C427   C     0.86430   0.77951   0.40250   0.00000  Uiso   1.00
C428   C     0.80305   0.78080   0.09851   0.00000  Uiso   1.00
C429   C     0.80194   0.72008   0.39297   0.00000  Uiso   1.00
C430   C     0.80159   0.78203   0.04829   0.00000  Uiso   1.00
H431   H     0.88716   0.61618   0.32265   0.00000  Uiso   1.00
H432   H     0.88916   0.80297   0.38677   0.00000  Uiso   1.00
H433   H     0.77991   0.80453   0.11573   0.00000  Uiso   1.00
H434   H     0.77798   0.69697   0.36924   0.00000  Uiso   1.00
H435   H     0.68398   0.80458   0.16287   0.00000  Uiso   1.00
H436   H     0.97666   0.75469   0.15856   0.00000  Uiso   1.00
H437   H     0.95362   0.80776   0.18055   0.00000  Uiso   1.00
H438   H     0.98264   0.80408   0.33727   0.00000  Uiso   1.00
H439   H     0.68992   0.75412   0.34144   0.00000  Uiso   1.00
H440   H     0.71301   0.80733   0.31966   0.00000  Uiso   1.00
H441   H     0.90153   0.99010   0.40698   0.00000  Uiso   1.00
H442   H     0.89652   0.88251   0.20021   0.00000  Uiso   1.00
H443   H     0.92546   0.50864   0.12379   0.00000  Uiso   1.00
H444   H     0.82515   0.87204   0.02107   0.00000  Uiso   1.00
H445   H     0.77274   0.62134   0.01235   0.00000  Uiso   1.00
H446   H     0.80004   0.60548   0.17940   0.00000  Uiso   1.00
H447   H     0.78922   0.89495   0.30374   0.00000  Uiso   1.00
H448   H     0.81279   0.52415   0.18183   0.00000  Uiso   1.00
H449   H     0.80200   0.97635   0.30540   0.00000  Uiso   1.00
H450   H     0.88725   0.69511   0.04069   0.00000  Uiso   1.00
H451   H     0.88922   0.80351   0.47444   0.00000  Uiso   1.00
H452   H     0.88725   0.69557   0.12833   0.00000  Uiso   1.00
N453   N     0.83333   0.74999   0.12623   0.00000  Uiso   1.00
N454   N     0.83333   0.75001   0.37376   0.00000  Uiso   1.00
O455   O     0.83334   0.68454   0.28974   0.00000  Uiso   1.00
O456   O     0.95429   0.56069   0.37135   0.00000  Uiso   1.00
O457   O     0.87794   0.50497   0.38034   0.00000  Uiso   1.00
O458   O     0.96272   0.50988   0.21876   0.00000  Uiso   1.00
O459   O     0.96950   0.93723   0.17916   0.00000  Uiso   1.00
O460   O     0.89811   0.99392   0.13994   0.00000  Uiso   1.00
O461   O     0.72734   0.80097   0.47270   0.00000  Uiso   1.00
O462   O     0.72700   0.84706   0.04440   0.00000  Uiso   1.00
O463   O     0.80140   0.86065   0.49250   0.00000  Uiso   1.00
O464   O     0.72583   0.70225   0.49811   0.00000  Uiso   1.00
O465   O     0.72312   0.65658   0.42552   0.00000  Uiso   1.00
O466   O     0.83333   0.81547   0.21026   0.00000  Uiso   1.00
O467   O     0.79762   0.64030   0.49732   0.00000  Uiso   1.00
O468   O     0.83334   0.68453   0.21026   0.00000  Uiso   1.00
O469   O     0.83333   0.81547   0.28974   0.00000  Uiso   1.00
O470   O     0.75725   0.75000   0.28044   0.00000  Uiso   1.00
O471   O     0.90942   0.75000   0.21955   0.00000  Uiso   1.00
O472   O     0.75725   0.75000   0.20096   0.00000  Uiso   1.00
O473   O     0.90942   0.75001   0.29903   0.00000  Uiso   1.00
O474   O     0.95301   0.98819   0.32994   0.00000  Uiso   1.00
S475   S     0.91911   0.52562   0.34445   0.00000  Uiso   1.00
S476   S     0.93169   0.97284   0.19110   0.00000  Uiso   1.00
S477   S     0.76185   0.82304   0.01414   0.00000  Uiso   1.00
S478   S     0.75905   0.67922   0.46570   0.00000  Uiso   1.00
Zn479  Zn    0.83333   0.75001   0.30307   0.00000  Uiso   1.00
Zn480  Zn    0.83333   0.75000   0.19693   0.00000  Uiso   1.00
C481   C     0.16770   0.16365   0.75019   0.00000  Uiso   1.00
C482   C     0.13370   0.21898   0.94277   0.00000  Uiso   1.00
C483   C     0.16544   0.25061   0.52643   0.00000  Uiso   1.00
C484   C     0.16538   0.24957   0.97321   0.00000  Uiso   1.00
C485   C     0.06752   0.25703   0.73767   0.00000  Uiso   1.00
C486   C     0.26582   0.25699   0.76232   0.00000  Uiso   1.00
C487   C     0.01319   0.27182   0.73092   0.00000  Uiso   1.00
C488   C     0.32012   0.27174   0.76911   0.00000  Uiso   1.00
C489   C     0.21401   0.04978   0.79304   0.00000  Uiso   1.00
C490   C     0.21907   0.44939   0.72538   0.00000  Uiso   1.00
C491   C     0.20451   0.09577   0.79204   0.00000  Uiso   1.00
C492   C     0.16741   0.33629   0.75006   0.00000  Uiso   1.00
C493   C     0.20951   0.40342   0.72307   0.00000  Uiso   1.00
C494   C     0.17519   0.11571   0.75135   0.00000  Uiso   1.00
C495   C     0.17462   0.38408   0.75106   0.00000  Uiso   1.00
C496   C     0.15577   0.09013   0.71107   0.00000  Uiso   1.00
C497   C     0.14930   0.41004   0.78186   0.00000  Uiso   1.00
C498   C     0.16366   0.04423   0.71220   0.00000  Uiso   1.00
C499   C     0.15713   0.45592   0.78326   0.00000  Uiso   1.00
C500   C     0.19220   0.02402   0.75303   0.00000  Uiso   1.00
C501   C     0.19158   0.47562   0.75507   0.00000  Uiso   1.00
C502   C     0.32166   0.28514   0.68037   0.00000  Uiso   1.00
C503   C     0.19652   0.21951   0.55608   0.00000  Uiso   1.00
C504   C     0.01163   0.28472   0.81972   0.00000  Uiso   1.00
C505   C     0.19759   0.27977   0.95229   0.00000  Uiso   1.00
C506   C     0.19657   0.21971   0.60588   0.00000  Uiso   1.00
C507   C     0.19763   0.27951   0.90250   0.00000  Uiso   1.00
C508   C     0.13638   0.28080   0.59851   0.00000  Uiso   1.00
C509   C     0.13527   0.22008   0.89297   0.00000  Uiso   1.00
C510   C     0.13492   0.28203   0.54829   0.00000  Uiso   1.00
H511   H     0.22049   0.11618   0.82265   0.00000  Uiso   1.00
H512   H     0.22250   0.30297   0.88677   0.00000  Uiso   1.00
H513   H     0.11325   0.30453   0.61573   0.00000  Uiso   1.00
H514   H     0.11131   0.19697   0.86924   0.00000  Uiso   1.00
H515   H     0.01732   0.30458   0.66287   0.00000  Uiso   1.00
H516   H     0.30999   0.25469   0.65856   0.00000  Uiso   1.00
H517   H     0.28695   0.30776   0.68055   0.00000  Uiso   1.00
H518   H     0.31598   0.30408   0.83727   0.00000  Uiso   1.00
H519   H     0.02326   0.25412   0.84144   0.00000  Uiso   1.00
H520   H     0.04635   0.30733   0.81966   0.00000  Uiso   1.00
H521   H     0.23486   0.49010   0.90698   0.00000  Uiso   1.00
H522   H     0.22986   0.38251   0.70021   0.00000  Uiso   1.00
H523   H     0.25879   0.00864   0.62379   0.00000  Uiso   1.00
H524   H     0.15848   0.37204   0.52107   0.00000  Uiso   1.00
H525   H     0.10607   0.12134   0.51235   0.00000  Uiso   1.00
H526   H     0.13337   0.10548   0.67940   0.00000  Uiso   1.00
H527   H     0.12255   0.39495   0.80374   0.00000  Uiso   1.00
H528   H     0.14612   0.02415   0.68183   0.00000  Uiso   1.00
H529   H     0.13533   0.47635   0.80540   0.00000  Uiso   1.00
H530   H     0.22059   0.19511   0.54069   0.00000  Uiso   1.00
H531   H     0.22255   0.30351   0.97444   0.00000  Uiso   1.00
H532   H     0.22059   0.19557   0.62833   0.00000  Uiso   1.00
N533   N     0.16667   0.24999   0.62623   0.00000  Uiso   1.00
N534   N     0.16667   0.25001   0.87376   0.00000  Uiso   1.00
O535   O     0.16667   0.18454   0.78974   0.00000  Uiso   1.00
O536   O     0.28762   0.06069   0.87135   0.00000  Uiso   1.00
O537   O     0.21128   0.00497   0.88034   0.00000  Uiso   1.00
O538   O     0.29605   0.00988   0.71876   0.00000  Uiso   1.00
O539   O     0.30283   0.43723   0.67916   0.00000  Uiso   1.00
O540   O     0.23144   0.49392   0.63994   0.00000  Uiso   1.00
O541   O     0.06068   0.30097   0.97270   0.00000  Uiso   1.00
O542   O     0.06034   0.34706   0.54440   0.00000  Uiso   1.00
O543   O     0.13474   0.36065   0.99250   0.00000  Uiso   1.00
O544   O     0.05916   0.20225   0.99811   0.00000  Uiso   1.00
O545   O     0.05645   0.15658   0.92552   0.00000  Uiso   1.00
O546   O     0.16666   0.31547   0.71026   0.00000  Uiso   1.00
O547   O     0.13095   0.14030   0.99732   0.00000  Uiso   1.00
O548   O     0.16667   0.18453   0.71026   0.00000  Uiso   1.00
O549   O     0.16666   0.31547   0.78974   0.00000  Uiso   1.00
O550   O     0.09058   0.25000   0.78044   0.00000  Uiso   1.00
O551   O     0.24275   0.25000   0.71955   0.00000  Uiso   1.00
O552   O     0.09058   0.25000   0.70096   0.00000  Uiso   1.00
O553   O     0.24275   0.25001   0.79903   0.00000  Uiso   1.00
O554   O     0.28634   0.48819   0.82994   0.00000  Uiso   1.00
S555   S     0.25245   0.02562   0.84445   0.00000  Uiso   1.00
S556   S     0.26503   0.47284   0.69110   0.00000  Uiso   1.00
S557   S     0.09519   0.32304   0.51414   0.00000  Uiso   1.00
S558   S     0.09239   0.17922   0.96570   0.00000  Uiso   1.00
Zn559  Zn    0.16667   0.25001   0.80307   0.00000  Uiso   1.00
Zn560  Zn    0.16667   0.25000   0.69693   0.00000  Uiso   1.00
C561   C     0.50104   0.16365   0.75019   0.00000  Uiso   1.00
C562   C     0.46704   0.21898   0.94277   0.00000  Uiso   1.00
C563   C     0.49878   0.25061   0.52643   0.00000  Uiso   1.00
C564   C     0.49871   0.24957   0.97321   0.00000  Uiso   1.00
C565   C     0.40085   0.25703   0.73767   0.00000  Uiso   1.00
C566   C     0.59915   0.25699   0.76232   0.00000  Uiso   1.00
C567   C     0.34653   0.27182   0.73092   0.00000  Uiso   1.00
C568   C     0.65345   0.27174   0.76911   0.00000  Uiso   1.00
C569   C     0.54734   0.04978   0.79304   0.00000  Uiso   1.00
C570   C     0.55240   0.44939   0.72538   0.00000  Uiso   1.00
C571   C     0.53784   0.09577   0.79204   0.00000  Uiso   1.00
C572   C     0.50074   0.33629   0.75006   0.00000  Uiso   1.00
C573   C     0.54284   0.40342   0.72307   0.00000  Uiso   1.00
C574   C     0.50852   0.11571   0.75135   0.00000  Uiso   1.00
C575   C     0.50796   0.38408   0.75106   0.00000  Uiso   1.00
C576   C     0.48911   0.09013   0.71107   0.00000  Uiso   1.00
C577   C     0.48263   0.41004   0.78186   0.00000  Uiso   1.00
C578   C     0.49700   0.04423   0.71220   0.00000  Uiso   1.00
C579   C     0.49047   0.45592   0.78326   0.00000  Uiso   1.00
C580   C     0.52553   0.02402   0.75303   0.00000  Uiso   1.00
C581   C     0.52491   0.47562   0.75507   0.00000  Uiso   1.00
C582   C     0.65499   0.28514   0.68037   0.00000  Uiso   1.00
C583   C     0.52985   0.21951   0.55608   0.00000  Uiso   1.00
C584   C     0.34497   0.28472   0.81972   0.00000  Uiso   1.00
C585   C     0.53093   0.27977   0.95229   0.00000  Uiso   1.00
C586   C     0.52990   0.21971   0.60588   0.00000  Uiso   1.00
C587   C     0.53096   0.27951   0.90250   0.00000  Uiso   1.00
C588   C     0.46972   0.28080   0.59851   0.00000  Uiso   1.00
C589   C     0.46860   0.22008   0.89297   0.00000  Uiso   1.00
C590   C     0.46826   0.28203   0.54829   0.00000  Uiso   1.00
H591   H     0.55383   0.11618   0.82265   0.00000  Uiso   1.00
H592   H     0.55583   0.30297   0.88677   0.00000  Uiso   1.00
H593   H     0.44658   0.30453   0.61573   0.00000  Uiso   1.00
H594   H     0.44465   0.19697   0.86924   0.00000  Uiso   1.00
H595   H     0.35065   0.30458   0.66287   0.00000  Uiso   1.00
H596   H     0.64333   0.25469   0.65856   0.00000  Uiso   1.00
H597   H     0.62028   0.30776   0.68055   0.00000  Uiso   1.00
H598   H     0.64931   0.30408   0.83727   0.00000  Uiso   1.00
H599   H     0.35659   0.25412   0.84144   0.00000  Uiso   1.00
H600   H     0.37968   0.30733   0.81966   0.00000  Uiso   1.00
H601   H     0.56819   0.49010   0.90698   0.00000  Uiso   1.00
H602   H     0.56319   0.38251   0.70021   0.00000  Uiso   1.00
H603   H     0.59213   0.00864   0.62379   0.00000  Uiso   1.00
H604   H     0.49182   0.37204   0.52107   0.00000  Uiso   1.00
H605   H     0.43941   0.12134   0.51235   0.00000  Uiso   1.00
H606   H     0.46671   0.10548   0.67940   0.00000  Uiso   1.00
H607   H     0.45588   0.39495   0.80374   0.00000  Uiso   1.00
H608   H     0.47946   0.02415   0.68183   0.00000  Uiso   1.00
H609   H     0.46867   0.47635   0.80540   0.00000  Uiso   1.00
H610   H     0.55392   0.19511   0.54069   0.00000  Uiso   1.00
H611   H     0.55589   0.30351   0.97444   0.00000  Uiso   1.00
H612   H     0.55392   0.19557   0.62833   0.00000  Uiso   1.00
N613   N     0.50000   0.24999   0.62623   0.00000  Uiso   1.00
N614   N     0.50000   0.25001   0.87376   0.00000  Uiso   1.00
O615   O     0.50000   0.18454   0.78974   0.00000  Uiso   1.00
O616   O     0.62095   0.06069   0.87135   0.00000  Uiso   1.00
O617   O     0.54461   0.00497   0.88034   0.00000  Uiso   1.00
O618   O     0.62939   0.00988   0.71876   0.00000  Uiso   1.00
O619   O     0.63617   0.43723   0.67916   0.00000  Uiso   1.00
O620   O     0.56477   0.49392   0.63994   0.00000  Uiso   1.00
O621   O     0.39401   0.30097   0.97270   0.00000  Uiso   1.00
O622   O     0.39367   0.34706   0.54440   0.00000  Uiso   1.00
O623   O     0.46807   0.36065   0.99250   0.00000  Uiso   1.00
O624   O     0.39249   0.20225   0.99811   0.00000  Uiso   1.00
O625   O     0.38978   0.15658   0.92552   0.00000  Uiso   1.00
O626   O     0.50000   0.31547   0.71026   0.00000  Uiso   1.00
O627   O     0.46429   0.14030   0.99732   0.00000  Uiso   1.00
O628   O     0.50000   0.18453   0.71026   0.00000  Uiso   1.00
O629   O     0.50000   0.31547   0.78974   0.00000  Uiso   1.00
O630   O     0.42392   0.25000   0.78044   0.00000  Uiso   1.00
O631   O     0.57608   0.25000   0.71955   0.00000  Uiso   1.00
O632   O     0.42392   0.25000   0.70096   0.00000  Uiso   1.00
O633   O     0.57608   0.25001   0.79903   0.00000  Uiso   1.00
O634   O     0.61968   0.48819   0.82994   0.00000  Uiso   1.00
S635   S     0.58578   0.02562   0.84445   0.00000  Uiso   1.00
S636   S     0.59836   0.47284   0.69110   0.00000  Uiso   1.00
S637   S     0.42852   0.32304   0.51414   0.00000  Uiso   1.00
S638   S     0.42572   0.17922   0.96570   0.00000  Uiso   1.00
Zn639  Zn    0.50000   0.25001   0.80307   0.00000  Uiso   1.00
Zn640  Zn    0.50000   0.25000   0.69693   0.00000  Uiso   1.00
C641   C     0.83437   0.16365   0.75019   0.00000  Uiso   1.00
C642   C     0.80037   0.21898   0.94277   0.00000  Uiso   1.00
C643   C     0.83211   0.25061   0.52643   0.00000  Uiso   1.00
C644   C     0.83205   0.24957   0.97321   0.00000  Uiso   1.00
C645   C     0.73418   0.25703   0.73767   0.00000  Uiso   1.00
C646   C     0.93248   0.25699   0.76232   0.00000  Uiso   1.00
C647   C     0.67986   0.27182   0.73092   0.00000  Uiso   1.00
C648   C     0.98679   0.27174   0.76911   0.00000  Uiso   1.00
C649   C     0.88067   0.04978   0.79304   0.00000  Uiso   1.00
C650   C     0.88574   0.44939   0.72538   0.00000  Uiso   1.00
C651   C     0.87117   0.09577   0.79204   0.00000  Uiso   1.00
C652   C     0.83407   0.33629   0.75006   0.00000  Uiso   1.00
C653   C     0.87618   0.40342   0.72307   0.00000  Uiso   1.00
C654   C     0.84186   0.11571   0.75135   0.00000  Uiso   1.00
C655   C     0.84129   0.38408   0.75106   0.00000  Uiso   1.00
C656   C     0.82244   0.09013   0.71107   0.00000  Uiso   1.00
C657   C     0.81597   0.41004   0.78186   0.00000  Uiso   1.00
C658   C     0.83033   0.04423   0.71220   0.00000  Uiso   1.00
C659   C     0.82380   0.45592   0.78326   0.00000  Uiso   1.00
C660   C     0.85886   0.02402   0.75303   0.00000  Uiso   1.00
C661   C     0.85824   0.47562   0.75507   0.00000  Uiso   1.00
C662   C     0.98833   0.28514   0.68037   0.00000  Uiso   1.00
C663   C     0.86319   0.21951   0.55608   0.00000  Uiso   1.00
C664   C     0.67830   0.28472   0.81972   0.00000  Uiso   1.00
C665   C     0.86426   0.27977   0.95229   0.00000  Uiso   1.00
C666   C     0.86323   0.21971   0.60588   0.00000  Uiso   1.00
C667   C     0.86430   0.27951   0.90250   0.00000  Uiso   1.00
C668   C     0.80305   0.28080   0.59851   0.00000  Uiso   1.00
C669   C     0.80194   0.22008   0.89297   0.00000  Uiso   1.00
C670   C     0.80159   0.28203   0.54829   0.00000  Uiso   1.00
H671   H     0.88716   0.11618   0.82265   0.00000  Uiso   1.00
H672   H     0.88916   0.30297   0.88677   0.00000  Uiso   1.00
H673   H     0.77991   0.30453   0.61573   0.00000  Uiso   1.00
H674   H     0.77798   0.19697   0.86924   0.00000  Uiso   1.00
H675   H     0.68398   0.30458   0.66287   0.00000  Uiso   1.00
H676   H     0.97666   0.25469   0.65856   0.00000  Uiso   1.00
H677   H     0.95362   0.30776   0.68055   0.00000  Uiso   1.00
H678   H     0.98264   0.30408   0.83727   0.00000  Uiso   1.00
H679   H     0.68992   0.25412   0.84144   0.00000  Uiso   1.00
H680   H     0.71301   0.30733   0.81966   0.00000  Uiso   1.00
H681   H     0.90153   0.49010   0.90698   0.00000  Uiso   1.00
H682   H     0.89652   0.38251   0.70021   0.00000  Uiso   1.00
H683   H     0.92546   0.00864   0.62379   0.00000  Uiso   1.00
H684   H     0.82515   0.37204   0.52107   0.00000  Uiso   1.00
H685   H     0.77274   0.12134   0.51235   0.00000  Uiso   1.00
H686   H     0.80004   0.10548   0.67940   0.00000  Uiso   1.00
H687   H     0.78922   0.39495   0.80374   0.00000  Uiso   1.00
H688   H     0.81279   0.02415   0.68183   0.00000  Uiso   1.00
H689   H     0.80200   0.47635   0.80540   0.00000  Uiso   1.00
H690   H     0.88725   0.19511   0.54069   0.00000  Uiso   1.00
H691   H     0.88922   0.30351   0.97444   0.00000  Uiso   1.00
H692   H     0.88725   0.19557   0.62833   0.00000  Uiso   1.00
N693   N     0.83333   0.24999   0.62623   0.00000  Uiso   1.00
N694   N     0.83333   0.25001   0.87376   0.00000  Uiso   1.00
O695   O     0.83334   0.18454   0.78974   0.00000  Uiso   1.00
O696   O     0.95429   0.06069   0.87135   0.00000  Uiso   1.00
O697   O     0.87794   0.00497   0.88034   0.00000  Uiso   1.00
O698   O     0.96272   0.00988   0.71876   0.00000  Uiso   1.00
O699   O     0.96950   0.43723   0.67916   0.00000  Uiso   1.00
O700   O     0.89811   0.49392   0.63994   0.00000  Uiso   1.00
O701   O     0.72734   0.30097   0.97270   0.00000  Uiso   1.00
O702   O     0.72700   0.34706   0.54440   0.00000  Uiso   1.00
O703   O     0.80140   0.36065   0.99250   0.00000  Uiso   1.00
O704   O     0.72583   0.20225   0.99811   0.00000  Uiso   1.00
O705   O     0.72312   0.15658   0.92552   0.00000  Uiso   1.00
O706   O     0.83333   0.31547   0.71026   0.00000  Uiso   1.00
O707   O     0.79762   0.14030   0.99732   0.00000  Uiso   1.00
O708   O     0.83334   0.18453   0.71026   0.00000  Uiso   1.00
O709   O     0.83333   0.31547   0.78974   0.00000  Uiso   1.00
O710   O     0.75725   0.25000   0.78044   0.00000  Uiso   1.00
O711   O     0.90942   0.25000   0.71955   0.00000  Uiso   1.00
O712   O     0.75725   0.25000   0.70096   0.00000  Uiso   1.00
O713   O     0.90942   0.25001   0.79903   0.00000  Uiso   1.00
O714   O     0.95301   0.48819   0.82994   0.00000  Uiso   1.00
S715   S     0.91911   0.02562   0.84445   0.00000  Uiso   1.00
S716   S     0.93169   0.47284   0.69110   0.00000  Uiso   1.00
S717   S     0.76185   0.32304   0.51414   0.00000  Uiso   1.00
S718   S     0.75905   0.17922   0.96570   0.00000  Uiso   1.00
Zn719  Zn    0.83333   0.25001   0.80307   0.00000  Uiso   1.00
Zn720  Zn    0.83333   0.25000   0.69693   0.00000  Uiso   1.00
C721   C     0.16770   0.66365   0.75019   0.00000  Uiso   1.00
C722   C     0.13370   0.71898   0.94277   0.00000  Uiso   1.00
C723   C     0.16544   0.75061   0.52643   0.00000  Uiso   1.00
C724   C     0.16538   0.74957   0.97321   0.00000  Uiso   1.00
C725   C     0.06752   0.75703   0.73767   0.00000  Uiso   1.00
C726   C     0.26582   0.75699   0.76232   0.00000  Uiso   1.00
C727   C     0.01319   0.77182   0.73092   0.00000  Uiso   1.00
C728   C     0.32012   0.77174   0.76911   0.00000  Uiso   1.00
C729   C     0.21401   0.54978   0.79304   0.00000  Uiso   1.00
C730   C     0.21907   0.94939   0.72538   0.00000  Uiso   1.00
C731   C     0.20451   0.59577   0.79204   0.00000  Uiso   1.00
C732   C     0.16741   0.83629   0.75006   0.00000  Uiso   1.00
C733   C     0.20951   0.90342   0.72307   0.00000  Uiso   1.00
C734   C     0.17519   0.61571   0.75135   0.00000  Uiso   1.00
C735   C     0.17462   0.88408   0.75106   0.00000  Uiso   1.00
C736   C     0.15577   0.59013   0.71107   0.00000  Uiso   1.00
C737   C     0.14930   0.91004   0.78186   0.00000  Uiso   1.00
C738   C     0.16366   0.54423   0.71220   0.00000  Uiso   1.00
C739   C     0.15713   0.95592   0.78326   0.00000  Uiso   1.00
C740   C     0.19220   0.52402   0.75303   0.00000  Uiso   1.00
C741   C     0.19158   0.97562   0.75507   0.00000  Uiso   1.00
C742   C     0.32166   0.78514   0.68037   0.00000  Uiso   1.00
C743   C     0.19652   0.71951   0.55608   0.00000  Uiso   1.00
C744   C     0.01163   0.78472   0.81972   0.00000  Uiso   1.00
C745   C     0.19759   0.77977   0.95229   0.00000  Uiso   1.00
C746   C     0.19657   0.71971   0.60588   0.00000  Uiso   1.00
C747   C     0.19763   0.77951   0.90250   0.00000  Uiso   1.00
C748   C     0.13638   0.78080   0.59851   0.00000  Uiso   1.00
C749   C     0.13527   0.72008   0.89297   0.00000  Uiso   1.00
C750   C     0.13492   0.78203   0.54829   0.00000  Uiso   1.00
H751   H     0.22049   0.61618   0.82265   0.00000  Uiso   1.00
H752   H     0.22250   0.80297   0.88677   0.00000  Uiso   1.00
H753   H     0.11325   0.80453   0.61573   0.00000  Uiso   1.00
H754   H     0.11131   0.69697   0.86924   0.00000  Uiso   1.00
H755   H     0.01732   0.80458   0.66287   0.00000  Uiso   1.00
H756   H     0.30999   0.75469   0.65856   0.00000  Uiso   1.00
H757   H     0.28695   0.80776   0.68055   0.00000  Uiso   1.00
H758   H     0.31598   0.80408   0.83727   0.00000  Uiso   1.00
H759   H     0.02326   0.75412   0.84144   0.00000  Uiso   1.00
H760   H     0.04635   0.80733   0.81966   0.00000  Uiso   1.00
H761   H     0.23486   0.99010   0.90698   0.00000  Uiso   1.00
H762   H     0.22986   0.88251   0.70021   0.00000  Uiso   1.00
H763   H     0.25879   0.50864   0.62379   0.00000  Uiso   1.00
H764   H     0.15848   0.87204   0.52107   0.00000  Uiso   1.00
H765   H     0.10607   0.62134   0.51235   0.00000  Uiso   1.00
H766   H     0.13337   0.60548   0.67940   0.00000  Uiso   1.00
H767   H     0.12255   0.89495   0.80374   0.00000  Uiso   1.00
H768   H     0.14612   0.52415   0.68183   0.00000  Uiso   1.00
H769   H     0.13533   0.97635   0.80540   0.00000  Uiso   1.00
H770   H     0.22059   0.69511   0.54069   0.00000  Uiso   1.00
H771   H     0.22255   0.80351   0.97444   0.00000  Uiso   1.00
H772   H     0.22059   0.69557   0.62833   0.00000  Uiso   1.00
N773   N     0.16667   0.74999   0.62623   0.00000  Uiso   1.00
N774   N     0.16667   0.75001   0.87376   0.00000  Uiso   1.00
O775   O     0.16667   0.68454   0.78974   0.00000  Uiso   1.00
O776   O     0.28762   0.56069   0.87135   0.00000  Uiso   1.00
O777   O     0.21128   0.50497   0.88034   0.00000  Uiso   1.00
O778   O     0.29605   0.50988   0.71876   0.00000  Uiso   1.00
O779   O     0.30283   0.93723   0.67916   0.00000  Uiso   1.00
O780   O     0.23144   0.99392   0.63994   0.00000  Uiso   1.00
O781   O     0.06068   0.80097   0.97270   0.00000  Uiso   1.00
O782   O     0.06034   0.84706   0.54440   0.00000  Uiso   1.00
O783   O     0.13474   0.86065   0.99250   0.00000  Uiso   1.00
O784   O     0.05916   0.70225   0.99811   0.00000  Uiso   1.00
O785   O     0.05645   0.65658   0.92552   0.00000  Uiso   1.00
O786   O     0.16666   0.81547   0.71026   0.00000  Uiso   1.00
O787   O     0.13095   0.64030   0.99732   0.00000  Uiso   1.00
O788   O     0.16667   0.68453   0.71026   0.00000  Uiso   1.00
O789   O     0.16666   0.81547   0.78974   0.00000  Uiso   1.00
O790   O     0.09058   0.75000   0.78044   0.00000  Uiso   1.00
O791   O     0.24275   0.75000   0.71955   0.00000  Uiso   1.00
O792   O     0.09058   0.75000   0.70096   0.00000  Uiso   1.00
O793   O     0.24275   0.75001   0.79903   0.00000  Uiso   1.00
O794   O     0.28634   0.98819   0.82994   0.00000  Uiso   1.00
S795   S     0.25245   0.52562   0.84445   0.00000  Uiso   1.00
S796   S     0.26503   0.97284   0.69110   0.00000  Uiso   1.00
S797   S     0.09519   0.82304   0.51414   0.00000  Uiso   1.00
S798   S     0.09239   0.67922   0.96570   0.00000  Uiso   1.00
Zn799  Zn    0.16667   0.75001   0.80307   0.00000  Uiso   1.00
Zn800  Zn    0.16667   0.75000   0.69693   0.00000  Uiso   1.00
C801   C     0.50104   0.66365   0.75019   0.00000  Uiso   1.00
C802   C     0.46704   0.71898   0.94277   0.00000  Uiso   1.00
C803   C     0.49878   0.75061   0.52643   0.00000  Uiso   1.00
C804   C     0.49871   0.74957   0.97321   0.00000  Uiso   1.00
C805   C     0.40085   0.75703   0.73767   0.00000  Uiso   1.00
C806   C     0.59915   0.75699   0.76232   0.00000  Uiso   1.00
C807   C     0.34653   0.77182   0.73092   0.00000  Uiso   1.00
C808   C     0.65345   0.77174   0.76911   0.00000  Uiso   1.00
C809   C     0.54734   0.54978   0.79304   0.00000  Uiso   1.00
C810   C     0.55240   0.94939   0.72538   0.00000  Uiso   1.00
C811   C     0.53784   0.59577   0.79204   0.00000  Uiso   1.00
C812   C     0.50074   0.83629   0.75006   0.00000  Uiso   1.00
C813   C     0.54284   0.90342   0.72307   0.00000  Uiso   1.00
C814   C     0.50852   0.61571   0.75135   0.00000  Uiso   1.00
C815   C     0.50796   0.88408   0.75106   0.00000  Uiso   1.00
C816   C     0.48911   0.59013   0.71107   0.00000  Uiso   1.00
C817   C     0.48263   0.91004   0.78186   0.00000  Uiso   1.00
C818   C     0.49700   0.54423   0.71220   0.00000  Uiso   1.00
C819   C     0.49047   0.95592   0.78326   0.00000  Uiso   1.00
C820   C     0.52553   0.52402   0.75303   0.00000  Uiso   1.00
C821   C     0.52491   0.97562   0.75507   0.00000  Uiso   1.00
C822   C     0.65499   0.78514   0.68037   0.00000  Uiso   1.00
C823   C     0.52985   0.71951   0.55608   0.00000  Uiso   1.00
C824   C     0.34497   0.78472   0.81972   0.00000  Uiso   1.00
C825   C     0.53093   0.77977   0.95229   0.00000  Uiso   1.00
C826   C     0.52990   0.71971   0.60588   0.00000  Uiso   1.00
C827   C     0.53096   0.77951   0.90250   0.00000  Uiso   1.00
C828   C     0.46972   0.78080   0.59851   0.00000  Uiso   1.00
C829   C     0.46860   0.72008   0.89297   0.00000  Uiso   1.00
C830   C     0.46826   0.78203   0.54829   0.00000  Uiso   1.00
H831   H     0.55383   0.61618   0.82265   0.00000  Uiso   1.00
H832   H     0.55583   0.80297   0.88677   0.00000  Uiso   1.00
H833   H     0.44658   0.80453   0.61573   0.00000  Uiso   1.00
H834   H     0.44465   0.69697   0.86924   0.00000  Uiso   1.00
H835   H     0.35065   0.80458   0.66287   0.00000  Uiso   1.00
H836   H     0.64333   0.75469   0.65856   0.00000  Uiso   1.00
H837   H     0.62028   0.80776   0.68055   0.00000  Uiso   1.00
H838   H     0.64931   0.80408   0.83727   0.00000  Uiso   1.00
H839   H     0.35659   0.75412   0.84144   0.00000  Uiso   1.00
H840   H     0.37968   0.80733   0.81966   0.00000  Uiso   1.00
H841   H     0.56819   0.99010   0.90698   0.00000  Uiso   1.00
H842   H     0.56319   0.88251   0.70021   0.00000  Uiso   1.00
H843   H     0.59213   0.50864   0.62379   0.00000  Uiso   1.00
H844   H     0.49182   0.87204   0.52107   0.00000  Uiso   1.00
H845   H     0.43941   0.62134   0.51235   0.00000  Uiso   1.00
H846   H     0.46671   0.60548   0.67940   0.00000  Uiso   1.00
H847   H     0.45588   0.89495   0.80374   0.00000  Uiso   1.00
H848   H     0.47946   0.52415   0.68183   0.00000  Uiso   1.00
H849   H     0.46867   0.97635   0.80540   0.00000  Uiso   1.00
H850   H     0.55392   0.69511   0.54069   0.00000  Uiso   1.00
H851   H     0.55589   0.80351   0.97444   0.00000  Uiso   1.00
H852   H     0.55392   0.69557   0.62833   0.00000  Uiso   1.00
N853   N     0.50000   0.74999   0.62623   0.00000  Uiso   1.00
N854   N     0.50000   0.75001   0.87376   0.00000  Uiso   1.00
O855   O     0.50000   0.68454   0.78974   0.00000  Uiso   1.00
O856   O     0.62095   0.56069   0.87135   0.00000  Uiso   1.00
O857   O     0.54461   0.50497   0.88034   0.00000  Uiso   1.00
O858   O     0.62939   0.50988   0.71876   0.00000  Uiso   1.00
O859   O     0.63617   0.93723   0.67916   0.00000  Uiso   1.00
O860   O     0.56477   0.99392   0.63994   0.00000  Uiso   1.00
O861   O     0.39401   0.80097   0.97270   0.00000  Uiso   1.00
O862   O     0.39367   0.84706   0.54440   0.00000  Uiso   1.00
O863   O     0.46807   0.86065   0.99250   0.00000  Uiso   1.00
O864   O     0.39249   0.70225   0.99811   0.00000  Uiso   1.00
O865   O     0.38978   0.65658   0.92552   0.00000  Uiso   1.00
O866   O     0.50000   0.81547   0.71026   0.00000  Uiso   1.00
O867   O     0.46429   0.64030   0.99732   0.00000  Uiso   1.00
O868   O     0.50000   0.68453   0.71026   0.00000  Uiso   1.00
O869   O     0.50000   0.81547   0.78974   0.00000  Uiso   1.00
O870   O     0.42392   0.75000   0.78044   0.00000  Uiso   1.00
O871   O     0.57608   0.75000   0.71955   0.00000  Uiso   1.00
O872   O     0.42392   0.75000   0.70096   0.00000  Uiso   1.00
O873   O     0.57608   0.75001   0.79903   0.00000  Uiso   1.00
O874   O     0.61968   0.98819   0.82994   0.00000  Uiso   1.00
S875   S     0.58578   0.52562   0.84445   0.00000  Uiso   1.00
S876   S     0.59836   0.97284   0.69110   0.00000  Uiso   1.00
S877   S     0.42852   0.82304   0.51414   0.00000  Uiso   1.00
S878   S     0.42572   0.67922   0.96570   0.00000  Uiso   1.00
Zn879  Zn    0.50000   0.75001   0.80307   0.00000  Uiso   1.00
Zn880  Zn    0.50000   0.75000   0.69693   0.00000  Uiso   1.00
C881   C     0.83437   0.66365   0.75019   0.00000  Uiso   1.00
C882   C     0.80037   0.71898   0.94277   0.00000  Uiso   1.00
C883   C     0.83211   0.75061   0.52643   0.00000  Uiso   1.00
C884   C     0.83205   0.74957   0.97321   0.00000  Uiso   1.00
C885   C     0.73418   0.75703   0.73767   0.00000  Uiso   1.00
C886   C     0.93248   0.75699   0.76232   0.00000  Uiso   1.00
C887   C     0.67986   0.77182   0.73092   0.00000  Uiso   1.00
C888   C     0.98679   0.77174   0.76911   0.00000  Uiso   1.00
C889   C     0.88067   0.54978   0.79304   0.00000  Uiso   1.00
C890   C     0.88574   0.94939   0.72538   0.00000  Uiso   1.00
C891   C     0.87117   0.59577   0.79204   0.00000  Uiso   1.00
C892   C     0.83407   0.83629   0.75006   0.00000  Uiso   1.00
C893   C     0.87618   0.90342   0.72307   0.00000  Uiso   1.00
C894   C     0.84186   0.61571   0.75135   0.00000  Uiso   1.00
C895   C     0.84129   0.88408   0.75106   0.00000  Uiso   1.00
C896   C     0.82244   0.59013   0.71107   0.00000  Uiso   1.00
C897   C     0.81597   0.91004   0.78186   0.00000  Uiso   1.00
C898   C     0.83033   0.54423   0.71220   0.00000  Uiso   1.00
C899   C     0.82380   0.95592   0.78326   0.00000  Uiso   1.00
C900   C     0.85886   0.52402   0.75303   0.00000  Uiso   1.00
C901   C     0.85824   0.97562   0.75507   0.00000  Uiso   1.00
C902   C     0.98833   0.78514   0.68037   0.00000  Uiso   1.00
C903   C     0.86319   0.71951   0.55608   0.00000  Uiso   1.00
C904   C     0.67830   0.78472   0.81972   0.00000  Uiso   1.00
C905   C     0.86426   0.77977   0.95229   0.00000  Uiso   1.00
C906   C     0.86323   0.71971   0.60588   0.00000  Uiso   1.00
C907   C     0.86430   0.77951   0.90250   0.00000  Uiso   1.00
C908   C     0.80305   0.78080   0.59851   0.00000  Uiso   1.00
C909   C     0.80194   0.72008   0.89297   0.00000  Uiso   1.00
C910   C     0.80159   0.78203   0.54829   0.00000  Uiso   1.00
H911   H     0.88716   0.61618   0.82265   0.00000  Uiso   1.00
H912   H     0.88916   0.80297   0.88677   0.00000  Uiso   1.00
H913   H     0.77991   0.80453   0.61573   0.00000  Uiso   1.00
H914   H     0.77798   0.69697   0.86924   0.00000  Uiso   1.00
H915   H     0.68398   0.80458   0.66287   0.00000  Uiso   1.00
H916   H     0.97666   0.75469   0.65856   0.00000  Uiso   1.00
H917   H     0.95362   0.80776   0.68055   0.00000  Uiso   1.00
H918   H     0.98264   0.80408   0.83727   0.00000  Uiso   1.00
H919   H     0.68992   0.75412   0.84144   0.00000  Uiso   1.00
H920   H     0.71301   0.80733   0.81966   0.00000  Uiso   1.00
H921   H     0.90153   0.99010   0.90698   0.00000  Uiso   1.00
H922   H     0.89652   0.88251   0.70021   0.00000  Uiso   1.00
H923   H     0.92546   0.50864   0.62379   0.00000  Uiso   1.00
H924   H     0.82515   0.87204   0.52107   0.00000  Uiso   1.00
H925   H     0.77274   0.62134   0.51235   0.00000  Uiso   1.00
H926   H     0.80004   0.60548   0.67940   0.00000  Uiso   1.00
H927   H     0.78922   0.89495   0.80374   0.00000  Uiso   1.00
H928   H     0.81279   0.52415   0.68183   0.00000  Uiso   1.00
H929   H     0.80200   0.97635   0.80540   0.00000  Uiso   1.00
H930   H     0.88725   0.69511   0.54069   0.00000  Uiso   1.00
H931   H     0.88922   0.80351   0.97444   0.00000  Uiso   1.00
H932   H     0.88725   0.69557   0.62833   0.00000  Uiso   1.00
N933   N     0.83333   0.74999   0.62623   0.00000  Uiso   1.00
N934   N     0.83333   0.75001   0.87376   0.00000  Uiso   1.00
O935   O     0.83334   0.68454   0.78974   0.00000  Uiso   1.00
O936   O     0.95429   0.56069   0.87135   0.00000  Uiso   1.00
O937   O     0.87794   0.50497   0.88034   0.00000  Uiso   1.00
O938   O     0.96272   0.50988   0.71876   0.00000  Uiso   1.00
O939   O     0.96950   0.93723   0.67916   0.00000  Uiso   1.00
O940   O     0.89811   0.99392   0.63994   0.00000  Uiso   1.00
O941   O     0.72734   0.80097   0.97270   0.00000  Uiso   1.00
O942   O     0.72700   0.84706   0.54440   0.00000  Uiso   1.00
O943   O     0.80140   0.86065   0.99250   0.00000  Uiso   1.00
O944   O     0.72583   0.70225   0.99811   0.00000  Uiso   1.00
O945   O     0.72312   0.65658   0.92552   0.00000  Uiso   1.00
O946   O     0.83333   0.81547   0.71026   0.00000  Uiso   1.00
O947   O     0.79762   0.64030   0.99732   0.00000  Uiso   1.00
O948   O     0.83334   0.68453   0.71026   0.00000  Uiso   1.00
O949   O     0.83333   0.81547   0.78974   0.00000  Uiso   1.00
O950   O     0.75725   0.75000   0.78044   0.00000  Uiso   1.00
O951   O     0.90942   0.75000   0.71955   0.00000  Uiso   1.00
O952   O     0.75725   0.75000   0.70096   0.00000  Uiso   1.00
O953   O     0.90942   0.75001   0.79903   0.00000  Uiso   1.00
O954   O     0.95301   0.98819   0.82994   0.00000  Uiso   1.00
S955   S     0.91911   0.52562   0.84445   0.00000  Uiso   1.00
S956   S     0.93169   0.97284   0.69110   0.00000  Uiso   1.00
S957   S     0.76185   0.82304   0.51414   0.00000  Uiso   1.00
S958   S     0.75905   0.67922   0.96570   0.00000  Uiso   1.00
Zn959  Zn    0.83333   0.75001   0.80307   0.00000  Uiso   1.00
Zn960  Zn    0.83333   0.75000   0.69693   0.00000  Uiso   1.00
loop_
_geom_bond_atom_site_label_1
_geom_bond_atom_site_label_2
_geom_bond_distance
_geom_bond_site_symmetry_2
_ccdc_geom_bond_type
C1     O68     1.283   .     A
C1     O55     1.282   .     A
C1     C14     1.438   .     S
C2     C29     1.412   .     A
C2     C4      1.416   .     A
C2     S78     1.770   .     S
C3     C23     1.405   .     A
C3     C30     1.416   .     A
C3     C484    1.502   1_554 S
C4     C25     1.405   .     A
C4     C483    1.502   .     S
C5     O72     1.284   .     A
C5     C7      1.435   .     S
C5     O70     1.275   .     A
C6     O71     1.276   .     A
C6     C8      1.435   .     S
C6     O73     1.284   .     A
C7     C168    1.355   1_455 S
C7     C182    1.521   1_455 S
C8     C87     1.355   .     S
C8     C104    1.521   .     S
C9     C20     1.407   .     A
C9     C11     1.389   .     A
C9     S75     1.771   .     S
C10    S76     1.771   .     S
C10    C21     1.408   .     A
C10    C13     1.389   .     A
C11    C14     1.400   .     A
C11    H31     1.084   .     S
C12    O69     1.281   .     A
C12    O66     1.281   .     A
C12    C15     1.433   .     S
C13    H42     1.084   .     S
C13    C15     1.399   .     A
C14    C16     1.395   .     A
C15    C17     1.393   .     A
C16    H46     1.084   .     S
C16    C18     1.380   .     A
C17    C19     1.379   .     A
C17    H47     1.084   .     S
C18    H48     1.084   .     S
C18    C20     1.399   .     A
C19    C21     1.399   .     A
C19    H49     1.084   .     S
C20    C261    1.441   1_545 S
C21    C260    1.441   .     S
C22    H37     1.111   .     S
C22    H36     1.111   .     S
C22    C87     1.521   .     S
C22    H115    1.111   .     S
C23    C26     1.405   .     A
C23    H50     1.083   .     S
C24    H39     1.111   .     S
C24    H40     1.111   .     S
C24    C168    1.521   1_455 S
C24    H198    1.111   1_455 S
C25    H51     1.083   .     S
C25    C27     1.405   .     A
C26    H52     1.082   .     S
C26    N53     1.362   .     A
C27    N54     1.362   .     A
C27    H32     1.082   .     S
C28    H33     1.081   .     S
C28    N53     1.363   .     A
C28    C30     1.412   .     A
C29    N54     1.363   .     A
C29    H34     1.081   .     S
C30    S77     1.771   .     S
H35    C182    1.111   1_455 S
H38    C104    1.111   .     S
H41    O297    0.991   .     S
H43    O300    0.991   1_545 S
H44    O543    0.991   1_554 S
H45    O547    0.991   1_554 S
N53    Zn80    1.995   .     S
N54    Zn79    1.995   .     S
O55    Zn79    1.984   .     S
O56    S75     1.503   .     D
O57    S75     1.681   .     S
O57    H281    0.991   1_545 S
O58    S316    1.503   1_545 S
O59    S76     1.504   .     D
O60    S76     1.681   .     S
O60    H283    0.991   .     S
O61    S557    1.503   .     S
O62    S77     1.503   .     D
O63    H524    0.991   .     S
O63    S557    1.681   .     S
O64    S78     1.503   .     D
O65    S78     1.503   .     D
O66    Zn80    1.984   .     S
O67    S78     1.681   .     S
O67    H525    0.991   .     S
O68    Zn80    1.983   .     S
O69    Zn79    1.983   .     S
O70    Zn79    1.944   .     S
O71    Zn80    1.944   .     S
O72    Zn80    1.957   .     S
O73    Zn79    1.957   .     S
O74    S315    1.503   .     S
S75    O314    1.503   1_545 S
S76    O298    1.503   .     S
S77    O541    1.503   1_554 S
S77    O543    1.681   1_554 S
C81    O148    1.283   .     A
C81    O135    1.282   .     A
C81    C94     1.438   .     S
C82    C109    1.412   .     A
C82    C84     1.416   .     A
C82    S158    1.770   .     S
C83    C103    1.405   .     A
C83    C110    1.416   .     A
C83    C564    1.502   1_554 S
C84    C105    1.405   .     A
C84    C563    1.502   .     S
C85    O152    1.284   .     A
C85    C87     1.435   .     S
C85    O150    1.275   .     A
C86    O151    1.276   .     A
C86    C88     1.435   .     S
C86    O153    1.284   .     A
C88    C167    1.355   .     S
C88    C184    1.521   .     S
C89    C100    1.407   .     A
C89    C91     1.389   .     A
C89    S155    1.771   .     S
C90    S156    1.771   .     S
C90    C101    1.408   .     A
C90    C93     1.389   .     A
C91    C94     1.400   .     A
C91    H111    1.084   .     S
C92    O149    1.281   .     A
C92    O146    1.281   .     A
C92    C95     1.433   .     S
C93    H122    1.084   .     S
C93    C95     1.399   .     A
C94    C96     1.395   .     A
C95    C97     1.393   .     A
C96    H126    1.084   .     S
C96    C98     1.380   .     A
C97    C99     1.379   .     A
C97    H127    1.084   .     S
C98    H128    1.084   .     S
C98    C100    1.399   .     A
C99    C101    1.399   .     A
C99    H129    1.084   .     S
C100   C341    1.441   1_545 S
C101   C340    1.441   .     S
C102   H117    1.111   .     S
C102   H116    1.111   .     S
C102   C167    1.521   .     S
C102   H195    1.111   .     S
C103   C106    1.405   .     A
C103   H130    1.083   .     S
C104   H119    1.111   .     S
C104   H120    1.111   .     S
C105   H131    1.083   .     S
C105   C107    1.405   .     A
C106   H132    1.082   .     S
C106   N133    1.362   .     A
C107   N134    1.362   .     A
C107   H112    1.082   .     S
C108   H113    1.081   .     S
C108   N133    1.363   .     A
C108   C110    1.412   .     A
C109   N134    1.363   .     A
C109   H114    1.081   .     S
C110   S157    1.771   .     S
H118   C184    1.111   .     S
H121   O377    0.991   .     S
H123   O380    0.991   1_545 S
H124   O623    0.991   1_554 S
H125   O627    0.991   1_554 S
N133   Zn160   1.995   .     S
N134   Zn159   1.995   .     S
O135   Zn159   1.984   .     S
O136   S155    1.503   .     D
O137   S155    1.681   .     S
O137   H361    0.991   1_545 S
O138   S396    1.503   1_545 S
O139   S156    1.504   .     D
O140   S156    1.681   .     S
O140   H363    0.991   .     S
O141   S637    1.503   .     S
O142   S157    1.503   .     D
O143   H604    0.991   .     S
O143   S637    1.681   .     S
O144   S158    1.503   .     D
O145   S158    1.503   .     D
O146   Zn160   1.984   .     S
O147   S158    1.681   .     S
O147   H605    0.991   .     S
O148   Zn160   1.983   .     S
O149   Zn159   1.983   .     S
O150   Zn159   1.944   .     S
O151   Zn160   1.944   .     S
O152   Zn160   1.957   .     S
O153   Zn159   1.957   .     S
O154   S395    1.503   .     S
S155   O394    1.503   1_545 S
S156   O378    1.503   .     S
S157   O621    1.503   1_554 S
S157   O623    1.681   1_554 S
C161   O228    1.283   .     A
C161   O215    1.282   .     A
C161   C174    1.438   .     S
C162   C189    1.412   .     A
C162   C164    1.416   .     A
C162   S238    1.770   .     S
C163   C183    1.405   .     A
C163   C190    1.416   .     A
C163   C644    1.502   1_554 S
C164   C185    1.405   .     A
C164   C643    1.502   .     S
C165   O232    1.284   .     A
C165   C167    1.435   .     S
C165   O230    1.275   .     A
C166   O231    1.276   .     A
C166   C168    1.435   .     S
C166   O233    1.284   .     A
C168   C7      1.355   1_655 S
C168   C24     1.521   1_655 S
C169   C180    1.407   .     A
C169   C171    1.389   .     A
C169   S235    1.771   .     S
C170   S236    1.771   .     S
C170   C181    1.408   .     A
C170   C173    1.389   .     A
C171   C174    1.400   .     A
C171   H191    1.084   .     S
C172   O229    1.281   .     A
C172   O226    1.281   .     A
C172   C175    1.433   .     S
C173   H202    1.084   .     S
C173   C175    1.399   .     A
C174   C176    1.395   .     A
C175   C177    1.393   .     A
C176   H206    1.084   .     S
C176   C178    1.380   .     A
C177   C179    1.379   .     A
C177   H207    1.084   .     S
C178   H208    1.084   .     S
C178   C180    1.399   .     A
C179   C181    1.399   .     A
C179   H209    1.084   .     S
C180   C421    1.441   1_545 S
C181   C420    1.441   .     S
C182   H197    1.111   .     S
C182   H196    1.111   .     S
C182   C7      1.521   1_655 S
C182   H35     1.111   1_655 S
C183   C186    1.405   .     A
C183   H210    1.083   .     S
C184   H199    1.111   .     S
C184   H200    1.111   .     S
C185   H211    1.083   .     S
C185   C187    1.405   .     A
C186   H212    1.082   .     S
C186   N213    1.362   .     A
C187   N214    1.362   .     A
C187   H192    1.082   .     S
C188   H193    1.081   .     S
C188   N213    1.363   .     A
C188   C190    1.412   .     A
C189   N214    1.363   .     A
C189   H194    1.081   .     S
C190   S237    1.771   .     S
H198   C24     1.111   1_655 S
H201   O457    0.991   .     S
H203   O460    0.991   1_545 S
H204   O703    0.991   1_554 S
H205   O707    0.991   1_554 S
N213   Zn240   1.995   .     S
N214   Zn239   1.995   .     S
O215   Zn239   1.984   .     S
O216   S235    1.503   .     D
O217   S235    1.681   .     S
O217   H441    0.991   1_545 S
O218   S476    1.503   1_545 S
O219   S236    1.504   .     D
O220   S236    1.681   .     S
O220   H443    0.991   .     S
O221   S717    1.503   .     S
O222   S237    1.503   .     D
O223   H684    0.991   .     S
O223   S717    1.681   .     S
O224   S238    1.503   .     D
O225   S238    1.503   .     D
O226   Zn240   1.984   .     S
O227   S238    1.681   .     S
O227   H685    0.991   .     S
O228   Zn240   1.983   .     S
O229   Zn239   1.983   .     S
O230   Zn239   1.944   .     S
O231   Zn240   1.944   .     S
O232   Zn240   1.957   .     S
O233   Zn239   1.957   .     S
O234   S475    1.503   .     S
S235   O474    1.503   1_545 S
S236   O458    1.503   .     S
S237   O701    1.503   1_554 S
S237   O703    1.681   1_554 S
C241   O308    1.283   .     A
C241   O295    1.282   .     A
C241   C254    1.438   .     S
C242   C269    1.412   .     A
C242   C244    1.416   .     A
C242   S318    1.770   .     S
C243   C263    1.405   .     A
C243   C270    1.416   .     A
C243   C724    1.502   1_554 S
C244   C265    1.405   .     A
C244   C723    1.502   .     S
C245   O312    1.284   .     A
C245   C247    1.435   .     S
C245   O310    1.275   .     A
C246   O311    1.276   .     A
C246   C248    1.435   .     S
C246   O313    1.284   .     A
C247   C408    1.355   1_455 S
C247   C422    1.521   1_455 S
C248   C327    1.355   .     S
C248   C344    1.521   .     S
C249   C260    1.407   .     A
C249   C251    1.389   .     A
C249   S315    1.771   .     S
C250   S316    1.771   .     S
C250   C261    1.408   .     A
C250   C253    1.389   .     A
C251   C254    1.400   .     A
C251   H271    1.084   .     S
C252   O309    1.281   .     A
C252   O306    1.281   .     A
C252   C255    1.433   .     S
C253   H282    1.084   .     S
C253   C255    1.399   .     A
C254   C256    1.395   .     A
C255   C257    1.393   .     A
C256   H286    1.084   .     S
C256   C258    1.380   .     A
C257   C259    1.379   .     A
C257   H287    1.084   .     S
C258   H288    1.084   .     S
C258   C260    1.399   .     A
C259   C261    1.399   .     A
C259   H289    1.084   .     S
C261   C20     1.441   1_565 S
C262   H277    1.111   .     S
C262   H276    1.111   .     S
C262   C327    1.521   .     S
C262   H355    1.111   .     S
C263   C266    1.405   .     A
C263   H290    1.083   .     S
C264   H279    1.111   .     S
C264   H280    1.111   .     S
C264   C408    1.521   1_455 S
C264   H438    1.111   1_455 S
C265   H291    1.083   .     S
C265   C267    1.405   .     A
C266   H292    1.082   .     S
C266   N293    1.362   .     A
C267   N294    1.362   .     A
C267   H272    1.082   .     S
C268   H273    1.081   .     S
C268   N293    1.363   .     A
C268   C270    1.412   .     A
C269   N294    1.363   .     A
C269   H274    1.081   .     S
C270   S317    1.771   .     S
H275   C422    1.111   1_455 S
H278   C344    1.111   .     S
H281   O57     0.991   1_565 S
H284   O783    0.991   1_554 S
H285   O787    0.991   1_554 S
N293   Zn320   1.995   .     S
N294   Zn319   1.995   .     S
O295   Zn319   1.984   .     S
O296   S315    1.503   .     D
O297   S315    1.681   .     S
O299   S316    1.504   .     D
O300   S316    1.681   .     S
O300   H43     0.991   1_565 S
O301   S797    1.503   .     S
O302   S317    1.503   .     D
O303   H764    0.991   .     S
O303   S797    1.681   .     S
O304   S318    1.503   .     D
O305   S318    1.503   .     D
O306   Zn320   1.984   .     S
O307   S318    1.681   .     S
O307   H765    0.991   .     S
O308   Zn320   1.983   .     S
O309   Zn319   1.983   .     S
O310   Zn319   1.944   .     S
O311   Zn320   1.944   .     S
O312   Zn320   1.957   .     S
O313   Zn319   1.957   .     S
O314   S75     1.503   1_565 S
S316   O58     1.503   1_565 S
S317   O781    1.503   1_554 S
S317   O783    1.681   1_554 S
C321   O388    1.283   .     A
C321   O375    1.282   .     A
C321   C334    1.438   .     S
C322   C349    1.412   .     A
C322   C324    1.416   .     A
C322   S398    1.770   .     S
C323   C343    1.405   .     A
C323   C350    1.416   .     A
C323   C804    1.502   1_554 S
C324   C345    1.405   .     A
C324   C803    1.502   .     S
C325   O392    1.284   .     A
C325   C327    1.435   .     S
C325   O390    1.275   .     A
C326   O391    1.276   .     A
C326   C328    1.435   .     S
C326   O393    1.284   .     A
C328   C407    1.355   .     S
C328   C424    1.521   .     S
C329   C340    1.407   .     A
C329   C331    1.389   .     A
C329   S395    1.771   .     S
C330   S396    1.771   .     S
C330   C341    1.408   .     A
C330   C333    1.389   .     A
C331   C334    1.400   .     A
C331   H351    1.084   .     S
C332   O389    1.281   .     A
C332   O386    1.281   .     A
C332   C335    1.433   .     S
C333   H362    1.084   .     S
C333   C335    1.399   .     A
C334   C336    1.395   .     A
C335   C337    1.393   .     A
C336   H366    1.084   .     S
C336   C338    1.380   .     A
C337   C339    1.379   .     A
C337   H367    1.084   .     S
C338   H368    1.084   .     S
C338   C340    1.399   .     A
C339   C341    1.399   .     A
C339   H369    1.084   .     S
C341   C100    1.441   1_565 S
C342   H357    1.111   .     S
C342   H356    1.111   .     S
C342   C407    1.521   .     S
C342   H435    1.111   .     S
C343   C346    1.405   .     A
C343   H370    1.083   .     S
C344   H359    1.111   .     S
C344   H360    1.111   .     S
C345   H371    1.083   .     S
C345   C347    1.405   .     A
C346   H372    1.082   .     S
C346   N373    1.362   .     A
C347   N374    1.362   .     A
C347   H352    1.082   .     S
C348   H353    1.081   .     S
C348   N373    1.363   .     A
C348   C350    1.412   .     A
C349   N374    1.363   .     A
C349   H354    1.081   .     S
C350   S397    1.771   .     S
H358   C424    1.111   .     S
H361   O137    0.991   1_565 S
H364   O863    0.991   1_554 S
H365   O867    0.991   1_554 S
N373   Zn400   1.995   .     S
N374   Zn399   1.995   .     S
O375   Zn399   1.984   .     S
O376   S395    1.503   .     D
O377   S395    1.681   .     S
O379   S396    1.504   .     D
O380   S396    1.681   .     S
O380   H123    0.991   1_565 S
O381   S877    1.503   .     S
O382   S397    1.503   .     D
O383   H844    0.991   .     S
O383   S877    1.681   .     S
O384   S398    1.503   .     D
O385   S398    1.503   .     D
O386   Zn400   1.984   .     S
O387   S398    1.681   .     S
O387   H845    0.991   .     S
O388   Zn400   1.983   .     S
O389   Zn399   1.983   .     S
O390   Zn399   1.944   .     S
O391   Zn400   1.944   .     S
O392   Zn400   1.957   .     S
O393   Zn399   1.957   .     S
O394   S155    1.503   1_565 S
S396   O138    1.503   1_565 S
S397   O861    1.503   1_554 S
S397   O863    1.681   1_554 S
C401   O468    1.283   .     A
C401   O455    1.282   .     A
C401   C414    1.438   .     S
C402   C429    1.412   .     A
C402   C404    1.416   .     A
C402   S478    1.770   .     S
C403   C423    1.405   .     A
C403   C430    1.416   .     A
C403   C884    1.502   1_554 S
C404   C425    1.405   .     A
C404   C883    1.502   .     S
C405   O472    1.284   .     A
C405   C407    1.435   .     S
C405   O470    1.275   .     A
C406   O471    1.276   .     A
C406   C408    1.435   .     S
C406   O473    1.284   .     A
C408   C247    1.355   1_655 S
C408   C264    1.521   1_655 S
C409   C420    1.407   .     A
C409   C411    1.389   .     A
C409   S475    1.771   .     S
C410   S476    1.771   .     S
C410   C421    1.408   .     A
C410   C413    1.389   .     A
C411   C414    1.400   .     A
C411   H431    1.084   .     S
C412   O469    1.281   .     A
C412   O466    1.281   .     A
C412   C415    1.433   .     S
C413   H442    1.084   .     S
C413   C415    1.399   .     A
C414   C416    1.395   .     A
C415   C417    1.393   .     A
C416   H446    1.084   .     S
C416   C418    1.380   .     A
C417   C419    1.379   .     A
C417   H447    1.084   .     S
C418   H448    1.084   .     S
C418   C420    1.399   .     A
C419   C421    1.399   .     A
C419   H449    1.084   .     S
C421   C180    1.441   1_565 S
C422   H437    1.111   .     S
C422   H436    1.111   .     S
C422   C247    1.521   1_655 S
C422   H275    1.111   1_655 S
C423   C426    1.405   .     A
C423   H450    1.083   .     S
C424   H439    1.111   .     S
C424   H440    1.111   .     S
C425   H451    1.083   .     S
C425   C427    1.405   .     A
C426   H452    1.082   .     S
C426   N453    1.362   .     A
C427   N454    1.362   .     A
C427   H432    1.082   .     S
C428   H433    1.081   .     S
C428   N453    1.363   .     A
C428   C430    1.412   .     A
C429   N454    1.363   .     A
C429   H434    1.081   .     S
C430   S477    1.771   .     S
H438   C264    1.111   1_655 S
H441   O217    0.991   1_565 S
H444   O943    0.991   1_554 S
H445   O947    0.991   1_554 S
N453   Zn480   1.995   .     S
N454   Zn479   1.995   .     S
O455   Zn479   1.984   .     S
O456   S475    1.503   .     D
O457   S475    1.681   .     S
O459   S476    1.504   .     D
O460   S476    1.681   .     S
O460   H203    0.991   1_565 S
O461   S957    1.503   .     S
O462   S477    1.503   .     D
O463   H924    0.991   .     S
O463   S957    1.681   .     S
O464   S478    1.503   .     D
O465   S478    1.503   .     D
O466   Zn480   1.984   .     S
O467   S478    1.681   .     S
O467   H925    0.991   .     S
O468   Zn480   1.983   .     S
O469   Zn479   1.983   .     S
O470   Zn479   1.944   .     S
O471   Zn480   1.944   .     S
O472   Zn480   1.957   .     S
O473   Zn479   1.957   .     S
O474   S235    1.503   1_565 S
S476   O218    1.503   1_565 S
S477   O941    1.503   1_554 S
S477   O943    1.681   1_554 S
C481   O548    1.283   .     A
C481   O535    1.282   .     A
C481   C494    1.438   .     S
C482   C509    1.412   .     A
C482   C484    1.416   .     A
C482   S558    1.770   .     S
C483   C503    1.405   .     A
C483   C510    1.416   .     A
C484   C505    1.405   .     A
C484   C3      1.502   1_556 S
C485   O552    1.284   .     A
C485   C487    1.435   .     S
C485   O550    1.275   .     A
C486   O551    1.276   .     A
C486   C488    1.435   .     S
C486   O553    1.284   .     A
C487   C648    1.355   1_455 S
C487   C662    1.521   1_455 S
C488   C567    1.355   .     S
C488   C584    1.521   .     S
C489   C500    1.407   .     A
C489   C491    1.389   .     A
C489   S555    1.771   .     S
C490   S556    1.771   .     S
C490   C501    1.408   .     A
C490   C493    1.389   .     A
C491   C494    1.400   .     A
C491   H511    1.084   .     S
C492   O549    1.281   .     A
C492   O546    1.281   .     A
C492   C495    1.433   .     S
C493   H522    1.084   .     S
C493   C495    1.399   .     A
C494   C496    1.395   .     A
C495   C497    1.393   .     A
C496   H526    1.084   .     S
C496   C498    1.380   .     A
C497   C499    1.379   .     A
C497   H527    1.084   .     S
C498   H528    1.084   .     S
C498   C500    1.399   .     A
C499   C501    1.399   .     A
C499   H529    1.084   .     S
C500   C741    1.441   1_545 S
C501   C740    1.441   .     S
C502   H517    1.111   .     S
C502   H516    1.111   .     S
C502   C567    1.521   .     S
C502   H595    1.111   .     S
C503   C506    1.405   .     A
C503   H530    1.083   .     S
C504   H519    1.111   .     S
C504   H520    1.111   .     S
C504   C648    1.521   1_455 S
C504   H678    1.111   1_455 S
C505   H531    1.083   .     S
C505   C507    1.405   .     A
C506   H532    1.082   .     S
C506   N533    1.362   .     A
C507   N534    1.362   .     A
C507   H512    1.082   .     S
C508   H513    1.081   .     S
C508   N533    1.363   .     A
C508   C510    1.412   .     A
C509   N534    1.363   .     A
C509   H514    1.081   .     S
C510   S557    1.771   .     S
H515   C662    1.111   1_455 S
H518   C584    1.111   .     S
H521   O777    0.991   .     S
H523   O780    0.991   1_545 S
N533   Zn560   1.995   .     S
N534   Zn559   1.995   .     S
O535   Zn559   1.984   .     S
O536   S555    1.503   .     D
O537   S555    1.681   .     S
O537   H761    0.991   1_545 S
O538   S796    1.503   1_545 S
O539   S556    1.504   .     D
O540   S556    1.681   .     S
O540   H763    0.991   .     S
O541   S77     1.503   1_556 S
O542   S557    1.503   .     D
O543   H44     0.991   1_556 S
O543   S77     1.681   1_556 S
O544   S558    1.503   .     D
O545   S558    1.503   .     D
O546   Zn560   1.984   .     S
O547   S558    1.681   .     S
O547   H45     0.991   1_556 S
O548   Zn560   1.983   .     S
O549   Zn559   1.983   .     S
O550   Zn559   1.944   .     S
O551   Zn560   1.944   .     S
O552   Zn560   1.957   .     S
O553   Zn559   1.957   .     S
O554   S795    1.503   .     S
S555   O794    1.503   1_545 S
S556   O778    1.503   .     S
C561   O628    1.283   .     A
C561   O615    1.282   .     A
C561   C574    1.438   .     S
C562   C589    1.412   .     A
C562   C564    1.416   .     A
C562   S638    1.770   .     S
C563   C583    1.405   .     A
C563   C590    1.416   .     A
C564   C585    1.405   .     A
C564   C83     1.502   1_556 S
C565   O632    1.284   .     A
C565   C567    1.435   .     S
C565   O630    1.275   .     A
C566   O631    1.276   .     A
C566   C568    1.435   .     S
C566   O633    1.284   .     A
C568   C647    1.355   .     S
C568   C664    1.521   .     S
C569   C580    1.407   .     A
C569   C571    1.389   .     A
C569   S635    1.771   .     S
C570   S636    1.771   .     S
C570   C581    1.408   .     A
C570   C573    1.389   .     A
C571   C574    1.400   .     A
C571   H591    1.084   .     S
C572   O629    1.281   .     A
C572   O626    1.281   .     A
C572   C575    1.433   .     S
C573   H602    1.084   .     S
C573   C575    1.399   .     A
C574   C576    1.395   .     A
C575   C577    1.393   .     A
C576   H606    1.084   .     S
C576   C578    1.380   .     A
C577   C579    1.379   .     A
C577   H607    1.084   .     S
C578   H608    1.084   .     S
C578   C580    1.399   .     A
C579   C581    1.399   .     A
C579   H609    1.084   .     S
C580   C821    1.441   1_545 S
C581   C820    1.441   .     S
C582   H597    1.111   .     S
C582   H596    1.111   .     S
C582   C647    1.521   .     S
C582   H675    1.111   .     S
C583   C586    1.405   .     A
C583   H610    1.083   .     S
C584   H599    1.111   .     S
C584   H600    1.111   .     S
C585   H611    1.083   .     S
C585   C587    1.405   .     A
C586   H612    1.082   .     S
C586   N613    1.362   .     A
C587   N614    1.362   .     A
C587   H592    1.082   .     S
C588   H593    1.081   .     S
C588   N613    1.363   .     A
C588   C590    1.412   .     A
C589   N614    1.363   .     A
C589   H594    1.081   .     S
C590   S637    1.771   .     S
H598   C664    1.111   .     S
H601   O857    0.991   .     S
H603   O860    0.991   1_545 S
N613   Zn640   1.995   .     S
N614   Zn639   1.995   .     S
O615   Zn639   1.984   .     S
O616   S635    1.503   .     D
O617   S635    1.681   .     S
O617   H841    0.991   1_545 S
O618   S876    1.503   1_545 S
O619   S636    1.504   .     D
O620   S636    1.681   .     S
O620   H843    0.991   .     S
O621   S157    1.503   1_556 S
O622   S637    1.503   .     D
O623   H124    0.991   1_556 S
O623   S157    1.681   1_556 S
O624   S638    1.503   .     D
O625   S638    1.503   .     D
O626   Zn640   1.984   .     S
O627   S638    1.681   .     S
O627   H125    0.991   1_556 S
O628   Zn640   1.983   .     S
O629   Zn639   1.983   .     S
O630   Zn639   1.944   .     S
O631   Zn640   1.944   .     S
O632   Zn640   1.957   .     S
O633   Zn639   1.957   .     S
O634   S875    1.503   .     S
S635   O874    1.503   1_545 S
S636   O858    1.503   .     S
C641   O708    1.283   .     A
C641   O695    1.282   .     A
C641   C654    1.438   .     S
C642   C669    1.412   .     A
C642   C644    1.416   .     A
C642   S718    1.770   .     S
C643   C663    1.405   .     A
C643   C670    1.416   .     A
C644   C665    1.405   .     A
C644   C163    1.502   1_556 S
C645   O712    1.284   .     A
C645   C647    1.435   .     S
C645   O710    1.275   .     A
C646   O711    1.276   .     A
C646   C648    1.435   .     S
C646   O713    1.284   .     A
C648   C487    1.355   1_655 S
C648   C504    1.521   1_655 S
C649   C660    1.407   .     A
C649   C651    1.389   .     A
C649   S715    1.771   .     S
C650   S716    1.771   .     S
C650   C661    1.408   .     A
C650   C653    1.389   .     A
C651   C654    1.400   .     A
C651   H671    1.084   .     S
C652   O709    1.281   .     A
C652   O706    1.281   .     A
C652   C655    1.433   .     S
C653   H682    1.084   .     S
C653   C655    1.399   .     A
C654   C656    1.395   .     A
C655   C657    1.393   .     A
C656   H686    1.084   .     S
C656   C658    1.380   .     A
C657   C659    1.379   .     A
C657   H687    1.084   .     S
C658   H688    1.084   .     S
C658   C660    1.399   .     A
C659   C661    1.399   .     A
C659   H689    1.084   .     S
C660   C901    1.441   1_545 S
C661   C900    1.441   .     S
C662   H677    1.111   .     S
C662   H676    1.111   .     S
C662   C487    1.521   1_655 S
C662   H515    1.111   1_655 S
C663   C666    1.405   .     A
C663   H690    1.083   .     S
C664   H679    1.111   .     S
C664   H680    1.111   .     S
C665   H691    1.083   .     S
C665   C667    1.405   .     A
C666   H692    1.082   .     S
C666   N693    1.362   .     A
C667   N694    1.362   .     A
C667   H672    1.082   .     S
C668   H673    1.081   .     S
C668   N693    1.363   .     A
C668   C670    1.412   .     A
C669   N694    1.363   .     A
C669   H674    1.081   .     S
C670   S717    1.771   .     S
H678   C504    1.111   1_655 S
H681   O937    0.991   .     S
H683   O940    0.991   1_545 S
N693   Zn720   1.995   .     S
N694   Zn719   1.995   .     S
O695   Zn719   1.984   .     S
O696   S715    1.503   .     D
O697   S715    1.681   .     S
O697   H921    0.991   1_545 S
O698   S956    1.503   1_545 S
O699   S716    1.504   .     D
O700   S716    1.681   .     S
O700   H923    0.991   .     S
O701   S237    1.503   1_556 S
O702   S717    1.503   .     D
O703   H204    0.991   1_556 S
O703   S237    1.681   1_556 S
O704   S718    1.503   .     D
O705   S718    1.503   .     D
O706   Zn720   1.984   .     S
O707   S718    1.681   .     S
O707   H205    0.991   1_556 S
O708   Zn720   1.983   .     S
O709   Zn719   1.983   .     S
O710   Zn719   1.944   .     S
O711   Zn720   1.944   .     S
O712   Zn720   1.957   .     S
O713   Zn719   1.957   .     S
O714   S955    1.503   .     S
S715   O954    1.503   1_545 S
S716   O938    1.503   .     S
C721   O788    1.283   .     A
C721   O775    1.282   .     A
C721   C734    1.438   .     S
C722   C749    1.412   .     A
C722   C724    1.416   .     A
C722   S798    1.770   .     S
C723   C743    1.405   .     A
C723   C750    1.416   .     A
C724   C745    1.405   .     A
C724   C243    1.502   1_556 S
C725   O792    1.284   .     A
C725   C727    1.435   .     S
C725   O790    1.275   .     A
C726   O791    1.276   .     A
C726   C728    1.435   .     S
C726   O793    1.284   .     A
C727   C888    1.355   1_455 S
C727   C902    1.521   1_455 S
C728   C807    1.355   .     S
C728   C824    1.521   .     S
C729   C740    1.407   .     A
C729   C731    1.389   .     A
C729   S795    1.771   .     S
C730   S796    1.771   .     S
C730   C741    1.408   .     A
C730   C733    1.389   .     A
C731   C734    1.400   .     A
C731   H751    1.084   .     S
C732   O789    1.281   .     A
C732   O786    1.281   .     A
C732   C735    1.433   .     S
C733   H762    1.084   .     S
C733   C735    1.399   .     A
C734   C736    1.395   .     A
C735   C737    1.393   .     A
C736   H766    1.084   .     S
C736   C738    1.380   .     A
C737   C739    1.379   .     A
C737   H767    1.084   .     S
C738   H768    1.084   .     S
C738   C740    1.399   .     A
C739   C741    1.399   .     A
C739   H769    1.084   .     S
C741   C500    1.441   1_565 S
C742   H757    1.111   .     S
C742   H756    1.111   .     S
C742   C807    1.521   .     S
C742   H835    1.111   .     S
C743   C746    1.405   .     A
C743   H770    1.083   .     S
C744   H759    1.111   .     S
C744   H760    1.111   .     S
C744   C888    1.521   1_455 S
C744   H918    1.111   1_455 S
C745   H771    1.083   .     S
C745   C747    1.405   .     A
C746   H772    1.082   .     S
C746   N773    1.362   .     A
C747   N774    1.362   .     A
C747   H752    1.082   .     S
C748   H753    1.081   .     S
C748   N773    1.363   .     A
C748   C750    1.412   .     A
C749   N774    1.363   .     A
C749   H754    1.081   .     S
C750   S797    1.771   .     S
H755   C902    1.111   1_455 S
H758   C824    1.111   .     S
H761   O537    0.991   1_565 S
N773   Zn800   1.995   .     S
N774   Zn799   1.995   .     S
O775   Zn799   1.984   .     S
O776   S795    1.503   .     D
O777   S795    1.681   .     S
O779   S796    1.504   .     D
O780   S796    1.681   .     S
O780   H523    0.991   1_565 S
O781   S317    1.503   1_556 S
O782   S797    1.503   .     D
O783   H284    0.991   1_556 S
O783   S317    1.681   1_556 S
O784   S798    1.503   .     D
O785   S798    1.503   .     D
O786   Zn800   1.984   .     S
O787   S798    1.681   .     S
O787   H285    0.991   1_556 S
O788   Zn800   1.983   .     S
O789   Zn799   1.983   .     S
O790   Zn799   1.944   .     S
O791   Zn800   1.944   .     S
O792   Zn800   1.957   .     S
O793   Zn799   1.957   .     S
O794   S555    1.503   1_565 S
S796   O538    1.503   1_565 S
C801   O868    1.283   .     A
C801   O855    1.282   .     A
C801   C814    1.438   .     S
C802   C829    1.412   .     A
C802   C804    1.416   .     A
C802   S878    1.770   .     S
C803   C823    1.405   .     A
C803   C830    1.416   .     A
C804   C825    1.405   .     A
C804   C323    1.502   1_556 S
C805   O872    1.284   .     A
C805   C807    1.435   .     S
C805   O870    1.275   .     A
C806   O871    1.276   .     A
C806   C808    1.435   .     S
C806   O873    1.284   .     A
C808   C887    1.355   .     S
C808   C904    1.521   .     S
C809   C820    1.407   .     A
C809   C811    1.389   .     A
C809   S875    1.771   .     S
C810   S876    1.771   .     S
C810   C821    1.408   .     A
C810   C813    1.389   .     A
C811   C814    1.400   .     A
C811   H831    1.084   .     S
C812   O869    1.281   .     A
C812   O866    1.281   .     A
C812   C815    1.433   .     S
C813   H842    1.084   .     S
C813   C815    1.399   .     A
C814   C816    1.395   .     A
C815   C817    1.393   .     A
C816   H846    1.084   .     S
C816   C818    1.380   .     A
C817   C819    1.379   .     A
C817   H847    1.084   .     S
C818   H848    1.084   .     S
C818   C820    1.399   .     A
C819   C821    1.399   .     A
C819   H849    1.084   .     S
C821   C580    1.441   1_565 S
C822   H837    1.111   .     S
C822   H836    1.111   .     S
C822   C887    1.521   .     S
C822   H915    1.111   .     S
C823   C826    1.405   .     A
C823   H850    1.083   .     S
C824   H839    1.111   .     S
C824   H840    1.111   .     S
C825   H851    1.083   .     S
C825   C827    1.405   .     A
C826   H852    1.082   .     S
C826   N853    1.362   .     A
C827   N854    1.362   .     A
C827   H832    1.082   .     S
C828   H833    1.081   .     S
C828   N853    1.363   .     A
C828   C830    1.412   .     A
C829   N854    1.363   .     A
C829   H834    1.081   .     S
C830   S877    1.771   .     S
H838   C904    1.111   .     S
H841   O617    0.991   1_565 S
N853   Zn880   1.995   .     S
N854   Zn879   1.995   .     S
O855   Zn879   1.984   .     S
O856   S875    1.503   .     D
O857   S875    1.681   .     S
O859   S876    1.504   .     D
O860   S876    1.681   .     S
O860   H603    0.991   1_565 S
O861   S397    1.503   1_556 S
O862   S877    1.503   .     D
O863   H364    0.991   1_556 S
O863   S397    1.681   1_556 S
O864   S878    1.503   .     D
O865   S878    1.503   .     D
O866   Zn880   1.984   .     S
O867   S878    1.681   .     S
O867   H365    0.991   1_556 S
O868   Zn880   1.983   .     S
O869   Zn879   1.983   .     S
O870   Zn879   1.944   .     S
O871   Zn880   1.944   .     S
O872   Zn880   1.957   .     S
O873   Zn879   1.957   .     S
O874   S635    1.503   1_565 S
S876   O618    1.503   1_565 S
C881   O948    1.283   .     A
C881   O935    1.282   .     A
C881   C894    1.438   .     S
C882   C909    1.412   .     A
C882   C884    1.416   .     A
C882   S958    1.770   .     S
C883   C903    1.405   .     A
C883   C910    1.416   .     A
C884   C905    1.405   .     A
C884   C403    1.502   1_556 S
C885   O952    1.284   .     A
C885   C887    1.435   .     S
C885   O950    1.275   .     A
C886   O951    1.276   .     A
C886   C888    1.435   .     S
C886   O953    1.284   .     A
C888   C727    1.355   1_655 S
C888   C744    1.521   1_655 S
C889   C900    1.407   .     A
C889   C891    1.389   .     A
C889   S955    1.771   .     S
C890   S956    1.771   .     S
C890   C901    1.408   .     A
C890   C893    1.389   .     A
C891   C894    1.400   .     A
C891   H911    1.084   .     S
C892   O949    1.281   .     A
C892   O946    1.281   .     A
C892   C895    1.433   .     S
C893   H922    1.084   .     S
C893   C895    1.399   .     A
C894   C896    1.395   .     A
C895   C897    1.393   .     A
C896   H926    1.084   .     S
C896   C898    1.380   .     A
C897   C899    1.379   .     A
C897   H927    1.084   .     S
C898   H928    1.084   .     S
C898   C900    1.399   .     A
C899   C901    1.399   .     A
C899   H929    1.084   .     S
C901   C660    1.441   1_565 S
C902   H917    1.111   .     S
C902   H916    1.111   .     S
C902   C727    1.521   1_655 S
C902   H755    1.111   1_655 S
C903   C906    1.405   .     A
C903   H930    1.083   .     S
C904   H919    1.111   .     S
C904   H920    1.111   .     S
C905   H931    1.083   .     S
C905   C907    1.405   .     A
C906   H932    1.082   .     S
C906   N933    1.362   .     A
C907   N934    1.362   .     A
C907   H912    1.082   .     S
C908   H913    1.081   .     S
C908   N933    1.363   .     A
C908   C910    1.412   .     A
C909   N934    1.363   .     A
C909   H914    1.081   .     S
C910   S957    1.771   .     S
H918   C744    1.111   1_655 S
H921   O697    0.991   1_565 S
N933   Zn960   1.995   .     S
N934   Zn959   1.995   .     S
O935   Zn959   1.984   .     S
O936   S955    1.503   .     D
O937   S955    1.681   .     S
O939   S956    1.504   .     D
O940   S956    1.681   .     S
O940   H683    0.991   1_565 S
O941   S477    1.503   1_556 S
O942   S957    1.503   .     D
O943   H444    0.991   1_556 S
O943   S477    1.681   1_556 S
O944   S958    1.503   .     D
O945   S958    1.503   .     D
O946   Zn960   1.984   .     S
O947   S958    1.681   .     S
O947   H445    0.991   1_556 S
O948   Zn960   1.983   .     S
O949   Zn959   1.983   .     S
O950   Zn959   1.944   .     S
O951   Zn960   1.944   .     S
O952   Zn960   1.957   .     S
O953   Zn959   1.957   .     S
O954   S715    1.503   1_565 S
S956   O698    1.503   1_565 S
