data_str_m2_o10_o17_pcu_sym.213
_audit_creation_date              2020-01-03
_audit_creation_method            'Materials Studio'
_symmetry_space_group_name_H-M    'P1'
_symmetry_Int_Tables_number       1
_symmetry_cell_setting            triclinic
loop_
_symmetry_equiv_pos_as_xyz
  x,y,z
_cell_length_a                    30.0823
_cell_length_b                    26.2768
_cell_length_c                    22.3128
_cell_angle_alpha                 102.9534
_cell_angle_beta                  93.9283
_cell_angle_gamma                 92.4385
loop_
_atom_site_label
_atom_site_type_symbol
_atom_site_fract_x
_atom_site_fract_y
_atom_site_fract_z
_atom_site_U_iso_or_equiv
_atom_site_adp_type
_atom_site_occupancy
C1     C     0.24831   0.06679   0.15130   0.00000  Uiso   1.00
C2     C     0.25169   0.26654   0.18204   0.00000  Uiso   1.00
C3     C     0.02346   0.08917   0.20819   0.00000  Uiso   1.00
C4     C     0.47654   0.24417   0.12514   0.00000  Uiso   1.00
C5     C     0.24405   0.01111   0.14303   0.00000  Uiso   1.00
C6     C     0.25595   0.32223   0.19031   0.00000  Uiso   1.00
C7     C     0.16469   0.16700   0.16769   0.00000  Uiso   1.00
C8     C     0.33531   0.16634   0.16565   0.00000  Uiso   1.00
C9     C     0.40655   0.20506   0.14538   0.00000  Uiso   1.00
C10    C     0.09345   0.12828   0.18796   0.00000  Uiso   1.00
C11    C     0.38326   0.16471   0.16342   0.00000  Uiso   1.00
C12    C     0.11674   0.16862   0.16991   0.00000  Uiso   1.00
C13    C     0.40509   0.12354   0.18100   0.00000  Uiso   1.00
C14    C     0.09491   0.20980   0.15233   0.00000  Uiso   1.00
C15    C     0.45246   0.12441   0.18495   0.00000  Uiso   1.00
C16    C     0.04754   0.20892   0.14839   0.00000  Uiso   1.00
C17    C     0.47635   0.16565   0.16594   0.00000  Uiso   1.00
C18    C     0.02365   0.16768   0.16740   0.00000  Uiso   1.00
C19    C     0.45306   0.20508   0.14539   0.00000  Uiso   1.00
C20    C     0.04694   0.12825   0.18795   0.00000  Uiso   1.00
C21    C     0.47740   0.08673   0.20759   0.00000  Uiso   1.00
C22    C     0.02260   0.24660   0.12574   0.00000  Uiso   1.00
Cu23   Cu    0.25501   0.17246   0.22813   0.00000  Uiso   1.00
Cu24   Cu    0.24500   0.16087   0.10521   0.00000  Uiso   1.00
H25    H     0.04071   0.05961   0.22582   0.00000  Uiso   1.00
H26    H     0.45929   0.27373   0.10752   0.00000  Uiso   1.00
H27    H     0.21525   0.12607   0.31609   0.00000  Uiso   1.00
H28    H     0.28476   0.20726   0.01724   0.00000  Uiso   1.00
N29    N     0.23745   0.15214   0.01284   0.00000  Uiso   1.00
N30    N     0.26256   0.18119   0.32049   0.00000  Uiso   1.00
O31    O     0.25326   0.09538   0.20659   0.00000  Uiso   1.00
O32    O     0.24675   0.23796   0.12674   0.00000  Uiso   1.00
O33    O     0.24480   0.08559   0.10279   0.00000  Uiso   1.00
O34    O     0.25520   0.24774   0.23055   0.00000  Uiso   1.00
O35    O     0.18936   0.17155   0.21857   0.00000  Uiso   1.00
O36    O     0.31065   0.16179   0.11476   0.00000  Uiso   1.00
O37    O     0.18090   0.16176   0.11477   0.00000  Uiso   1.00
O38    O     0.31910   0.17157   0.21857   0.00000  Uiso   1.00
Cl39   Cl    0.37660   0.25642   0.12474   0.00000  Uiso   1.00
Cl40   Cl    0.12340   0.07691   0.20859   0.00000  Uiso   1.00
Cl41   Cl    0.37037   0.07063   0.19242   0.00000  Uiso   1.00
Cl42   Cl    0.12963   0.26270   0.14091   0.00000  Uiso   1.00
N43    N     0.45838   0.04626   0.23319   0.00000  Uiso   1.00
H44    H     0.43910   0.06241   0.26915   0.00000  Uiso   1.00
H45    H     0.44049   0.01808   0.19848   0.00000  Uiso   1.00
N46    N     0.04162   0.28708   0.10014   0.00000  Uiso   1.00
H47    H     0.06090   0.27093   0.06418   0.00000  Uiso   1.00
H48    H     0.05952   0.31525   0.13486   0.00000  Uiso   1.00
N49    N     0.22507   0.31417   0.08409   0.00000  Uiso   1.00
H50    H     0.19393   0.32806   0.07446   0.00000  Uiso   1.00
H51    H     0.24591   0.31983   0.05024   0.00000  Uiso   1.00
N52    N     0.27493   0.01916   0.24924   0.00000  Uiso   1.00
H53    H     0.30607   0.00527   0.25887   0.00000  Uiso   1.00
H54    H     0.25410   0.01351   0.28309   0.00000  Uiso   1.00
C55    C     0.74831   0.06679   0.15130   0.00000  Uiso   1.00
C56    C     0.75169   0.26654   0.18204   0.00000  Uiso   1.00
C57    C     0.52346   0.08917   0.20819   0.00000  Uiso   1.00
C58    C     0.97654   0.24417   0.12514   0.00000  Uiso   1.00
C59    C     0.74405   0.01111   0.14303   0.00000  Uiso   1.00
C60    C     0.75595   0.32223   0.19031   0.00000  Uiso   1.00
C61    C     0.66469   0.16700   0.16769   0.00000  Uiso   1.00
C62    C     0.83531   0.16634   0.16565   0.00000  Uiso   1.00
C63    C     0.90655   0.20506   0.14538   0.00000  Uiso   1.00
C64    C     0.59345   0.12828   0.18796   0.00000  Uiso   1.00
C65    C     0.88326   0.16471   0.16342   0.00000  Uiso   1.00
C66    C     0.61674   0.16862   0.16991   0.00000  Uiso   1.00
C67    C     0.90509   0.12354   0.18100   0.00000  Uiso   1.00
C68    C     0.59491   0.20980   0.15233   0.00000  Uiso   1.00
C69    C     0.95246   0.12441   0.18495   0.00000  Uiso   1.00
C70    C     0.54754   0.20892   0.14839   0.00000  Uiso   1.00
C71    C     0.97635   0.16565   0.16594   0.00000  Uiso   1.00
C72    C     0.52365   0.16768   0.16740   0.00000  Uiso   1.00
C73    C     0.95306   0.20508   0.14539   0.00000  Uiso   1.00
C74    C     0.54694   0.12825   0.18795   0.00000  Uiso   1.00
C75    C     0.97740   0.08673   0.20759   0.00000  Uiso   1.00
C76    C     0.52260   0.24660   0.12574   0.00000  Uiso   1.00
Cu77   Cu    0.75501   0.17246   0.22813   0.00000  Uiso   1.00
Cu78   Cu    0.74500   0.16087   0.10521   0.00000  Uiso   1.00
H79    H     0.54071   0.05961   0.22582   0.00000  Uiso   1.00
H80    H     0.95929   0.27373   0.10752   0.00000  Uiso   1.00
H81    H     0.71525   0.12607   0.31609   0.00000  Uiso   1.00
H82    H     0.78476   0.20726   0.01724   0.00000  Uiso   1.00
N83    N     0.73745   0.15214   0.01284   0.00000  Uiso   1.00
N84    N     0.76256   0.18119   0.32049   0.00000  Uiso   1.00
O85    O     0.75326   0.09538   0.20659   0.00000  Uiso   1.00
O86    O     0.74675   0.23796   0.12674   0.00000  Uiso   1.00
O87    O     0.74480   0.08559   0.10279   0.00000  Uiso   1.00
O88    O     0.75520   0.24774   0.23055   0.00000  Uiso   1.00
O89    O     0.68936   0.17155   0.21857   0.00000  Uiso   1.00
O90    O     0.81065   0.16179   0.11476   0.00000  Uiso   1.00
O91    O     0.68090   0.16176   0.11477   0.00000  Uiso   1.00
O92    O     0.81910   0.17157   0.21857   0.00000  Uiso   1.00
Cl93   Cl    0.87660   0.25642   0.12474   0.00000  Uiso   1.00
Cl94   Cl    0.62340   0.07691   0.20859   0.00000  Uiso   1.00
Cl95   Cl    0.87037   0.07063   0.19242   0.00000  Uiso   1.00
Cl96   Cl    0.62963   0.26270   0.14091   0.00000  Uiso   1.00
N97    N     0.95838   0.04626   0.23319   0.00000  Uiso   1.00
H98    H     0.93910   0.06241   0.26915   0.00000  Uiso   1.00
H99    H     0.94049   0.01808   0.19848   0.00000  Uiso   1.00
N100   N     0.54162   0.28708   0.10014   0.00000  Uiso   1.00
H101   H     0.56090   0.27093   0.06418   0.00000  Uiso   1.00
H102   H     0.55952   0.31525   0.13486   0.00000  Uiso   1.00
N103   N     0.72507   0.31417   0.08409   0.00000  Uiso   1.00
H104   H     0.69393   0.32806   0.07446   0.00000  Uiso   1.00
H105   H     0.74591   0.31983   0.05024   0.00000  Uiso   1.00
N106   N     0.77493   0.01916   0.24924   0.00000  Uiso   1.00
H107   H     0.80607   0.00527   0.25887   0.00000  Uiso   1.00
H108   H     0.75410   0.01351   0.28309   0.00000  Uiso   1.00
C109   C     0.24831   0.40012   0.15130   0.00000  Uiso   1.00
C110   C     0.25169   0.59988   0.18204   0.00000  Uiso   1.00
C111   C     0.02346   0.42250   0.20819   0.00000  Uiso   1.00
C112   C     0.47654   0.57750   0.12514   0.00000  Uiso   1.00
C113   C     0.24405   0.34444   0.14303   0.00000  Uiso   1.00
C114   C     0.25595   0.65556   0.19031   0.00000  Uiso   1.00
C115   C     0.16469   0.50033   0.16769   0.00000  Uiso   1.00
C116   C     0.33531   0.49967   0.16565   0.00000  Uiso   1.00
C117   C     0.40655   0.53839   0.14538   0.00000  Uiso   1.00
C118   C     0.09345   0.46161   0.18796   0.00000  Uiso   1.00
C119   C     0.38326   0.49804   0.16342   0.00000  Uiso   1.00
C120   C     0.11674   0.50196   0.16991   0.00000  Uiso   1.00
C121   C     0.40509   0.45687   0.18100   0.00000  Uiso   1.00
C122   C     0.09491   0.54313   0.15233   0.00000  Uiso   1.00
C123   C     0.45246   0.45774   0.18495   0.00000  Uiso   1.00
C124   C     0.04754   0.54226   0.14839   0.00000  Uiso   1.00
C125   C     0.47635   0.49899   0.16594   0.00000  Uiso   1.00
C126   C     0.02365   0.50101   0.16740   0.00000  Uiso   1.00
C127   C     0.45306   0.53841   0.14539   0.00000  Uiso   1.00
C128   C     0.04694   0.46159   0.18795   0.00000  Uiso   1.00
C129   C     0.47740   0.42006   0.20759   0.00000  Uiso   1.00
C130   C     0.02260   0.57994   0.12574   0.00000  Uiso   1.00
Cu131  Cu    0.25501   0.50579   0.22813   0.00000  Uiso   1.00
Cu132  Cu    0.24500   0.49421   0.10521   0.00000  Uiso   1.00
H133   H     0.04071   0.39294   0.22582   0.00000  Uiso   1.00
H134   H     0.45929   0.60706   0.10752   0.00000  Uiso   1.00
H135   H     0.21525   0.45941   0.31609   0.00000  Uiso   1.00
H136   H     0.28476   0.54059   0.01724   0.00000  Uiso   1.00
N137   N     0.23745   0.48547   0.01284   0.00000  Uiso   1.00
N138   N     0.26256   0.51453   0.32049   0.00000  Uiso   1.00
O139   O     0.25326   0.42871   0.20659   0.00000  Uiso   1.00
O140   O     0.24675   0.57129   0.12674   0.00000  Uiso   1.00
O141   O     0.24480   0.41892   0.10279   0.00000  Uiso   1.00
O142   O     0.25520   0.58108   0.23055   0.00000  Uiso   1.00
O143   O     0.18936   0.50488   0.21857   0.00000  Uiso   1.00
O144   O     0.31065   0.49512   0.11476   0.00000  Uiso   1.00
O145   O     0.18090   0.49510   0.11477   0.00000  Uiso   1.00
O146   O     0.31910   0.50490   0.21857   0.00000  Uiso   1.00
Cl147  Cl    0.37660   0.58976   0.12474   0.00000  Uiso   1.00
Cl148  Cl    0.12340   0.41024   0.20859   0.00000  Uiso   1.00
Cl149  Cl    0.37037   0.40396   0.19242   0.00000  Uiso   1.00
Cl150  Cl    0.12963   0.59604   0.14091   0.00000  Uiso   1.00
N151   N     0.45838   0.37959   0.23319   0.00000  Uiso   1.00
H152   H     0.43910   0.39574   0.26915   0.00000  Uiso   1.00
H153   H     0.44049   0.35142   0.19848   0.00000  Uiso   1.00
N154   N     0.04162   0.62041   0.10014   0.00000  Uiso   1.00
H155   H     0.06090   0.60426   0.06418   0.00000  Uiso   1.00
H156   H     0.05952   0.64858   0.13486   0.00000  Uiso   1.00
N157   N     0.22507   0.64750   0.08409   0.00000  Uiso   1.00
H158   H     0.19393   0.66140   0.07446   0.00000  Uiso   1.00
H159   H     0.24591   0.65316   0.05024   0.00000  Uiso   1.00
N160   N     0.27493   0.35250   0.24924   0.00000  Uiso   1.00
H161   H     0.30607   0.33860   0.25887   0.00000  Uiso   1.00
H162   H     0.25410   0.34684   0.28309   0.00000  Uiso   1.00
C163   C     0.74831   0.40012   0.15130   0.00000  Uiso   1.00
C164   C     0.75169   0.59988   0.18204   0.00000  Uiso   1.00
C165   C     0.52346   0.42250   0.20819   0.00000  Uiso   1.00
C166   C     0.97654   0.57750   0.12514   0.00000  Uiso   1.00
C167   C     0.74405   0.34444   0.14303   0.00000  Uiso   1.00
C168   C     0.75595   0.65556   0.19031   0.00000  Uiso   1.00
C169   C     0.66469   0.50033   0.16769   0.00000  Uiso   1.00
C170   C     0.83531   0.49967   0.16565   0.00000  Uiso   1.00
C171   C     0.90655   0.53839   0.14538   0.00000  Uiso   1.00
C172   C     0.59345   0.46161   0.18796   0.00000  Uiso   1.00
C173   C     0.88326   0.49804   0.16342   0.00000  Uiso   1.00
C174   C     0.61674   0.50196   0.16991   0.00000  Uiso   1.00
C175   C     0.90509   0.45687   0.18100   0.00000  Uiso   1.00
C176   C     0.59491   0.54313   0.15233   0.00000  Uiso   1.00
C177   C     0.95246   0.45774   0.18495   0.00000  Uiso   1.00
C178   C     0.54754   0.54226   0.14839   0.00000  Uiso   1.00
C179   C     0.97635   0.49899   0.16594   0.00000  Uiso   1.00
C180   C     0.52365   0.50101   0.16740   0.00000  Uiso   1.00
C181   C     0.95306   0.53841   0.14539   0.00000  Uiso   1.00
C182   C     0.54694   0.46159   0.18795   0.00000  Uiso   1.00
C183   C     0.97740   0.42006   0.20759   0.00000  Uiso   1.00
C184   C     0.52260   0.57994   0.12574   0.00000  Uiso   1.00
Cu185  Cu    0.75501   0.50579   0.22813   0.00000  Uiso   1.00
Cu186  Cu    0.74500   0.49421   0.10521   0.00000  Uiso   1.00
H187   H     0.54071   0.39294   0.22582   0.00000  Uiso   1.00
H188   H     0.95929   0.60706   0.10752   0.00000  Uiso   1.00
H189   H     0.71525   0.45941   0.31609   0.00000  Uiso   1.00
H190   H     0.78476   0.54059   0.01724   0.00000  Uiso   1.00
N191   N     0.73745   0.48547   0.01284   0.00000  Uiso   1.00
N192   N     0.76256   0.51453   0.32049   0.00000  Uiso   1.00
O193   O     0.75326   0.42871   0.20659   0.00000  Uiso   1.00
O194   O     0.74675   0.57129   0.12674   0.00000  Uiso   1.00
O195   O     0.74480   0.41892   0.10279   0.00000  Uiso   1.00
O196   O     0.75520   0.58108   0.23055   0.00000  Uiso   1.00
O197   O     0.68936   0.50488   0.21857   0.00000  Uiso   1.00
O198   O     0.81065   0.49512   0.11476   0.00000  Uiso   1.00
O199   O     0.68090   0.49510   0.11477   0.00000  Uiso   1.00
O200   O     0.81910   0.50490   0.21857   0.00000  Uiso   1.00
Cl201  Cl    0.87660   0.58976   0.12474   0.00000  Uiso   1.00
Cl202  Cl    0.62340   0.41024   0.20859   0.00000  Uiso   1.00
Cl203  Cl    0.87037   0.40396   0.19242   0.00000  Uiso   1.00
Cl204  Cl    0.62963   0.59604   0.14091   0.00000  Uiso   1.00
N205   N     0.95838   0.37959   0.23319   0.00000  Uiso   1.00
H206   H     0.93910   0.39574   0.26915   0.00000  Uiso   1.00
H207   H     0.94049   0.35142   0.19848   0.00000  Uiso   1.00
N208   N     0.54162   0.62041   0.10014   0.00000  Uiso   1.00
H209   H     0.56090   0.60426   0.06418   0.00000  Uiso   1.00
H210   H     0.55952   0.64858   0.13486   0.00000  Uiso   1.00
N211   N     0.72507   0.64750   0.08409   0.00000  Uiso   1.00
H212   H     0.69393   0.66140   0.07446   0.00000  Uiso   1.00
H213   H     0.74591   0.65316   0.05024   0.00000  Uiso   1.00
N214   N     0.77493   0.35250   0.24924   0.00000  Uiso   1.00
H215   H     0.80607   0.33860   0.25887   0.00000  Uiso   1.00
H216   H     0.75410   0.34684   0.28309   0.00000  Uiso   1.00
C217   C     0.24831   0.73346   0.15130   0.00000  Uiso   1.00
C218   C     0.25169   0.93321   0.18204   0.00000  Uiso   1.00
C219   C     0.02346   0.75584   0.20819   0.00000  Uiso   1.00
C220   C     0.47654   0.91083   0.12514   0.00000  Uiso   1.00
C221   C     0.24405   0.67777   0.14303   0.00000  Uiso   1.00
C222   C     0.25595   0.98889   0.19031   0.00000  Uiso   1.00
C223   C     0.16469   0.83366   0.16769   0.00000  Uiso   1.00
C224   C     0.33531   0.83301   0.16565   0.00000  Uiso   1.00
C225   C     0.40655   0.87173   0.14538   0.00000  Uiso   1.00
C226   C     0.09345   0.79494   0.18796   0.00000  Uiso   1.00
C227   C     0.38326   0.83138   0.16342   0.00000  Uiso   1.00
C228   C     0.11674   0.83529   0.16991   0.00000  Uiso   1.00
C229   C     0.40509   0.79020   0.18100   0.00000  Uiso   1.00
C230   C     0.09491   0.87647   0.15233   0.00000  Uiso   1.00
C231   C     0.45246   0.79108   0.18495   0.00000  Uiso   1.00
C232   C     0.04754   0.87559   0.14839   0.00000  Uiso   1.00
C233   C     0.47635   0.83232   0.16594   0.00000  Uiso   1.00
C234   C     0.02365   0.83435   0.16740   0.00000  Uiso   1.00
C235   C     0.45306   0.87175   0.14539   0.00000  Uiso   1.00
C236   C     0.04694   0.79492   0.18795   0.00000  Uiso   1.00
C237   C     0.47740   0.75340   0.20759   0.00000  Uiso   1.00
C238   C     0.02260   0.91327   0.12574   0.00000  Uiso   1.00
Cu239  Cu    0.25501   0.83913   0.22813   0.00000  Uiso   1.00
Cu240  Cu    0.24500   0.82754   0.10521   0.00000  Uiso   1.00
H241   H     0.04071   0.72627   0.22582   0.00000  Uiso   1.00
H242   H     0.45929   0.94039   0.10752   0.00000  Uiso   1.00
H243   H     0.21525   0.79274   0.31609   0.00000  Uiso   1.00
H244   H     0.28476   0.87393   0.01724   0.00000  Uiso   1.00
N245   N     0.23745   0.81881   0.01284   0.00000  Uiso   1.00
N246   N     0.26256   0.84786   0.32049   0.00000  Uiso   1.00
O247   O     0.25326   0.76204   0.20659   0.00000  Uiso   1.00
O248   O     0.24675   0.90462   0.12674   0.00000  Uiso   1.00
O249   O     0.24480   0.75226   0.10279   0.00000  Uiso   1.00
O250   O     0.25520   0.91441   0.23055   0.00000  Uiso   1.00
O251   O     0.18936   0.83821   0.21857   0.00000  Uiso   1.00
O252   O     0.31065   0.82845   0.11476   0.00000  Uiso   1.00
O253   O     0.18090   0.82843   0.11477   0.00000  Uiso   1.00
O254   O     0.31910   0.83824   0.21857   0.00000  Uiso   1.00
Cl255  Cl    0.37660   0.92309   0.12474   0.00000  Uiso   1.00
Cl256  Cl    0.12340   0.74358   0.20859   0.00000  Uiso   1.00
Cl257  Cl    0.37037   0.73730   0.19242   0.00000  Uiso   1.00
Cl258  Cl    0.12963   0.92937   0.14091   0.00000  Uiso   1.00
N259   N     0.45838   0.71292   0.23319   0.00000  Uiso   1.00
H260   H     0.43910   0.72907   0.26915   0.00000  Uiso   1.00
H261   H     0.44049   0.68475   0.19848   0.00000  Uiso   1.00
N262   N     0.04162   0.95375   0.10014   0.00000  Uiso   1.00
H263   H     0.06090   0.93760   0.06418   0.00000  Uiso   1.00
H264   H     0.05952   0.98192   0.13486   0.00000  Uiso   1.00
N265   N     0.22507   0.98083   0.08409   0.00000  Uiso   1.00
H266   H     0.19393   0.99473   0.07446   0.00000  Uiso   1.00
H267   H     0.24591   0.98649   0.05024   0.00000  Uiso   1.00
N268   N     0.27493   0.68583   0.24924   0.00000  Uiso   1.00
H269   H     0.30607   0.67193   0.25887   0.00000  Uiso   1.00
H270   H     0.25410   0.68017   0.28309   0.00000  Uiso   1.00
C271   C     0.74831   0.73346   0.15130   0.00000  Uiso   1.00
C272   C     0.75169   0.93321   0.18204   0.00000  Uiso   1.00
C273   C     0.52346   0.75584   0.20819   0.00000  Uiso   1.00
C274   C     0.97654   0.91083   0.12514   0.00000  Uiso   1.00
C275   C     0.74405   0.67777   0.14303   0.00000  Uiso   1.00
C276   C     0.75595   0.98889   0.19031   0.00000  Uiso   1.00
C277   C     0.66469   0.83366   0.16769   0.00000  Uiso   1.00
C278   C     0.83531   0.83301   0.16565   0.00000  Uiso   1.00
C279   C     0.90655   0.87173   0.14538   0.00000  Uiso   1.00
C280   C     0.59345   0.79494   0.18796   0.00000  Uiso   1.00
C281   C     0.88326   0.83138   0.16342   0.00000  Uiso   1.00
C282   C     0.61674   0.83529   0.16991   0.00000  Uiso   1.00
C283   C     0.90509   0.79020   0.18100   0.00000  Uiso   1.00
C284   C     0.59491   0.87647   0.15233   0.00000  Uiso   1.00
C285   C     0.95246   0.79108   0.18495   0.00000  Uiso   1.00
C286   C     0.54754   0.87559   0.14839   0.00000  Uiso   1.00
C287   C     0.97635   0.83232   0.16594   0.00000  Uiso   1.00
C288   C     0.52365   0.83435   0.16740   0.00000  Uiso   1.00
C289   C     0.95306   0.87175   0.14539   0.00000  Uiso   1.00
C290   C     0.54694   0.79492   0.18795   0.00000  Uiso   1.00
C291   C     0.97740   0.75340   0.20759   0.00000  Uiso   1.00
C292   C     0.52260   0.91327   0.12574   0.00000  Uiso   1.00
Cu293  Cu    0.75501   0.83913   0.22813   0.00000  Uiso   1.00
Cu294  Cu    0.74500   0.82754   0.10521   0.00000  Uiso   1.00
H295   H     0.54071   0.72627   0.22582   0.00000  Uiso   1.00
H296   H     0.95929   0.94039   0.10752   0.00000  Uiso   1.00
H297   H     0.71525   0.79274   0.31609   0.00000  Uiso   1.00
H298   H     0.78476   0.87393   0.01724   0.00000  Uiso   1.00
N299   N     0.73745   0.81881   0.01284   0.00000  Uiso   1.00
N300   N     0.76256   0.84786   0.32049   0.00000  Uiso   1.00
O301   O     0.75326   0.76204   0.20659   0.00000  Uiso   1.00
O302   O     0.74675   0.90462   0.12674   0.00000  Uiso   1.00
O303   O     0.74480   0.75226   0.10279   0.00000  Uiso   1.00
O304   O     0.75520   0.91441   0.23055   0.00000  Uiso   1.00
O305   O     0.68936   0.83821   0.21857   0.00000  Uiso   1.00
O306   O     0.81065   0.82845   0.11476   0.00000  Uiso   1.00
O307   O     0.68090   0.82843   0.11477   0.00000  Uiso   1.00
O308   O     0.81910   0.83824   0.21857   0.00000  Uiso   1.00
Cl309  Cl    0.87660   0.92309   0.12474   0.00000  Uiso   1.00
Cl310  Cl    0.62340   0.74358   0.20859   0.00000  Uiso   1.00
Cl311  Cl    0.87037   0.73730   0.19242   0.00000  Uiso   1.00
Cl312  Cl    0.62963   0.92937   0.14091   0.00000  Uiso   1.00
N313   N     0.95838   0.71292   0.23319   0.00000  Uiso   1.00
H314   H     0.93910   0.72907   0.26915   0.00000  Uiso   1.00
H315   H     0.94049   0.68475   0.19848   0.00000  Uiso   1.00
N316   N     0.54162   0.95375   0.10014   0.00000  Uiso   1.00
H317   H     0.56090   0.93760   0.06418   0.00000  Uiso   1.00
H318   H     0.55952   0.98192   0.13486   0.00000  Uiso   1.00
N319   N     0.72507   0.98083   0.08409   0.00000  Uiso   1.00
H320   H     0.69393   0.99473   0.07446   0.00000  Uiso   1.00
H321   H     0.74591   0.98649   0.05024   0.00000  Uiso   1.00
N322   N     0.77493   0.68583   0.24924   0.00000  Uiso   1.00
H323   H     0.80607   0.67193   0.25887   0.00000  Uiso   1.00
H324   H     0.75410   0.68017   0.28309   0.00000  Uiso   1.00
C325   C     0.24831   0.06679   0.48463   0.00000  Uiso   1.00
C326   C     0.25169   0.26654   0.51537   0.00000  Uiso   1.00
C327   C     0.02346   0.08917   0.54152   0.00000  Uiso   1.00
C328   C     0.47654   0.24417   0.45848   0.00000  Uiso   1.00
C329   C     0.24405   0.01111   0.47636   0.00000  Uiso   1.00
C330   C     0.25595   0.32223   0.52364   0.00000  Uiso   1.00
C331   C     0.16469   0.16700   0.50102   0.00000  Uiso   1.00
C332   C     0.33531   0.16634   0.49898   0.00000  Uiso   1.00
C333   C     0.40655   0.20506   0.47871   0.00000  Uiso   1.00
C334   C     0.09345   0.12828   0.52129   0.00000  Uiso   1.00
C335   C     0.38326   0.16471   0.49676   0.00000  Uiso   1.00
C336   C     0.11674   0.16862   0.50324   0.00000  Uiso   1.00
C337   C     0.40509   0.12354   0.51434   0.00000  Uiso   1.00
C338   C     0.09491   0.20980   0.48566   0.00000  Uiso   1.00
C339   C     0.45246   0.12441   0.51828   0.00000  Uiso   1.00
C340   C     0.04754   0.20892   0.48172   0.00000  Uiso   1.00
C341   C     0.47635   0.16565   0.49927   0.00000  Uiso   1.00
C342   C     0.02365   0.16768   0.50073   0.00000  Uiso   1.00
C343   C     0.45306   0.20508   0.47872   0.00000  Uiso   1.00
C344   C     0.04694   0.12825   0.52128   0.00000  Uiso   1.00
C345   C     0.47740   0.08673   0.54092   0.00000  Uiso   1.00
C346   C     0.02260   0.24660   0.45908   0.00000  Uiso   1.00
Cu347  Cu    0.25501   0.17246   0.56146   0.00000  Uiso   1.00
Cu348  Cu    0.24500   0.16087   0.43854   0.00000  Uiso   1.00
H349   H     0.04071   0.05961   0.55915   0.00000  Uiso   1.00
H350   H     0.45929   0.27373   0.44085   0.00000  Uiso   1.00
H351   H     0.21525   0.12607   0.64942   0.00000  Uiso   1.00
H352   H     0.28476   0.20726   0.35058   0.00000  Uiso   1.00
N353   N     0.23745   0.15214   0.34617   0.00000  Uiso   1.00
N354   N     0.26256   0.18119   0.65383   0.00000  Uiso   1.00
O355   O     0.25326   0.09538   0.53992   0.00000  Uiso   1.00
O356   O     0.24675   0.23796   0.46008   0.00000  Uiso   1.00
O357   O     0.24480   0.08559   0.43612   0.00000  Uiso   1.00
O358   O     0.25520   0.24774   0.56388   0.00000  Uiso   1.00
O359   O     0.18936   0.17155   0.55191   0.00000  Uiso   1.00
O360   O     0.31065   0.16179   0.44809   0.00000  Uiso   1.00
O361   O     0.18090   0.16176   0.44810   0.00000  Uiso   1.00
O362   O     0.31910   0.17157   0.55190   0.00000  Uiso   1.00
Cl363  Cl    0.37660   0.25642   0.45808   0.00000  Uiso   1.00
Cl364  Cl    0.12340   0.07691   0.54192   0.00000  Uiso   1.00
Cl365  Cl    0.37037   0.07063   0.52575   0.00000  Uiso   1.00
Cl366  Cl    0.12963   0.26270   0.47425   0.00000  Uiso   1.00
N367   N     0.45838   0.04626   0.56653   0.00000  Uiso   1.00
H368   H     0.43910   0.06241   0.60248   0.00000  Uiso   1.00
H369   H     0.44049   0.01808   0.53181   0.00000  Uiso   1.00
N370   N     0.04162   0.28708   0.43348   0.00000  Uiso   1.00
H371   H     0.06090   0.27093   0.39752   0.00000  Uiso   1.00
H372   H     0.05952   0.31525   0.46819   0.00000  Uiso   1.00
N373   N     0.22507   0.31417   0.41742   0.00000  Uiso   1.00
H374   H     0.19393   0.32806   0.40779   0.00000  Uiso   1.00
H375   H     0.24591   0.31983   0.38357   0.00000  Uiso   1.00
N376   N     0.27493   0.01916   0.58257   0.00000  Uiso   1.00
H377   H     0.30607   0.00527   0.59220   0.00000  Uiso   1.00
H378   H     0.25410   0.01351   0.61643   0.00000  Uiso   1.00
C379   C     0.74831   0.06679   0.48463   0.00000  Uiso   1.00
C380   C     0.75169   0.26654   0.51537   0.00000  Uiso   1.00
C381   C     0.52346   0.08917   0.54152   0.00000  Uiso   1.00
C382   C     0.97654   0.24417   0.45848   0.00000  Uiso   1.00
C383   C     0.74405   0.01111   0.47636   0.00000  Uiso   1.00
C384   C     0.75595   0.32223   0.52364   0.00000  Uiso   1.00
C385   C     0.66469   0.16700   0.50102   0.00000  Uiso   1.00
C386   C     0.83531   0.16634   0.49898   0.00000  Uiso   1.00
C387   C     0.90655   0.20506   0.47871   0.00000  Uiso   1.00
C388   C     0.59345   0.12828   0.52129   0.00000  Uiso   1.00
C389   C     0.88326   0.16471   0.49676   0.00000  Uiso   1.00
C390   C     0.61674   0.16862   0.50324   0.00000  Uiso   1.00
C391   C     0.90509   0.12354   0.51434   0.00000  Uiso   1.00
C392   C     0.59491   0.20980   0.48566   0.00000  Uiso   1.00
C393   C     0.95246   0.12441   0.51828   0.00000  Uiso   1.00
C394   C     0.54754   0.20892   0.48172   0.00000  Uiso   1.00
C395   C     0.97635   0.16565   0.49927   0.00000  Uiso   1.00
C396   C     0.52365   0.16768   0.50073   0.00000  Uiso   1.00
C397   C     0.95306   0.20508   0.47872   0.00000  Uiso   1.00
C398   C     0.54694   0.12825   0.52128   0.00000  Uiso   1.00
C399   C     0.97740   0.08673   0.54092   0.00000  Uiso   1.00
C400   C     0.52260   0.24660   0.45908   0.00000  Uiso   1.00
Cu401  Cu    0.75501   0.17246   0.56146   0.00000  Uiso   1.00
Cu402  Cu    0.74500   0.16087   0.43854   0.00000  Uiso   1.00
H403   H     0.54071   0.05961   0.55915   0.00000  Uiso   1.00
H404   H     0.95929   0.27373   0.44085   0.00000  Uiso   1.00
H405   H     0.71525   0.12607   0.64942   0.00000  Uiso   1.00
H406   H     0.78476   0.20726   0.35058   0.00000  Uiso   1.00
N407   N     0.73745   0.15214   0.34617   0.00000  Uiso   1.00
N408   N     0.76256   0.18119   0.65383   0.00000  Uiso   1.00
O409   O     0.75326   0.09538   0.53992   0.00000  Uiso   1.00
O410   O     0.74675   0.23796   0.46008   0.00000  Uiso   1.00
O411   O     0.74480   0.08559   0.43612   0.00000  Uiso   1.00
O412   O     0.75520   0.24774   0.56388   0.00000  Uiso   1.00
O413   O     0.68936   0.17155   0.55191   0.00000  Uiso   1.00
O414   O     0.81065   0.16179   0.44809   0.00000  Uiso   1.00
O415   O     0.68090   0.16176   0.44810   0.00000  Uiso   1.00
O416   O     0.81910   0.17157   0.55190   0.00000  Uiso   1.00
Cl417  Cl    0.87660   0.25642   0.45808   0.00000  Uiso   1.00
Cl418  Cl    0.62340   0.07691   0.54192   0.00000  Uiso   1.00
Cl419  Cl    0.87037   0.07063   0.52575   0.00000  Uiso   1.00
Cl420  Cl    0.62963   0.26270   0.47425   0.00000  Uiso   1.00
N421   N     0.95838   0.04626   0.56653   0.00000  Uiso   1.00
H422   H     0.93910   0.06241   0.60248   0.00000  Uiso   1.00
H423   H     0.94049   0.01808   0.53181   0.00000  Uiso   1.00
N424   N     0.54162   0.28708   0.43348   0.00000  Uiso   1.00
H425   H     0.56090   0.27093   0.39752   0.00000  Uiso   1.00
H426   H     0.55952   0.31525   0.46819   0.00000  Uiso   1.00
N427   N     0.72507   0.31417   0.41742   0.00000  Uiso   1.00
H428   H     0.69393   0.32806   0.40779   0.00000  Uiso   1.00
H429   H     0.74591   0.31983   0.38357   0.00000  Uiso   1.00
N430   N     0.77493   0.01916   0.58257   0.00000  Uiso   1.00
H431   H     0.80607   0.00527   0.59220   0.00000  Uiso   1.00
H432   H     0.75410   0.01351   0.61643   0.00000  Uiso   1.00
C433   C     0.24831   0.40012   0.48463   0.00000  Uiso   1.00
C434   C     0.25169   0.59988   0.51537   0.00000  Uiso   1.00
C435   C     0.02346   0.42250   0.54152   0.00000  Uiso   1.00
C436   C     0.47654   0.57750   0.45848   0.00000  Uiso   1.00
C437   C     0.24405   0.34444   0.47636   0.00000  Uiso   1.00
C438   C     0.25595   0.65556   0.52364   0.00000  Uiso   1.00
C439   C     0.16469   0.50033   0.50102   0.00000  Uiso   1.00
C440   C     0.33531   0.49967   0.49898   0.00000  Uiso   1.00
C441   C     0.40655   0.53839   0.47871   0.00000  Uiso   1.00
C442   C     0.09345   0.46161   0.52129   0.00000  Uiso   1.00
C443   C     0.38326   0.49804   0.49676   0.00000  Uiso   1.00
C444   C     0.11674   0.50196   0.50324   0.00000  Uiso   1.00
C445   C     0.40509   0.45687   0.51434   0.00000  Uiso   1.00
C446   C     0.09491   0.54313   0.48566   0.00000  Uiso   1.00
C447   C     0.45246   0.45774   0.51828   0.00000  Uiso   1.00
C448   C     0.04754   0.54226   0.48172   0.00000  Uiso   1.00
C449   C     0.47635   0.49899   0.49927   0.00000  Uiso   1.00
C450   C     0.02365   0.50101   0.50073   0.00000  Uiso   1.00
C451   C     0.45306   0.53841   0.47872   0.00000  Uiso   1.00
C452   C     0.04694   0.46159   0.52128   0.00000  Uiso   1.00
C453   C     0.47740   0.42006   0.54092   0.00000  Uiso   1.00
C454   C     0.02260   0.57994   0.45908   0.00000  Uiso   1.00
Cu455  Cu    0.25501   0.50579   0.56146   0.00000  Uiso   1.00
Cu456  Cu    0.24500   0.49421   0.43854   0.00000  Uiso   1.00
H457   H     0.04071   0.39294   0.55915   0.00000  Uiso   1.00
H458   H     0.45929   0.60706   0.44085   0.00000  Uiso   1.00
H459   H     0.21525   0.45941   0.64942   0.00000  Uiso   1.00
H460   H     0.28476   0.54059   0.35058   0.00000  Uiso   1.00
N461   N     0.23745   0.48547   0.34617   0.00000  Uiso   1.00
N462   N     0.26256   0.51453   0.65383   0.00000  Uiso   1.00
O463   O     0.25326   0.42871   0.53992   0.00000  Uiso   1.00
O464   O     0.24675   0.57129   0.46008   0.00000  Uiso   1.00
O465   O     0.24480   0.41892   0.43612   0.00000  Uiso   1.00
O466   O     0.25520   0.58108   0.56388   0.00000  Uiso   1.00
O467   O     0.18936   0.50488   0.55191   0.00000  Uiso   1.00
O468   O     0.31065   0.49512   0.44809   0.00000  Uiso   1.00
O469   O     0.18090   0.49510   0.44810   0.00000  Uiso   1.00
O470   O     0.31910   0.50490   0.55190   0.00000  Uiso   1.00
Cl471  Cl    0.37660   0.58976   0.45808   0.00000  Uiso   1.00
Cl472  Cl    0.12340   0.41024   0.54192   0.00000  Uiso   1.00
Cl473  Cl    0.37037   0.40396   0.52575   0.00000  Uiso   1.00
Cl474  Cl    0.12963   0.59604   0.47425   0.00000  Uiso   1.00
N475   N     0.45838   0.37959   0.56653   0.00000  Uiso   1.00
H476   H     0.43910   0.39574   0.60248   0.00000  Uiso   1.00
H477   H     0.44049   0.35142   0.53181   0.00000  Uiso   1.00
N478   N     0.04162   0.62041   0.43348   0.00000  Uiso   1.00
H479   H     0.06090   0.60426   0.39752   0.00000  Uiso   1.00
H480   H     0.05952   0.64858   0.46819   0.00000  Uiso   1.00
N481   N     0.22507   0.64750   0.41742   0.00000  Uiso   1.00
H482   H     0.19393   0.66140   0.40779   0.00000  Uiso   1.00
H483   H     0.24591   0.65316   0.38357   0.00000  Uiso   1.00
N484   N     0.27493   0.35250   0.58257   0.00000  Uiso   1.00
H485   H     0.30607   0.33860   0.59220   0.00000  Uiso   1.00
H486   H     0.25410   0.34684   0.61643   0.00000  Uiso   1.00
C487   C     0.74831   0.40012   0.48463   0.00000  Uiso   1.00
C488   C     0.75169   0.59988   0.51537   0.00000  Uiso   1.00
C489   C     0.52346   0.42250   0.54152   0.00000  Uiso   1.00
C490   C     0.97654   0.57750   0.45848   0.00000  Uiso   1.00
C491   C     0.74405   0.34444   0.47636   0.00000  Uiso   1.00
C492   C     0.75595   0.65556   0.52364   0.00000  Uiso   1.00
C493   C     0.66469   0.50033   0.50102   0.00000  Uiso   1.00
C494   C     0.83531   0.49967   0.49898   0.00000  Uiso   1.00
C495   C     0.90655   0.53839   0.47871   0.00000  Uiso   1.00
C496   C     0.59345   0.46161   0.52129   0.00000  Uiso   1.00
C497   C     0.88326   0.49804   0.49676   0.00000  Uiso   1.00
C498   C     0.61674   0.50196   0.50324   0.00000  Uiso   1.00
C499   C     0.90509   0.45687   0.51434   0.00000  Uiso   1.00
C500   C     0.59491   0.54313   0.48566   0.00000  Uiso   1.00
C501   C     0.95246   0.45774   0.51828   0.00000  Uiso   1.00
C502   C     0.54754   0.54226   0.48172   0.00000  Uiso   1.00
C503   C     0.97635   0.49899   0.49927   0.00000  Uiso   1.00
C504   C     0.52365   0.50101   0.50073   0.00000  Uiso   1.00
C505   C     0.95306   0.53841   0.47872   0.00000  Uiso   1.00
C506   C     0.54694   0.46159   0.52128   0.00000  Uiso   1.00
C507   C     0.97740   0.42006   0.54092   0.00000  Uiso   1.00
C508   C     0.52260   0.57994   0.45908   0.00000  Uiso   1.00
Cu509  Cu    0.75501   0.50579   0.56146   0.00000  Uiso   1.00
Cu510  Cu    0.74500   0.49421   0.43854   0.00000  Uiso   1.00
H511   H     0.54071   0.39294   0.55915   0.00000  Uiso   1.00
H512   H     0.95929   0.60706   0.44085   0.00000  Uiso   1.00
H513   H     0.71525   0.45941   0.64942   0.00000  Uiso   1.00
H514   H     0.78476   0.54059   0.35058   0.00000  Uiso   1.00
N515   N     0.73745   0.48547   0.34617   0.00000  Uiso   1.00
N516   N     0.76256   0.51453   0.65383   0.00000  Uiso   1.00
O517   O     0.75326   0.42871   0.53992   0.00000  Uiso   1.00
O518   O     0.74675   0.57129   0.46008   0.00000  Uiso   1.00
O519   O     0.74480   0.41892   0.43612   0.00000  Uiso   1.00
O520   O     0.75520   0.58108   0.56388   0.00000  Uiso   1.00
O521   O     0.68936   0.50488   0.55191   0.00000  Uiso   1.00
O522   O     0.81065   0.49512   0.44809   0.00000  Uiso   1.00
O523   O     0.68090   0.49510   0.44810   0.00000  Uiso   1.00
O524   O     0.81910   0.50490   0.55190   0.00000  Uiso   1.00
Cl525  Cl    0.87660   0.58976   0.45808   0.00000  Uiso   1.00
Cl526  Cl    0.62340   0.41024   0.54192   0.00000  Uiso   1.00
Cl527  Cl    0.87037   0.40396   0.52575   0.00000  Uiso   1.00
Cl528  Cl    0.62963   0.59604   0.47425   0.00000  Uiso   1.00
N529   N     0.95838   0.37959   0.56653   0.00000  Uiso   1.00
H530   H     0.93910   0.39574   0.60248   0.00000  Uiso   1.00
H531   H     0.94049   0.35142   0.53181   0.00000  Uiso   1.00
N532   N     0.54162   0.62041   0.43348   0.00000  Uiso   1.00
H533   H     0.56090   0.60426   0.39752   0.00000  Uiso   1.00
H534   H     0.55952   0.64858   0.46819   0.00000  Uiso   1.00
N535   N     0.72507   0.64750   0.41742   0.00000  Uiso   1.00
H536   H     0.69393   0.66140   0.40779   0.00000  Uiso   1.00
H537   H     0.74591   0.65316   0.38357   0.00000  Uiso   1.00
N538   N     0.77493   0.35250   0.58257   0.00000  Uiso   1.00
H539   H     0.80607   0.33860   0.59220   0.00000  Uiso   1.00
H540   H     0.75410   0.34684   0.61643   0.00000  Uiso   1.00
C541   C     0.24831   0.73346   0.48463   0.00000  Uiso   1.00
C542   C     0.25169   0.93321   0.51537   0.00000  Uiso   1.00
C543   C     0.02346   0.75584   0.54152   0.00000  Uiso   1.00
C544   C     0.47654   0.91083   0.45848   0.00000  Uiso   1.00
C545   C     0.24405   0.67777   0.47636   0.00000  Uiso   1.00
C546   C     0.25595   0.98889   0.52364   0.00000  Uiso   1.00
C547   C     0.16469   0.83366   0.50102   0.00000  Uiso   1.00
C548   C     0.33531   0.83301   0.49898   0.00000  Uiso   1.00
C549   C     0.40655   0.87173   0.47871   0.00000  Uiso   1.00
C550   C     0.09345   0.79494   0.52129   0.00000  Uiso   1.00
C551   C     0.38326   0.83138   0.49676   0.00000  Uiso   1.00
C552   C     0.11674   0.83529   0.50324   0.00000  Uiso   1.00
C553   C     0.40509   0.79020   0.51434   0.00000  Uiso   1.00
C554   C     0.09491   0.87647   0.48566   0.00000  Uiso   1.00
C555   C     0.45246   0.79108   0.51828   0.00000  Uiso   1.00
C556   C     0.04754   0.87559   0.48172   0.00000  Uiso   1.00
C557   C     0.47635   0.83232   0.49927   0.00000  Uiso   1.00
C558   C     0.02365   0.83435   0.50073   0.00000  Uiso   1.00
C559   C     0.45306   0.87175   0.47872   0.00000  Uiso   1.00
C560   C     0.04694   0.79492   0.52128   0.00000  Uiso   1.00
C561   C     0.47740   0.75340   0.54092   0.00000  Uiso   1.00
C562   C     0.02260   0.91327   0.45908   0.00000  Uiso   1.00
Cu563  Cu    0.25501   0.83913   0.56146   0.00000  Uiso   1.00
Cu564  Cu    0.24500   0.82754   0.43854   0.00000  Uiso   1.00
H565   H     0.04071   0.72627   0.55915   0.00000  Uiso   1.00
H566   H     0.45929   0.94039   0.44085   0.00000  Uiso   1.00
H567   H     0.21525   0.79274   0.64942   0.00000  Uiso   1.00
H568   H     0.28476   0.87393   0.35058   0.00000  Uiso   1.00
N569   N     0.23745   0.81881   0.34617   0.00000  Uiso   1.00
N570   N     0.26256   0.84786   0.65383   0.00000  Uiso   1.00
O571   O     0.25326   0.76204   0.53992   0.00000  Uiso   1.00
O572   O     0.24675   0.90462   0.46008   0.00000  Uiso   1.00
O573   O     0.24480   0.75226   0.43612   0.00000  Uiso   1.00
O574   O     0.25520   0.91441   0.56388   0.00000  Uiso   1.00
O575   O     0.18936   0.83821   0.55191   0.00000  Uiso   1.00
O576   O     0.31065   0.82845   0.44809   0.00000  Uiso   1.00
O577   O     0.18090   0.82843   0.44810   0.00000  Uiso   1.00
O578   O     0.31910   0.83824   0.55190   0.00000  Uiso   1.00
Cl579  Cl    0.37660   0.92309   0.45808   0.00000  Uiso   1.00
Cl580  Cl    0.12340   0.74358   0.54192   0.00000  Uiso   1.00
Cl581  Cl    0.37037   0.73730   0.52575   0.00000  Uiso   1.00
Cl582  Cl    0.12963   0.92937   0.47425   0.00000  Uiso   1.00
N583   N     0.45838   0.71292   0.56653   0.00000  Uiso   1.00
H584   H     0.43910   0.72907   0.60248   0.00000  Uiso   1.00
H585   H     0.44049   0.68475   0.53181   0.00000  Uiso   1.00
N586   N     0.04162   0.95375   0.43348   0.00000  Uiso   1.00
H587   H     0.06090   0.93760   0.39752   0.00000  Uiso   1.00
H588   H     0.05952   0.98192   0.46819   0.00000  Uiso   1.00
N589   N     0.22507   0.98083   0.41742   0.00000  Uiso   1.00
H590   H     0.19393   0.99473   0.40779   0.00000  Uiso   1.00
H591   H     0.24591   0.98649   0.38357   0.00000  Uiso   1.00
N592   N     0.27493   0.68583   0.58257   0.00000  Uiso   1.00
H593   H     0.30607   0.67193   0.59220   0.00000  Uiso   1.00
H594   H     0.25410   0.68017   0.61643   0.00000  Uiso   1.00
C595   C     0.74831   0.73346   0.48463   0.00000  Uiso   1.00
C596   C     0.75169   0.93321   0.51537   0.00000  Uiso   1.00
C597   C     0.52346   0.75584   0.54152   0.00000  Uiso   1.00
C598   C     0.97654   0.91083   0.45848   0.00000  Uiso   1.00
C599   C     0.74405   0.67777   0.47636   0.00000  Uiso   1.00
C600   C     0.75595   0.98889   0.52364   0.00000  Uiso   1.00
C601   C     0.66469   0.83366   0.50102   0.00000  Uiso   1.00
C602   C     0.83531   0.83301   0.49898   0.00000  Uiso   1.00
C603   C     0.90655   0.87173   0.47871   0.00000  Uiso   1.00
C604   C     0.59345   0.79494   0.52129   0.00000  Uiso   1.00
C605   C     0.88326   0.83138   0.49676   0.00000  Uiso   1.00
C606   C     0.61674   0.83529   0.50324   0.00000  Uiso   1.00
C607   C     0.90509   0.79020   0.51434   0.00000  Uiso   1.00
C608   C     0.59491   0.87647   0.48566   0.00000  Uiso   1.00
C609   C     0.95246   0.79108   0.51828   0.00000  Uiso   1.00
C610   C     0.54754   0.87559   0.48172   0.00000  Uiso   1.00
C611   C     0.97635   0.83232   0.49927   0.00000  Uiso   1.00
C612   C     0.52365   0.83435   0.50073   0.00000  Uiso   1.00
C613   C     0.95306   0.87175   0.47872   0.00000  Uiso   1.00
C614   C     0.54694   0.79492   0.52128   0.00000  Uiso   1.00
C615   C     0.97740   0.75340   0.54092   0.00000  Uiso   1.00
C616   C     0.52260   0.91327   0.45908   0.00000  Uiso   1.00
Cu617  Cu    0.75501   0.83913   0.56146   0.00000  Uiso   1.00
Cu618  Cu    0.74500   0.82754   0.43854   0.00000  Uiso   1.00
H619   H     0.54071   0.72627   0.55915   0.00000  Uiso   1.00
H620   H     0.95929   0.94039   0.44085   0.00000  Uiso   1.00
H621   H     0.71525   0.79274   0.64942   0.00000  Uiso   1.00
H622   H     0.78476   0.87393   0.35058   0.00000  Uiso   1.00
N623   N     0.73745   0.81881   0.34617   0.00000  Uiso   1.00
N624   N     0.76256   0.84786   0.65383   0.00000  Uiso   1.00
O625   O     0.75326   0.76204   0.53992   0.00000  Uiso   1.00
O626   O     0.74675   0.90462   0.46008   0.00000  Uiso   1.00
O627   O     0.74480   0.75226   0.43612   0.00000  Uiso   1.00
O628   O     0.75520   0.91441   0.56388   0.00000  Uiso   1.00
O629   O     0.68936   0.83821   0.55191   0.00000  Uiso   1.00
O630   O     0.81065   0.82845   0.44809   0.00000  Uiso   1.00
O631   O     0.68090   0.82843   0.44810   0.00000  Uiso   1.00
O632   O     0.81910   0.83824   0.55190   0.00000  Uiso   1.00
Cl633  Cl    0.87660   0.92309   0.45808   0.00000  Uiso   1.00
Cl634  Cl    0.62340   0.74358   0.54192   0.00000  Uiso   1.00
Cl635  Cl    0.87037   0.73730   0.52575   0.00000  Uiso   1.00
Cl636  Cl    0.62963   0.92937   0.47425   0.00000  Uiso   1.00
N637   N     0.95838   0.71292   0.56653   0.00000  Uiso   1.00
H638   H     0.93910   0.72907   0.60248   0.00000  Uiso   1.00
H639   H     0.94049   0.68475   0.53181   0.00000  Uiso   1.00
N640   N     0.54162   0.95375   0.43348   0.00000  Uiso   1.00
H641   H     0.56090   0.93760   0.39752   0.00000  Uiso   1.00
H642   H     0.55952   0.98192   0.46819   0.00000  Uiso   1.00
N643   N     0.72507   0.98083   0.41742   0.00000  Uiso   1.00
H644   H     0.69393   0.99473   0.40779   0.00000  Uiso   1.00
H645   H     0.74591   0.98649   0.38357   0.00000  Uiso   1.00
N646   N     0.77493   0.68583   0.58257   0.00000  Uiso   1.00
H647   H     0.80607   0.67193   0.59220   0.00000  Uiso   1.00
H648   H     0.75410   0.68017   0.61643   0.00000  Uiso   1.00
C649   C     0.24831   0.06679   0.81796   0.00000  Uiso   1.00
C650   C     0.25169   0.26654   0.84870   0.00000  Uiso   1.00
C651   C     0.02346   0.08917   0.87486   0.00000  Uiso   1.00
C652   C     0.47654   0.24417   0.79181   0.00000  Uiso   1.00
C653   C     0.24405   0.01111   0.80969   0.00000  Uiso   1.00
C654   C     0.25595   0.32223   0.85697   0.00000  Uiso   1.00
C655   C     0.16469   0.16700   0.83435   0.00000  Uiso   1.00
C656   C     0.33531   0.16634   0.83231   0.00000  Uiso   1.00
C657   C     0.40655   0.20506   0.81204   0.00000  Uiso   1.00
C658   C     0.09345   0.12828   0.85462   0.00000  Uiso   1.00
C659   C     0.38326   0.16471   0.83009   0.00000  Uiso   1.00
C660   C     0.11674   0.16862   0.83657   0.00000  Uiso   1.00
C661   C     0.40509   0.12354   0.84767   0.00000  Uiso   1.00
C662   C     0.09491   0.20980   0.81900   0.00000  Uiso   1.00
C663   C     0.45246   0.12441   0.85161   0.00000  Uiso   1.00
C664   C     0.04754   0.20892   0.81505   0.00000  Uiso   1.00
C665   C     0.47635   0.16565   0.83260   0.00000  Uiso   1.00
C666   C     0.02365   0.16768   0.83406   0.00000  Uiso   1.00
C667   C     0.45306   0.20508   0.81205   0.00000  Uiso   1.00
C668   C     0.04694   0.12825   0.85461   0.00000  Uiso   1.00
C669   C     0.47740   0.08673   0.87426   0.00000  Uiso   1.00
C670   C     0.02260   0.24660   0.79241   0.00000  Uiso   1.00
Cu671  Cu    0.25501   0.17246   0.89479   0.00000  Uiso   1.00
Cu672  Cu    0.24500   0.16087   0.77187   0.00000  Uiso   1.00
H673   H     0.04071   0.05961   0.89248   0.00000  Uiso   1.00
H674   H     0.45929   0.27373   0.77418   0.00000  Uiso   1.00
H675   H     0.21525   0.12607   0.98276   0.00000  Uiso   1.00
H676   H     0.28476   0.20726   0.68391   0.00000  Uiso   1.00
N677   N     0.23745   0.15214   0.67951   0.00000  Uiso   1.00
N678   N     0.26256   0.18119   0.98716   0.00000  Uiso   1.00
O679   O     0.25326   0.09538   0.87326   0.00000  Uiso   1.00
O680   O     0.24675   0.23796   0.79341   0.00000  Uiso   1.00
O681   O     0.24480   0.08559   0.76945   0.00000  Uiso   1.00
O682   O     0.25520   0.24774   0.89721   0.00000  Uiso   1.00
O683   O     0.18936   0.17155   0.88524   0.00000  Uiso   1.00
O684   O     0.31065   0.16179   0.78143   0.00000  Uiso   1.00
O685   O     0.18090   0.16176   0.78143   0.00000  Uiso   1.00
O686   O     0.31910   0.17157   0.88523   0.00000  Uiso   1.00
Cl687  Cl    0.37660   0.25642   0.79141   0.00000  Uiso   1.00
Cl688  Cl    0.12340   0.07691   0.87526   0.00000  Uiso   1.00
Cl689  Cl    0.37037   0.07063   0.85908   0.00000  Uiso   1.00
Cl690  Cl    0.12963   0.26270   0.80758   0.00000  Uiso   1.00
N691   N     0.45838   0.04626   0.89986   0.00000  Uiso   1.00
H692   H     0.43910   0.06241   0.93582   0.00000  Uiso   1.00
H693   H     0.44049   0.01808   0.86515   0.00000  Uiso   1.00
N694   N     0.04162   0.28708   0.76681   0.00000  Uiso   1.00
H695   H     0.06090   0.27093   0.73085   0.00000  Uiso   1.00
H696   H     0.05952   0.31525   0.80152   0.00000  Uiso   1.00
N697   N     0.22507   0.31417   0.75076   0.00000  Uiso   1.00
H698   H     0.19393   0.32806   0.74112   0.00000  Uiso   1.00
H699   H     0.24591   0.31983   0.71690   0.00000  Uiso   1.00
N700   N     0.27493   0.01916   0.91591   0.00000  Uiso   1.00
H701   H     0.30607   0.00527   0.92554   0.00000  Uiso   1.00
H702   H     0.25410   0.01351   0.94976   0.00000  Uiso   1.00
C703   C     0.74831   0.06679   0.81796   0.00000  Uiso   1.00
C704   C     0.75169   0.26654   0.84870   0.00000  Uiso   1.00
C705   C     0.52346   0.08917   0.87486   0.00000  Uiso   1.00
C706   C     0.97654   0.24417   0.79181   0.00000  Uiso   1.00
C707   C     0.74405   0.01111   0.80969   0.00000  Uiso   1.00
C708   C     0.75595   0.32223   0.85697   0.00000  Uiso   1.00
C709   C     0.66469   0.16700   0.83435   0.00000  Uiso   1.00
C710   C     0.83531   0.16634   0.83231   0.00000  Uiso   1.00
C711   C     0.90655   0.20506   0.81204   0.00000  Uiso   1.00
C712   C     0.59345   0.12828   0.85462   0.00000  Uiso   1.00
C713   C     0.88326   0.16471   0.83009   0.00000  Uiso   1.00
C714   C     0.61674   0.16862   0.83657   0.00000  Uiso   1.00
C715   C     0.90509   0.12354   0.84767   0.00000  Uiso   1.00
C716   C     0.59491   0.20980   0.81900   0.00000  Uiso   1.00
C717   C     0.95246   0.12441   0.85161   0.00000  Uiso   1.00
C718   C     0.54754   0.20892   0.81505   0.00000  Uiso   1.00
C719   C     0.97635   0.16565   0.83260   0.00000  Uiso   1.00
C720   C     0.52365   0.16768   0.83406   0.00000  Uiso   1.00
C721   C     0.95306   0.20508   0.81205   0.00000  Uiso   1.00
C722   C     0.54694   0.12825   0.85461   0.00000  Uiso   1.00
C723   C     0.97740   0.08673   0.87426   0.00000  Uiso   1.00
C724   C     0.52260   0.24660   0.79241   0.00000  Uiso   1.00
Cu725  Cu    0.75501   0.17246   0.89479   0.00000  Uiso   1.00
Cu726  Cu    0.74500   0.16087   0.77187   0.00000  Uiso   1.00
H727   H     0.54071   0.05961   0.89248   0.00000  Uiso   1.00
H728   H     0.95929   0.27373   0.77418   0.00000  Uiso   1.00
H729   H     0.71525   0.12607   0.98276   0.00000  Uiso   1.00
H730   H     0.78476   0.20726   0.68391   0.00000  Uiso   1.00
N731   N     0.73745   0.15214   0.67951   0.00000  Uiso   1.00
N732   N     0.76256   0.18119   0.98716   0.00000  Uiso   1.00
O733   O     0.75326   0.09538   0.87326   0.00000  Uiso   1.00
O734   O     0.74675   0.23796   0.79341   0.00000  Uiso   1.00
O735   O     0.74480   0.08559   0.76945   0.00000  Uiso   1.00
O736   O     0.75520   0.24774   0.89721   0.00000  Uiso   1.00
O737   O     0.68936   0.17155   0.88524   0.00000  Uiso   1.00
O738   O     0.81065   0.16179   0.78143   0.00000  Uiso   1.00
O739   O     0.68090   0.16176   0.78143   0.00000  Uiso   1.00
O740   O     0.81910   0.17157   0.88523   0.00000  Uiso   1.00
Cl741  Cl    0.87660   0.25642   0.79141   0.00000  Uiso   1.00
Cl742  Cl    0.62340   0.07691   0.87526   0.00000  Uiso   1.00
Cl743  Cl    0.87037   0.07063   0.85908   0.00000  Uiso   1.00
Cl744  Cl    0.62963   0.26270   0.80758   0.00000  Uiso   1.00
N745   N     0.95838   0.04626   0.89986   0.00000  Uiso   1.00
H746   H     0.93910   0.06241   0.93582   0.00000  Uiso   1.00
H747   H     0.94049   0.01808   0.86515   0.00000  Uiso   1.00
N748   N     0.54162   0.28708   0.76681   0.00000  Uiso   1.00
H749   H     0.56090   0.27093   0.73085   0.00000  Uiso   1.00
H750   H     0.55952   0.31525   0.80152   0.00000  Uiso   1.00
N751   N     0.72507   0.31417   0.75076   0.00000  Uiso   1.00
H752   H     0.69393   0.32806   0.74112   0.00000  Uiso   1.00
H753   H     0.74591   0.31983   0.71690   0.00000  Uiso   1.00
N754   N     0.77493   0.01916   0.91591   0.00000  Uiso   1.00
H755   H     0.80607   0.00527   0.92554   0.00000  Uiso   1.00
H756   H     0.75410   0.01351   0.94976   0.00000  Uiso   1.00
C757   C     0.24831   0.40012   0.81796   0.00000  Uiso   1.00
C758   C     0.25169   0.59988   0.84870   0.00000  Uiso   1.00
C759   C     0.02346   0.42250   0.87486   0.00000  Uiso   1.00
C760   C     0.47654   0.57750   0.79181   0.00000  Uiso   1.00
C761   C     0.24405   0.34444   0.80969   0.00000  Uiso   1.00
C762   C     0.25595   0.65556   0.85697   0.00000  Uiso   1.00
C763   C     0.16469   0.50033   0.83435   0.00000  Uiso   1.00
C764   C     0.33531   0.49967   0.83231   0.00000  Uiso   1.00
C765   C     0.40655   0.53839   0.81204   0.00000  Uiso   1.00
C766   C     0.09345   0.46161   0.85462   0.00000  Uiso   1.00
C767   C     0.38326   0.49804   0.83009   0.00000  Uiso   1.00
C768   C     0.11674   0.50196   0.83657   0.00000  Uiso   1.00
C769   C     0.40509   0.45687   0.84767   0.00000  Uiso   1.00
C770   C     0.09491   0.54313   0.81900   0.00000  Uiso   1.00
C771   C     0.45246   0.45774   0.85161   0.00000  Uiso   1.00
C772   C     0.04754   0.54226   0.81505   0.00000  Uiso   1.00
C773   C     0.47635   0.49899   0.83260   0.00000  Uiso   1.00
C774   C     0.02365   0.50101   0.83406   0.00000  Uiso   1.00
C775   C     0.45306   0.53841   0.81205   0.00000  Uiso   1.00
C776   C     0.04694   0.46159   0.85461   0.00000  Uiso   1.00
C777   C     0.47740   0.42006   0.87426   0.00000  Uiso   1.00
C778   C     0.02260   0.57994   0.79241   0.00000  Uiso   1.00
Cu779  Cu    0.25501   0.50579   0.89479   0.00000  Uiso   1.00
Cu780  Cu    0.24500   0.49421   0.77187   0.00000  Uiso   1.00
H781   H     0.04071   0.39294   0.89248   0.00000  Uiso   1.00
H782   H     0.45929   0.60706   0.77418   0.00000  Uiso   1.00
H783   H     0.21525   0.45941   0.98276   0.00000  Uiso   1.00
H784   H     0.28476   0.54059   0.68391   0.00000  Uiso   1.00
N785   N     0.23745   0.48547   0.67951   0.00000  Uiso   1.00
N786   N     0.26256   0.51453   0.98716   0.00000  Uiso   1.00
O787   O     0.25326   0.42871   0.87326   0.00000  Uiso   1.00
O788   O     0.24675   0.57129   0.79341   0.00000  Uiso   1.00
O789   O     0.24480   0.41892   0.76945   0.00000  Uiso   1.00
O790   O     0.25520   0.58108   0.89721   0.00000  Uiso   1.00
O791   O     0.18936   0.50488   0.88524   0.00000  Uiso   1.00
O792   O     0.31065   0.49512   0.78143   0.00000  Uiso   1.00
O793   O     0.18090   0.49510   0.78143   0.00000  Uiso   1.00
O794   O     0.31910   0.50490   0.88523   0.00000  Uiso   1.00
Cl795  Cl    0.37660   0.58976   0.79141   0.00000  Uiso   1.00
Cl796  Cl    0.12340   0.41024   0.87526   0.00000  Uiso   1.00
Cl797  Cl    0.37037   0.40396   0.85908   0.00000  Uiso   1.00
Cl798  Cl    0.12963   0.59604   0.80758   0.00000  Uiso   1.00
N799   N     0.45838   0.37959   0.89986   0.00000  Uiso   1.00
H800   H     0.43910   0.39574   0.93582   0.00000  Uiso   1.00
H801   H     0.44049   0.35142   0.86515   0.00000  Uiso   1.00
N802   N     0.04162   0.62041   0.76681   0.00000  Uiso   1.00
H803   H     0.06090   0.60426   0.73085   0.00000  Uiso   1.00
H804   H     0.05952   0.64858   0.80152   0.00000  Uiso   1.00
N805   N     0.22507   0.64750   0.75076   0.00000  Uiso   1.00
H806   H     0.19393   0.66140   0.74112   0.00000  Uiso   1.00
H807   H     0.24591   0.65316   0.71690   0.00000  Uiso   1.00
N808   N     0.27493   0.35250   0.91591   0.00000  Uiso   1.00
H809   H     0.30607   0.33860   0.92554   0.00000  Uiso   1.00
H810   H     0.25410   0.34684   0.94976   0.00000  Uiso   1.00
C811   C     0.74831   0.40012   0.81796   0.00000  Uiso   1.00
C812   C     0.75169   0.59988   0.84870   0.00000  Uiso   1.00
C813   C     0.52346   0.42250   0.87486   0.00000  Uiso   1.00
C814   C     0.97654   0.57750   0.79181   0.00000  Uiso   1.00
C815   C     0.74405   0.34444   0.80969   0.00000  Uiso   1.00
C816   C     0.75595   0.65556   0.85697   0.00000  Uiso   1.00
C817   C     0.66469   0.50033   0.83435   0.00000  Uiso   1.00
C818   C     0.83531   0.49967   0.83231   0.00000  Uiso   1.00
C819   C     0.90655   0.53839   0.81204   0.00000  Uiso   1.00
C820   C     0.59345   0.46161   0.85462   0.00000  Uiso   1.00
C821   C     0.88326   0.49804   0.83009   0.00000  Uiso   1.00
C822   C     0.61674   0.50196   0.83657   0.00000  Uiso   1.00
C823   C     0.90509   0.45687   0.84767   0.00000  Uiso   1.00
C824   C     0.59491   0.54313   0.81900   0.00000  Uiso   1.00
C825   C     0.95246   0.45774   0.85161   0.00000  Uiso   1.00
C826   C     0.54754   0.54226   0.81505   0.00000  Uiso   1.00
C827   C     0.97635   0.49899   0.83260   0.00000  Uiso   1.00
C828   C     0.52365   0.50101   0.83406   0.00000  Uiso   1.00
C829   C     0.95306   0.53841   0.81205   0.00000  Uiso   1.00
C830   C     0.54694   0.46159   0.85461   0.00000  Uiso   1.00
C831   C     0.97740   0.42006   0.87426   0.00000  Uiso   1.00
C832   C     0.52260   0.57994   0.79241   0.00000  Uiso   1.00
Cu833  Cu    0.75501   0.50579   0.89479   0.00000  Uiso   1.00
Cu834  Cu    0.74500   0.49421   0.77187   0.00000  Uiso   1.00
H835   H     0.54071   0.39294   0.89248   0.00000  Uiso   1.00
H836   H     0.95929   0.60706   0.77418   0.00000  Uiso   1.00
H837   H     0.71525   0.45941   0.98276   0.00000  Uiso   1.00
H838   H     0.78476   0.54059   0.68391   0.00000  Uiso   1.00
N839   N     0.73745   0.48547   0.67951   0.00000  Uiso   1.00
N840   N     0.76256   0.51453   0.98716   0.00000  Uiso   1.00
O841   O     0.75326   0.42871   0.87326   0.00000  Uiso   1.00
O842   O     0.74675   0.57129   0.79341   0.00000  Uiso   1.00
O843   O     0.74480   0.41892   0.76945   0.00000  Uiso   1.00
O844   O     0.75520   0.58108   0.89721   0.00000  Uiso   1.00
O845   O     0.68936   0.50488   0.88524   0.00000  Uiso   1.00
O846   O     0.81065   0.49512   0.78143   0.00000  Uiso   1.00
O847   O     0.68090   0.49510   0.78143   0.00000  Uiso   1.00
O848   O     0.81910   0.50490   0.88523   0.00000  Uiso   1.00
Cl849  Cl    0.87660   0.58976   0.79141   0.00000  Uiso   1.00
Cl850  Cl    0.62340   0.41024   0.87526   0.00000  Uiso   1.00
Cl851  Cl    0.87037   0.40396   0.85908   0.00000  Uiso   1.00
Cl852  Cl    0.62963   0.59604   0.80758   0.00000  Uiso   1.00
N853   N     0.95838   0.37959   0.89986   0.00000  Uiso   1.00
H854   H     0.93910   0.39574   0.93582   0.00000  Uiso   1.00
H855   H     0.94049   0.35142   0.86515   0.00000  Uiso   1.00
N856   N     0.54162   0.62041   0.76681   0.00000  Uiso   1.00
H857   H     0.56090   0.60426   0.73085   0.00000  Uiso   1.00
H858   H     0.55952   0.64858   0.80152   0.00000  Uiso   1.00
N859   N     0.72507   0.64750   0.75076   0.00000  Uiso   1.00
H860   H     0.69393   0.66140   0.74112   0.00000  Uiso   1.00
H861   H     0.74591   0.65316   0.71690   0.00000  Uiso   1.00
N862   N     0.77493   0.35250   0.91591   0.00000  Uiso   1.00
H863   H     0.80607   0.33860   0.92554   0.00000  Uiso   1.00
H864   H     0.75410   0.34684   0.94976   0.00000  Uiso   1.00
C865   C     0.24831   0.73346   0.81796   0.00000  Uiso   1.00
C866   C     0.25169   0.93321   0.84870   0.00000  Uiso   1.00
C867   C     0.02346   0.75584   0.87486   0.00000  Uiso   1.00
C868   C     0.47654   0.91083   0.79181   0.00000  Uiso   1.00
C869   C     0.24405   0.67777   0.80969   0.00000  Uiso   1.00
C870   C     0.25595   0.98889   0.85697   0.00000  Uiso   1.00
C871   C     0.16469   0.83366   0.83435   0.00000  Uiso   1.00
C872   C     0.33531   0.83301   0.83231   0.00000  Uiso   1.00
C873   C     0.40655   0.87173   0.81204   0.00000  Uiso   1.00
C874   C     0.09345   0.79494   0.85462   0.00000  Uiso   1.00
C875   C     0.38326   0.83138   0.83009   0.00000  Uiso   1.00
C876   C     0.11674   0.83529   0.83657   0.00000  Uiso   1.00
C877   C     0.40509   0.79020   0.84767   0.00000  Uiso   1.00
C878   C     0.09491   0.87647   0.81900   0.00000  Uiso   1.00
C879   C     0.45246   0.79108   0.85161   0.00000  Uiso   1.00
C880   C     0.04754   0.87559   0.81505   0.00000  Uiso   1.00
C881   C     0.47635   0.83232   0.83260   0.00000  Uiso   1.00
C882   C     0.02365   0.83435   0.83406   0.00000  Uiso   1.00
C883   C     0.45306   0.87175   0.81205   0.00000  Uiso   1.00
C884   C     0.04694   0.79492   0.85461   0.00000  Uiso   1.00
C885   C     0.47740   0.75340   0.87426   0.00000  Uiso   1.00
C886   C     0.02260   0.91327   0.79241   0.00000  Uiso   1.00
Cu887  Cu    0.25501   0.83913   0.89479   0.00000  Uiso   1.00
Cu888  Cu    0.24500   0.82754   0.77187   0.00000  Uiso   1.00
H889   H     0.04071   0.72627   0.89248   0.00000  Uiso   1.00
H890   H     0.45929   0.94039   0.77418   0.00000  Uiso   1.00
H891   H     0.21525   0.79274   0.98276   0.00000  Uiso   1.00
H892   H     0.28476   0.87393   0.68391   0.00000  Uiso   1.00
N893   N     0.23745   0.81881   0.67951   0.00000  Uiso   1.00
N894   N     0.26256   0.84786   0.98716   0.00000  Uiso   1.00
O895   O     0.25326   0.76204   0.87326   0.00000  Uiso   1.00
O896   O     0.24675   0.90462   0.79341   0.00000  Uiso   1.00
O897   O     0.24480   0.75226   0.76945   0.00000  Uiso   1.00
O898   O     0.25520   0.91441   0.89721   0.00000  Uiso   1.00
O899   O     0.18936   0.83821   0.88524   0.00000  Uiso   1.00
O900   O     0.31065   0.82845   0.78143   0.00000  Uiso   1.00
O901   O     0.18090   0.82843   0.78143   0.00000  Uiso   1.00
O902   O     0.31910   0.83824   0.88523   0.00000  Uiso   1.00
Cl903  Cl    0.37660   0.92309   0.79141   0.00000  Uiso   1.00
Cl904  Cl    0.12340   0.74358   0.87526   0.00000  Uiso   1.00
Cl905  Cl    0.37037   0.73730   0.85908   0.00000  Uiso   1.00
Cl906  Cl    0.12963   0.92937   0.80758   0.00000  Uiso   1.00
N907   N     0.45838   0.71292   0.89986   0.00000  Uiso   1.00
H908   H     0.43910   0.72907   0.93582   0.00000  Uiso   1.00
H909   H     0.44049   0.68475   0.86515   0.00000  Uiso   1.00
N910   N     0.04162   0.95375   0.76681   0.00000  Uiso   1.00
H911   H     0.06090   0.93760   0.73085   0.00000  Uiso   1.00
H912   H     0.05952   0.98192   0.80152   0.00000  Uiso   1.00
N913   N     0.22507   0.98083   0.75076   0.00000  Uiso   1.00
H914   H     0.19393   0.99473   0.74112   0.00000  Uiso   1.00
H915   H     0.24591   0.98649   0.71690   0.00000  Uiso   1.00
N916   N     0.27493   0.68583   0.91591   0.00000  Uiso   1.00
H917   H     0.30607   0.67193   0.92554   0.00000  Uiso   1.00
H918   H     0.25410   0.68017   0.94976   0.00000  Uiso   1.00
C919   C     0.74831   0.73346   0.81796   0.00000  Uiso   1.00
C920   C     0.75169   0.93321   0.84870   0.00000  Uiso   1.00
C921   C     0.52346   0.75584   0.87486   0.00000  Uiso   1.00
C922   C     0.97654   0.91083   0.79181   0.00000  Uiso   1.00
C923   C     0.74405   0.67777   0.80969   0.00000  Uiso   1.00
C924   C     0.75595   0.98889   0.85697   0.00000  Uiso   1.00
C925   C     0.66469   0.83366   0.83435   0.00000  Uiso   1.00
C926   C     0.83531   0.83301   0.83231   0.00000  Uiso   1.00
C927   C     0.90655   0.87173   0.81204   0.00000  Uiso   1.00
C928   C     0.59345   0.79494   0.85462   0.00000  Uiso   1.00
C929   C     0.88326   0.83138   0.83009   0.00000  Uiso   1.00
C930   C     0.61674   0.83529   0.83657   0.00000  Uiso   1.00
C931   C     0.90509   0.79020   0.84767   0.00000  Uiso   1.00
C932   C     0.59491   0.87647   0.81900   0.00000  Uiso   1.00
C933   C     0.95246   0.79108   0.85161   0.00000  Uiso   1.00
C934   C     0.54754   0.87559   0.81505   0.00000  Uiso   1.00
C935   C     0.97635   0.83232   0.83260   0.00000  Uiso   1.00
C936   C     0.52365   0.83435   0.83406   0.00000  Uiso   1.00
C937   C     0.95306   0.87175   0.81205   0.00000  Uiso   1.00
C938   C     0.54694   0.79492   0.85461   0.00000  Uiso   1.00
C939   C     0.97740   0.75340   0.87426   0.00000  Uiso   1.00
C940   C     0.52260   0.91327   0.79241   0.00000  Uiso   1.00
Cu941  Cu    0.75501   0.83913   0.89479   0.00000  Uiso   1.00
Cu942  Cu    0.74500   0.82754   0.77187   0.00000  Uiso   1.00
H943   H     0.54071   0.72627   0.89248   0.00000  Uiso   1.00
H944   H     0.95929   0.94039   0.77418   0.00000  Uiso   1.00
H945   H     0.71525   0.79274   0.98276   0.00000  Uiso   1.00
H946   H     0.78476   0.87393   0.68391   0.00000  Uiso   1.00
N947   N     0.73745   0.81881   0.67951   0.00000  Uiso   1.00
N948   N     0.76256   0.84786   0.98716   0.00000  Uiso   1.00
O949   O     0.75326   0.76204   0.87326   0.00000  Uiso   1.00
O950   O     0.74675   0.90462   0.79341   0.00000  Uiso   1.00
O951   O     0.74480   0.75226   0.76945   0.00000  Uiso   1.00
O952   O     0.75520   0.91441   0.89721   0.00000  Uiso   1.00
O953   O     0.68936   0.83821   0.88524   0.00000  Uiso   1.00
O954   O     0.81065   0.82845   0.78143   0.00000  Uiso   1.00
O955   O     0.68090   0.82843   0.78143   0.00000  Uiso   1.00
O956   O     0.81910   0.83824   0.88523   0.00000  Uiso   1.00
Cl957  Cl    0.87660   0.92309   0.79141   0.00000  Uiso   1.00
Cl958  Cl    0.62340   0.74358   0.87526   0.00000  Uiso   1.00
Cl959  Cl    0.87037   0.73730   0.85908   0.00000  Uiso   1.00
Cl960  Cl    0.62963   0.92937   0.80758   0.00000  Uiso   1.00
N961   N     0.95838   0.71292   0.89986   0.00000  Uiso   1.00
H962   H     0.93910   0.72907   0.93582   0.00000  Uiso   1.00
H963   H     0.94049   0.68475   0.86515   0.00000  Uiso   1.00
N964   N     0.54162   0.95375   0.76681   0.00000  Uiso   1.00
H965   H     0.56090   0.93760   0.73085   0.00000  Uiso   1.00
H966   H     0.55952   0.98192   0.80152   0.00000  Uiso   1.00
N967   N     0.72507   0.98083   0.75076   0.00000  Uiso   1.00
H968   H     0.69393   0.99473   0.74112   0.00000  Uiso   1.00
H969   H     0.74591   0.98649   0.71690   0.00000  Uiso   1.00
N970   N     0.77493   0.68583   0.91591   0.00000  Uiso   1.00
H971   H     0.80607   0.67193   0.92554   0.00000  Uiso   1.00
H972   H     0.75410   0.68017   0.94976   0.00000  Uiso   1.00
loop_
_geom_bond_atom_site_label_1
_geom_bond_atom_site_label_2
_geom_bond_distance
_geom_bond_site_symmetry_2
_ccdc_geom_bond_type
C1     O31     1.288   .     A
C1     O33     1.287   .     A
C1     C5      1.432   .     S
C2     O34     1.287   .     A
C2     C6      1.432   .     S
C2     O32     1.288   .     A
C3     C20     1.396   .     A
C3     H25     1.082   .     S
C3     C75     1.383   1_455 S
C4     H26     1.082   .     S
C4     C19     1.396   .     A
C4     C76     1.383   .     S
C5     C222    1.350   1_545 S
C5     N265    1.441   1_545 S
C6     C113    1.350   .     S
C6     N160    1.441   .     S
C7     O37     1.289   .     A
C7     C12     1.449   .     S
C7     O35     1.292   .     A
C8     O38     1.289   .     A
C8     C11     1.449   .     S
C8     O36     1.292   .     A
C9     C11     1.394   .     A
C9     Cl39    1.781   .     S
C9     C19     1.399   .     A
C10    C12     1.394   .     A
C10    C20     1.399   .     A
C10    Cl40    1.781   .     S
C11    C13     1.404   .     A
C12    C14     1.404   .     A
C13    Cl41    1.778   .     S
C13    C15     1.421   .     A
C14    Cl42    1.778   .     S
C14    C16     1.421   .     A
C15    C21     1.426   .     A
C15    C17     1.433   .     A
C16    C18     1.433   .     A
C16    C22     1.426   .     A
C17    C19     1.416   .     A
C17    C72     1.420   .     S
C18    C20     1.416   .     A
C18    C71     1.420   1_455 S
C21    N43     1.432   .     S
C21    C57     1.383   .     S
C22    N46     1.432   .     S
C22    C58     1.383   1_455 S
Cu23   O38     1.955   .     S
Cu23   O34     1.967   .     S
Cu23   O35     1.970   .     S
Cu23   Cu24    2.685   .     S
Cu23   N30     2.018   .     S
Cu23   O31     1.972   .     S
Cu24   O32     1.972   .     S
Cu24   O33     1.967   .     S
Cu24   O37     1.955   .     S
Cu24   O36     1.970   .     S
Cu24   N29     2.018   .     S
H27    N353    1.029   .     S
H28    N678    1.029   1_554 S
N29    H675    1.029   1_554 S
N29    N678    1.299   1_554 S
N30    N353    1.299   .     S
N30    H352    1.029   .     S
N43    H44     1.045   .     S
N43    H45     1.044   .     S
N46    H48     1.044   .     S
N46    H47     1.045   .     S
N49    H50     1.046   .     S
N49    H51     1.045   .     S
N49    C113    1.441   .     S
N52    H53     1.046   .     S
N52    H54     1.045   .     S
N52    C222    1.441   1_545 S
C55    O85     1.288   .     A
C55    O87     1.287   .     A
C55    C59     1.432   .     S
C56    O88     1.287   .     A
C56    C60     1.432   .     S
C56    O86     1.288   .     A
C57    C74     1.396   .     A
C57    H79     1.082   .     S
C58    H80     1.082   .     S
C58    C73     1.396   .     A
C58    C22     1.383   1_655 S
C59    C276    1.350   1_545 S
C59    N319    1.441   1_545 S
C60    C167    1.350   .     S
C60    N214    1.441   .     S
C61    O91     1.289   .     A
C61    C66     1.449   .     S
C61    O89     1.292   .     A
C62    O92     1.289   .     A
C62    C65     1.449   .     S
C62    O90     1.292   .     A
C63    C65     1.394   .     A
C63    Cl93    1.781   .     S
C63    C73     1.399   .     A
C64    C66     1.394   .     A
C64    C74     1.399   .     A
C64    Cl94    1.781   .     S
C65    C67     1.404   .     A
C66    C68     1.404   .     A
C67    Cl95    1.778   .     S
C67    C69     1.421   .     A
C68    Cl96    1.778   .     S
C68    C70     1.421   .     A
C69    C75     1.426   .     A
C69    C71     1.433   .     A
C70    C72     1.433   .     A
C70    C76     1.426   .     A
C71    C73     1.416   .     A
C71    C18     1.420   1_655 S
C72    C74     1.416   .     A
C75    N97     1.432   .     S
C75    C3      1.383   1_655 S
C76    N100    1.432   .     S
Cu77   O92     1.955   .     S
Cu77   O88     1.967   .     S
Cu77   O89     1.970   .     S
Cu77   Cu78    2.685   .     S
Cu77   N84     2.018   .     S
Cu77   O85     1.972   .     S
Cu78   O86     1.972   .     S
Cu78   O87     1.967   .     S
Cu78   O91     1.955   .     S
Cu78   O90     1.970   .     S
Cu78   N83     2.018   .     S
H81    N407    1.029   .     S
H82    N732    1.029   1_554 S
N83    H729    1.029   1_554 S
N83    N732    1.299   1_554 S
N84    N407    1.299   .     S
N84    H406    1.029   .     S
N97    H98     1.045   .     S
N97    H99     1.044   .     S
N100   H102    1.044   .     S
N100   H101    1.045   .     S
N103   H104    1.046   .     S
N103   H105    1.045   .     S
N103   C167    1.441   .     S
N106   H107    1.046   .     S
N106   H108    1.045   .     S
N106   C276    1.441   1_545 S
C109   O139    1.288   .     A
C109   O141    1.287   .     A
C109   C113    1.432   .     S
C110   O142    1.287   .     A
C110   C114    1.432   .     S
C110   O140    1.288   .     A
C111   C128    1.396   .     A
C111   H133    1.082   .     S
C111   C183    1.383   1_455 S
C112   H134    1.082   .     S
C112   C127    1.396   .     A
C112   C184    1.383   .     S
C114   C221    1.350   .     S
C114   N268    1.441   .     S
C115   O145    1.289   .     A
C115   C120    1.449   .     S
C115   O143    1.292   .     A
C116   O146    1.289   .     A
C116   C119    1.449   .     S
C116   O144    1.292   .     A
C117   C119    1.394   .     A
C117   Cl147   1.781   .     S
C117   C127    1.399   .     A
C118   C120    1.394   .     A
C118   C128    1.399   .     A
C118   Cl148   1.781   .     S
C119   C121    1.404   .     A
C120   C122    1.404   .     A
C121   Cl149   1.778   .     S
C121   C123    1.421   .     A
C122   Cl150   1.778   .     S
C122   C124    1.421   .     A
C123   C129    1.426   .     A
C123   C125    1.433   .     A
C124   C126    1.433   .     A
C124   C130    1.426   .     A
C125   C127    1.416   .     A
C125   C180    1.420   .     S
C126   C128    1.416   .     A
C126   C179    1.420   1_455 S
C129   N151    1.432   .     S
C129   C165    1.383   .     S
C130   N154    1.432   .     S
C130   C166    1.383   1_455 S
Cu131  O146    1.955   .     S
Cu131  O142    1.967   .     S
Cu131  O143    1.970   .     S
Cu131  Cu132   2.685   .     S
Cu131  N138    2.018   .     S
Cu131  O139    1.972   .     S
Cu132  O140    1.972   .     S
Cu132  O141    1.967   .     S
Cu132  O145    1.955   .     S
Cu132  O144    1.970   .     S
Cu132  N137    2.018   .     S
H135   N461    1.029   .     S
H136   N786    1.029   1_554 S
N137   H783    1.029   1_554 S
N137   N786    1.299   1_554 S
N138   N461    1.299   .     S
N138   H460    1.029   .     S
N151   H152    1.045   .     S
N151   H153    1.044   .     S
N154   H156    1.044   .     S
N154   H155    1.045   .     S
N157   H158    1.046   .     S
N157   H159    1.045   .     S
N157   C221    1.441   .     S
N160   H161    1.046   .     S
N160   H162    1.045   .     S
C163   O193    1.288   .     A
C163   O195    1.287   .     A
C163   C167    1.432   .     S
C164   O196    1.287   .     A
C164   C168    1.432   .     S
C164   O194    1.288   .     A
C165   C182    1.396   .     A
C165   H187    1.082   .     S
C166   H188    1.082   .     S
C166   C181    1.396   .     A
C166   C130    1.383   1_655 S
C168   C275    1.350   .     S
C168   N322    1.441   .     S
C169   O199    1.289   .     A
C169   C174    1.449   .     S
C169   O197    1.292   .     A
C170   O200    1.289   .     A
C170   C173    1.449   .     S
C170   O198    1.292   .     A
C171   C173    1.394   .     A
C171   Cl201   1.781   .     S
C171   C181    1.399   .     A
C172   C174    1.394   .     A
C172   C182    1.399   .     A
C172   Cl202   1.781   .     S
C173   C175    1.404   .     A
C174   C176    1.404   .     A
C175   Cl203   1.778   .     S
C175   C177    1.421   .     A
C176   Cl204   1.778   .     S
C176   C178    1.421   .     A
C177   C183    1.426   .     A
C177   C179    1.433   .     A
C178   C180    1.433   .     A
C178   C184    1.426   .     A
C179   C181    1.416   .     A
C179   C126    1.420   1_655 S
C180   C182    1.416   .     A
C183   N205    1.432   .     S
C183   C111    1.383   1_655 S
C184   N208    1.432   .     S
Cu185  O200    1.955   .     S
Cu185  O196    1.967   .     S
Cu185  O197    1.970   .     S
Cu185  Cu186   2.685   .     S
Cu185  N192    2.018   .     S
Cu185  O193    1.972   .     S
Cu186  O194    1.972   .     S
Cu186  O195    1.967   .     S
Cu186  O199    1.955   .     S
Cu186  O198    1.970   .     S
Cu186  N191    2.018   .     S
H189   N515    1.029   .     S
H190   N840    1.029   1_554 S
N191   H837    1.029   1_554 S
N191   N840    1.299   1_554 S
N192   N515    1.299   .     S
N192   H514    1.029   .     S
N205   H206    1.045   .     S
N205   H207    1.044   .     S
N208   H210    1.044   .     S
N208   H209    1.045   .     S
N211   H212    1.046   .     S
N211   H213    1.045   .     S
N211   C275    1.441   .     S
N214   H215    1.046   .     S
N214   H216    1.045   .     S
C217   O247    1.288   .     A
C217   O249    1.287   .     A
C217   C221    1.432   .     S
C218   O250    1.287   .     A
C218   C222    1.432   .     S
C218   O248    1.288   .     A
C219   C236    1.396   .     A
C219   H241    1.082   .     S
C219   C291    1.383   1_455 S
C220   H242    1.082   .     S
C220   C235    1.396   .     A
C220   C292    1.383   .     S
C222   C5      1.350   1_565 S
C222   N52     1.441   1_565 S
C223   O253    1.289   .     A
C223   C228    1.449   .     S
C223   O251    1.292   .     A
C224   O254    1.289   .     A
C224   C227    1.449   .     S
C224   O252    1.292   .     A
C225   C227    1.394   .     A
C225   Cl255   1.781   .     S
C225   C235    1.399   .     A
C226   C228    1.394   .     A
C226   C236    1.399   .     A
C226   Cl256   1.781   .     S
C227   C229    1.404   .     A
C228   C230    1.404   .     A
C229   Cl257   1.778   .     S
C229   C231    1.421   .     A
C230   Cl258   1.778   .     S
C230   C232    1.421   .     A
C231   C237    1.426   .     A
C231   C233    1.433   .     A
C232   C234    1.433   .     A
C232   C238    1.426   .     A
C233   C235    1.416   .     A
C233   C288    1.420   .     S
C234   C236    1.416   .     A
C234   C287    1.420   1_455 S
C237   N259    1.432   .     S
C237   C273    1.383   .     S
C238   N262    1.432   .     S
C238   C274    1.383   1_455 S
Cu239  O254    1.955   .     S
Cu239  O250    1.967   .     S
Cu239  O251    1.970   .     S
Cu239  Cu240   2.685   .     S
Cu239  N246    2.018   .     S
Cu239  O247    1.972   .     S
Cu240  O248    1.972   .     S
Cu240  O249    1.967   .     S
Cu240  O253    1.955   .     S
Cu240  O252    1.970   .     S
Cu240  N245    2.018   .     S
H243   N569    1.029   .     S
H244   N894    1.029   1_554 S
N245   H891    1.029   1_554 S
N245   N894    1.299   1_554 S
N246   N569    1.299   .     S
N246   H568    1.029   .     S
N259   H260    1.045   .     S
N259   H261    1.044   .     S
N262   H264    1.044   .     S
N262   H263    1.045   .     S
N265   H266    1.046   .     S
N265   H267    1.045   .     S
N265   C5      1.441   1_565 S
N268   H269    1.046   .     S
N268   H270    1.045   .     S
C271   O301    1.288   .     A
C271   O303    1.287   .     A
C271   C275    1.432   .     S
C272   O304    1.287   .     A
C272   C276    1.432   .     S
C272   O302    1.288   .     A
C273   C290    1.396   .     A
C273   H295    1.082   .     S
C274   H296    1.082   .     S
C274   C289    1.396   .     A
C274   C238    1.383   1_655 S
C276   C59     1.350   1_565 S
C276   N106    1.441   1_565 S
C277   O307    1.289   .     A
C277   C282    1.449   .     S
C277   O305    1.292   .     A
C278   O308    1.289   .     A
C278   C281    1.449   .     S
C278   O306    1.292   .     A
C279   C281    1.394   .     A
C279   Cl309   1.781   .     S
C279   C289    1.399   .     A
C280   C282    1.394   .     A
C280   C290    1.399   .     A
C280   Cl310   1.781   .     S
C281   C283    1.404   .     A
C282   C284    1.404   .     A
C283   Cl311   1.778   .     S
C283   C285    1.421   .     A
C284   Cl312   1.778   .     S
C284   C286    1.421   .     A
C285   C291    1.426   .     A
C285   C287    1.433   .     A
C286   C288    1.433   .     A
C286   C292    1.426   .     A
C287   C289    1.416   .     A
C287   C234    1.420   1_655 S
C288   C290    1.416   .     A
C291   N313    1.432   .     S
C291   C219    1.383   1_655 S
C292   N316    1.432   .     S
Cu293  O308    1.955   .     S
Cu293  O304    1.967   .     S
Cu293  O305    1.970   .     S
Cu293  Cu294   2.685   .     S
Cu293  N300    2.018   .     S
Cu293  O301    1.972   .     S
Cu294  O302    1.972   .     S
Cu294  O303    1.967   .     S
Cu294  O307    1.955   .     S
Cu294  O306    1.970   .     S
Cu294  N299    2.018   .     S
H297   N623    1.029   .     S
H298   N948    1.029   1_554 S
N299   H945    1.029   1_554 S
N299   N948    1.299   1_554 S
N300   N623    1.299   .     S
N300   H622    1.029   .     S
N313   H314    1.045   .     S
N313   H315    1.044   .     S
N316   H318    1.044   .     S
N316   H317    1.045   .     S
N319   H320    1.046   .     S
N319   H321    1.045   .     S
N319   C59     1.441   1_565 S
N322   H323    1.046   .     S
N322   H324    1.045   .     S
C325   O355    1.288   .     A
C325   O357    1.287   .     A
C325   C329    1.432   .     S
C326   O358    1.287   .     A
C326   C330    1.432   .     S
C326   O356    1.288   .     A
C327   C344    1.396   .     A
C327   H349    1.082   .     S
C327   C399    1.383   1_455 S
C328   H350    1.082   .     S
C328   C343    1.396   .     A
C328   C400    1.383   .     S
C329   C546    1.350   1_545 S
C329   N589    1.441   1_545 S
C330   C437    1.350   .     S
C330   N484    1.441   .     S
C331   O361    1.289   .     A
C331   C336    1.449   .     S
C331   O359    1.292   .     A
C332   O362    1.289   .     A
C332   C335    1.449   .     S
C332   O360    1.292   .     A
C333   C335    1.394   .     A
C333   Cl363   1.781   .     S
C333   C343    1.399   .     A
C334   C336    1.394   .     A
C334   C344    1.399   .     A
C334   Cl364   1.781   .     S
C335   C337    1.404   .     A
C336   C338    1.404   .     A
C337   Cl365   1.778   .     S
C337   C339    1.421   .     A
C338   Cl366   1.778   .     S
C338   C340    1.421   .     A
C339   C345    1.426   .     A
C339   C341    1.433   .     A
C340   C342    1.433   .     A
C340   C346    1.426   .     A
C341   C343    1.416   .     A
C341   C396    1.420   .     S
C342   C344    1.416   .     A
C342   C395    1.420   1_455 S
C345   N367    1.432   .     S
C345   C381    1.383   .     S
C346   N370    1.432   .     S
C346   C382    1.383   1_455 S
Cu347  O362    1.955   .     S
Cu347  O358    1.967   .     S
Cu347  O359    1.970   .     S
Cu347  Cu348   2.685   .     S
Cu347  N354    2.018   .     S
Cu347  O355    1.972   .     S
Cu348  O356    1.972   .     S
Cu348  O357    1.967   .     S
Cu348  O361    1.955   .     S
Cu348  O360    1.970   .     S
Cu348  N353    2.018   .     S
H351   N677    1.029   .     S
N354   N677    1.299   .     S
N354   H676    1.029   .     S
N367   H368    1.045   .     S
N367   H369    1.044   .     S
N370   H372    1.044   .     S
N370   H371    1.045   .     S
N373   H374    1.046   .     S
N373   H375    1.045   .     S
N373   C437    1.441   .     S
N376   H377    1.046   .     S
N376   H378    1.045   .     S
N376   C546    1.441   1_545 S
C379   O409    1.288   .     A
C379   O411    1.287   .     A
C379   C383    1.432   .     S
C380   O412    1.287   .     A
C380   C384    1.432   .     S
C380   O410    1.288   .     A
C381   C398    1.396   .     A
C381   H403    1.082   .     S
C382   H404    1.082   .     S
C382   C397    1.396   .     A
C382   C346    1.383   1_655 S
C383   C600    1.350   1_545 S
C383   N643    1.441   1_545 S
C384   C491    1.350   .     S
C384   N538    1.441   .     S
C385   O415    1.289   .     A
C385   C390    1.449   .     S
C385   O413    1.292   .     A
C386   O416    1.289   .     A
C386   C389    1.449   .     S
C386   O414    1.292   .     A
C387   C389    1.394   .     A
C387   Cl417   1.781   .     S
C387   C397    1.399   .     A
C388   C390    1.394   .     A
C388   C398    1.399   .     A
C388   Cl418   1.781   .     S
C389   C391    1.404   .     A
C390   C392    1.404   .     A
C391   Cl419   1.778   .     S
C391   C393    1.421   .     A
C392   Cl420   1.778   .     S
C392   C394    1.421   .     A
C393   C399    1.426   .     A
C393   C395    1.433   .     A
C394   C396    1.433   .     A
C394   C400    1.426   .     A
C395   C397    1.416   .     A
C395   C342    1.420   1_655 S
C396   C398    1.416   .     A
C399   N421    1.432   .     S
C399   C327    1.383   1_655 S
C400   N424    1.432   .     S
Cu401  O416    1.955   .     S
Cu401  O412    1.967   .     S
Cu401  O413    1.970   .     S
Cu401  Cu402   2.685   .     S
Cu401  N408    2.018   .     S
Cu401  O409    1.972   .     S
Cu402  O410    1.972   .     S
Cu402  O411    1.967   .     S
Cu402  O415    1.955   .     S
Cu402  O414    1.970   .     S
Cu402  N407    2.018   .     S
H405   N731    1.029   .     S
N408   N731    1.299   .     S
N408   H730    1.029   .     S
N421   H422    1.045   .     S
N421   H423    1.044   .     S
N424   H426    1.044   .     S
N424   H425    1.045   .     S
N427   H428    1.046   .     S
N427   H429    1.045   .     S
N427   C491    1.441   .     S
N430   H431    1.046   .     S
N430   H432    1.045   .     S
N430   C600    1.441   1_545 S
C433   O463    1.288   .     A
C433   O465    1.287   .     A
C433   C437    1.432   .     S
C434   O466    1.287   .     A
C434   C438    1.432   .     S
C434   O464    1.288   .     A
C435   C452    1.396   .     A
C435   H457    1.082   .     S
C435   C507    1.383   1_455 S
C436   H458    1.082   .     S
C436   C451    1.396   .     A
C436   C508    1.383   .     S
C438   C545    1.350   .     S
C438   N592    1.441   .     S
C439   O469    1.289   .     A
C439   C444    1.449   .     S
C439   O467    1.292   .     A
C440   O470    1.289   .     A
C440   C443    1.449   .     S
C440   O468    1.292   .     A
C441   C443    1.394   .     A
C441   Cl471   1.781   .     S
C441   C451    1.399   .     A
C442   C444    1.394   .     A
C442   C452    1.399   .     A
C442   Cl472   1.781   .     S
C443   C445    1.404   .     A
C444   C446    1.404   .     A
C445   Cl473   1.778   .     S
C445   C447    1.421   .     A
C446   Cl474   1.778   .     S
C446   C448    1.421   .     A
C447   C453    1.426   .     A
C447   C449    1.433   .     A
C448   C450    1.433   .     A
C448   C454    1.426   .     A
C449   C451    1.416   .     A
C449   C504    1.420   .     S
C450   C452    1.416   .     A
C450   C503    1.420   1_455 S
C453   N475    1.432   .     S
C453   C489    1.383   .     S
C454   N478    1.432   .     S
C454   C490    1.383   1_455 S
Cu455  O470    1.955   .     S
Cu455  O466    1.967   .     S
Cu455  O467    1.970   .     S
Cu455  Cu456   2.685   .     S
Cu455  N462    2.018   .     S
Cu455  O463    1.972   .     S
Cu456  O464    1.972   .     S
Cu456  O465    1.967   .     S
Cu456  O469    1.955   .     S
Cu456  O468    1.970   .     S
Cu456  N461    2.018   .     S
H459   N785    1.029   .     S
N462   N785    1.299   .     S
N462   H784    1.029   .     S
N475   H476    1.045   .     S
N475   H477    1.044   .     S
N478   H480    1.044   .     S
N478   H479    1.045   .     S
N481   H482    1.046   .     S
N481   H483    1.045   .     S
N481   C545    1.441   .     S
N484   H485    1.046   .     S
N484   H486    1.045   .     S
C487   O517    1.288   .     A
C487   O519    1.287   .     A
C487   C491    1.432   .     S
C488   O520    1.287   .     A
C488   C492    1.432   .     S
C488   O518    1.288   .     A
C489   C506    1.396   .     A
C489   H511    1.082   .     S
C490   H512    1.082   .     S
C490   C505    1.396   .     A
C490   C454    1.383   1_655 S
C492   C599    1.350   .     S
C492   N646    1.441   .     S
C493   O523    1.289   .     A
C493   C498    1.449   .     S
C493   O521    1.292   .     A
C494   O524    1.289   .     A
C494   C497    1.449   .     S
C494   O522    1.292   .     A
C495   C497    1.394   .     A
C495   Cl525   1.781   .     S
C495   C505    1.399   .     A
C496   C498    1.394   .     A
C496   C506    1.399   .     A
C496   Cl526   1.781   .     S
C497   C499    1.404   .     A
C498   C500    1.404   .     A
C499   Cl527   1.778   .     S
C499   C501    1.421   .     A
C500   Cl528   1.778   .     S
C500   C502    1.421   .     A
C501   C507    1.426   .     A
C501   C503    1.433   .     A
C502   C504    1.433   .     A
C502   C508    1.426   .     A
C503   C505    1.416   .     A
C503   C450    1.420   1_655 S
C504   C506    1.416   .     A
C507   N529    1.432   .     S
C507   C435    1.383   1_655 S
C508   N532    1.432   .     S
Cu509  O524    1.955   .     S
Cu509  O520    1.967   .     S
Cu509  O521    1.970   .     S
Cu509  Cu510   2.685   .     S
Cu509  N516    2.018   .     S
Cu509  O517    1.972   .     S
Cu510  O518    1.972   .     S
Cu510  O519    1.967   .     S
Cu510  O523    1.955   .     S
Cu510  O522    1.970   .     S
Cu510  N515    2.018   .     S
H513   N839    1.029   .     S
N516   N839    1.299   .     S
N516   H838    1.029   .     S
N529   H530    1.045   .     S
N529   H531    1.044   .     S
N532   H534    1.044   .     S
N532   H533    1.045   .     S
N535   H536    1.046   .     S
N535   H537    1.045   .     S
N535   C599    1.441   .     S
N538   H539    1.046   .     S
N538   H540    1.045   .     S
C541   O571    1.288   .     A
C541   O573    1.287   .     A
C541   C545    1.432   .     S
C542   O574    1.287   .     A
C542   C546    1.432   .     S
C542   O572    1.288   .     A
C543   C560    1.396   .     A
C543   H565    1.082   .     S
C543   C615    1.383   1_455 S
C544   H566    1.082   .     S
C544   C559    1.396   .     A
C544   C616    1.383   .     S
C546   C329    1.350   1_565 S
C546   N376    1.441   1_565 S
C547   O577    1.289   .     A
C547   C552    1.449   .     S
C547   O575    1.292   .     A
C548   O578    1.289   .     A
C548   C551    1.449   .     S
C548   O576    1.292   .     A
C549   C551    1.394   .     A
C549   Cl579   1.781   .     S
C549   C559    1.399   .     A
C550   C552    1.394   .     A
C550   C560    1.399   .     A
C550   Cl580   1.781   .     S
C551   C553    1.404   .     A
C552   C554    1.404   .     A
C553   Cl581   1.778   .     S
C553   C555    1.421   .     A
C554   Cl582   1.778   .     S
C554   C556    1.421   .     A
C555   C561    1.426   .     A
C555   C557    1.433   .     A
C556   C558    1.433   .     A
C556   C562    1.426   .     A
C557   C559    1.416   .     A
C557   C612    1.420   .     S
C558   C560    1.416   .     A
C558   C611    1.420   1_455 S
C561   N583    1.432   .     S
C561   C597    1.383   .     S
C562   N586    1.432   .     S
C562   C598    1.383   1_455 S
Cu563  O578    1.955   .     S
Cu563  O574    1.967   .     S
Cu563  O575    1.970   .     S
Cu563  Cu564   2.685   .     S
Cu563  N570    2.018   .     S
Cu563  O571    1.972   .     S
Cu564  O572    1.972   .     S
Cu564  O573    1.967   .     S
Cu564  O577    1.955   .     S
Cu564  O576    1.970   .     S
Cu564  N569    2.018   .     S
H567   N893    1.029   .     S
N570   N893    1.299   .     S
N570   H892    1.029   .     S
N583   H584    1.045   .     S
N583   H585    1.044   .     S
N586   H588    1.044   .     S
N586   H587    1.045   .     S
N589   H590    1.046   .     S
N589   H591    1.045   .     S
N589   C329    1.441   1_565 S
N592   H593    1.046   .     S
N592   H594    1.045   .     S
C595   O625    1.288   .     A
C595   O627    1.287   .     A
C595   C599    1.432   .     S
C596   O628    1.287   .     A
C596   C600    1.432   .     S
C596   O626    1.288   .     A
C597   C614    1.396   .     A
C597   H619    1.082   .     S
C598   H620    1.082   .     S
C598   C613    1.396   .     A
C598   C562    1.383   1_655 S
C600   C383    1.350   1_565 S
C600   N430    1.441   1_565 S
C601   O631    1.289   .     A
C601   C606    1.449   .     S
C601   O629    1.292   .     A
C602   O632    1.289   .     A
C602   C605    1.449   .     S
C602   O630    1.292   .     A
C603   C605    1.394   .     A
C603   Cl633   1.781   .     S
C603   C613    1.399   .     A
C604   C606    1.394   .     A
C604   C614    1.399   .     A
C604   Cl634   1.781   .     S
C605   C607    1.404   .     A
C606   C608    1.404   .     A
C607   Cl635   1.778   .     S
C607   C609    1.421   .     A
C608   Cl636   1.778   .     S
C608   C610    1.421   .     A
C609   C615    1.426   .     A
C609   C611    1.433   .     A
C610   C612    1.433   .     A
C610   C616    1.426   .     A
C611   C613    1.416   .     A
C611   C558    1.420   1_655 S
C612   C614    1.416   .     A
C615   N637    1.432   .     S
C615   C543    1.383   1_655 S
C616   N640    1.432   .     S
Cu617  O632    1.955   .     S
Cu617  O628    1.967   .     S
Cu617  O629    1.970   .     S
Cu617  Cu618   2.685   .     S
Cu617  N624    2.018   .     S
Cu617  O625    1.972   .     S
Cu618  O626    1.972   .     S
Cu618  O627    1.967   .     S
Cu618  O631    1.955   .     S
Cu618  O630    1.970   .     S
Cu618  N623    2.018   .     S
H621   N947    1.029   .     S
N624   N947    1.299   .     S
N624   H946    1.029   .     S
N637   H638    1.045   .     S
N637   H639    1.044   .     S
N640   H642    1.044   .     S
N640   H641    1.045   .     S
N643   H644    1.046   .     S
N643   H645    1.045   .     S
N643   C383    1.441   1_565 S
N646   H647    1.046   .     S
N646   H648    1.045   .     S
C649   O679    1.288   .     A
C649   O681    1.287   .     A
C649   C653    1.432   .     S
C650   O682    1.287   .     A
C650   C654    1.432   .     S
C650   O680    1.288   .     A
C651   C668    1.396   .     A
C651   H673    1.082   .     S
C651   C723    1.383   1_455 S
C652   H674    1.082   .     S
C652   C667    1.396   .     A
C652   C724    1.383   .     S
C653   C870    1.350   1_545 S
C653   N913    1.441   1_545 S
C654   C761    1.350   .     S
C654   N808    1.441   .     S
C655   O685    1.289   .     A
C655   C660    1.449   .     S
C655   O683    1.292   .     A
C656   O686    1.289   .     A
C656   C659    1.449   .     S
C656   O684    1.292   .     A
C657   C659    1.394   .     A
C657   Cl687   1.781   .     S
C657   C667    1.399   .     A
C658   C660    1.394   .     A
C658   C668    1.399   .     A
C658   Cl688   1.781   .     S
C659   C661    1.404   .     A
C660   C662    1.404   .     A
C661   Cl689   1.778   .     S
C661   C663    1.421   .     A
C662   Cl690   1.778   .     S
C662   C664    1.421   .     A
C663   C669    1.426   .     A
C663   C665    1.433   .     A
C664   C666    1.433   .     A
C664   C670    1.426   .     A
C665   C667    1.416   .     A
C665   C720    1.420   .     S
C666   C668    1.416   .     A
C666   C719    1.420   1_455 S
C669   N691    1.432   .     S
C669   C705    1.383   .     S
C670   N694    1.432   .     S
C670   C706    1.383   1_455 S
Cu671  O686    1.955   .     S
Cu671  O682    1.967   .     S
Cu671  O683    1.970   .     S
Cu671  Cu672   2.685   .     S
Cu671  N678    2.018   .     S
Cu671  O679    1.972   .     S
Cu672  O680    1.972   .     S
Cu672  O681    1.967   .     S
Cu672  O685    1.955   .     S
Cu672  O684    1.970   .     S
Cu672  N677    2.018   .     S
H675   N29     1.029   1_556 S
N678   N29     1.299   1_556 S
N678   H28     1.029   1_556 S
N691   H692    1.045   .     S
N691   H693    1.044   .     S
N694   H696    1.044   .     S
N694   H695    1.045   .     S
N697   H698    1.046   .     S
N697   H699    1.045   .     S
N697   C761    1.441   .     S
N700   H701    1.046   .     S
N700   H702    1.045   .     S
N700   C870    1.441   1_545 S
C703   O733    1.288   .     A
C703   O735    1.287   .     A
C703   C707    1.432   .     S
C704   O736    1.287   .     A
C704   C708    1.432   .     S
C704   O734    1.288   .     A
C705   C722    1.396   .     A
C705   H727    1.082   .     S
C706   H728    1.082   .     S
C706   C721    1.396   .     A
C706   C670    1.383   1_655 S
C707   C924    1.350   1_545 S
C707   N967    1.441   1_545 S
C708   C815    1.350   .     S
C708   N862    1.441   .     S
C709   O739    1.289   .     A
C709   C714    1.449   .     S
C709   O737    1.292   .     A
C710   O740    1.289   .     A
C710   C713    1.449   .     S
C710   O738    1.292   .     A
C711   C713    1.394   .     A
C711   Cl741   1.781   .     S
C711   C721    1.399   .     A
C712   C714    1.394   .     A
C712   C722    1.399   .     A
C712   Cl742   1.781   .     S
C713   C715    1.404   .     A
C714   C716    1.404   .     A
C715   Cl743   1.778   .     S
C715   C717    1.421   .     A
C716   Cl744   1.778   .     S
C716   C718    1.421   .     A
C717   C723    1.426   .     A
C717   C719    1.433   .     A
C718   C720    1.433   .     A
C718   C724    1.426   .     A
C719   C721    1.416   .     A
C719   C666    1.420   1_655 S
C720   C722    1.416   .     A
C723   N745    1.432   .     S
C723   C651    1.383   1_655 S
C724   N748    1.432   .     S
Cu725  O740    1.955   .     S
Cu725  O736    1.967   .     S
Cu725  O737    1.970   .     S
Cu725  Cu726   2.685   .     S
Cu725  N732    2.018   .     S
Cu725  O733    1.972   .     S
Cu726  O734    1.972   .     S
Cu726  O735    1.967   .     S
Cu726  O739    1.955   .     S
Cu726  O738    1.970   .     S
Cu726  N731    2.018   .     S
H729   N83     1.029   1_556 S
N732   N83     1.299   1_556 S
N732   H82     1.029   1_556 S
N745   H746    1.045   .     S
N745   H747    1.044   .     S
N748   H750    1.044   .     S
N748   H749    1.045   .     S
N751   H752    1.046   .     S
N751   H753    1.045   .     S
N751   C815    1.441   .     S
N754   H755    1.046   .     S
N754   H756    1.045   .     S
N754   C924    1.441   1_545 S
C757   O787    1.288   .     A
C757   O789    1.287   .     A
C757   C761    1.432   .     S
C758   O790    1.287   .     A
C758   C762    1.432   .     S
C758   O788    1.288   .     A
C759   C776    1.396   .     A
C759   H781    1.082   .     S
C759   C831    1.383   1_455 S
C760   H782    1.082   .     S
C760   C775    1.396   .     A
C760   C832    1.383   .     S
C762   C869    1.350   .     S
C762   N916    1.441   .     S
C763   O793    1.289   .     A
C763   C768    1.449   .     S
C763   O791    1.292   .     A
C764   O794    1.289   .     A
C764   C767    1.449   .     S
C764   O792    1.292   .     A
C765   C767    1.394   .     A
C765   Cl795   1.781   .     S
C765   C775    1.399   .     A
C766   C768    1.394   .     A
C766   C776    1.399   .     A
C766   Cl796   1.781   .     S
C767   C769    1.404   .     A
C768   C770    1.404   .     A
C769   Cl797   1.778   .     S
C769   C771    1.421   .     A
C770   Cl798   1.778   .     S
C770   C772    1.421   .     A
C771   C777    1.426   .     A
C771   C773    1.433   .     A
C772   C774    1.433   .     A
C772   C778    1.426   .     A
C773   C775    1.416   .     A
C773   C828    1.420   .     S
C774   C776    1.416   .     A
C774   C827    1.420   1_455 S
C777   N799    1.432   .     S
C777   C813    1.383   .     S
C778   N802    1.432   .     S
C778   C814    1.383   1_455 S
Cu779  O794    1.955   .     S
Cu779  O790    1.967   .     S
Cu779  O791    1.970   .     S
Cu779  Cu780   2.685   .     S
Cu779  N786    2.018   .     S
Cu779  O787    1.972   .     S
Cu780  O788    1.972   .     S
Cu780  O789    1.967   .     S
Cu780  O793    1.955   .     S
Cu780  O792    1.970   .     S
Cu780  N785    2.018   .     S
H783   N137    1.029   1_556 S
N786   N137    1.299   1_556 S
N786   H136    1.029   1_556 S
N799   H800    1.045   .     S
N799   H801    1.044   .     S
N802   H804    1.044   .     S
N802   H803    1.045   .     S
N805   H806    1.046   .     S
N805   H807    1.045   .     S
N805   C869    1.441   .     S
N808   H809    1.046   .     S
N808   H810    1.045   .     S
C811   O841    1.288   .     A
C811   O843    1.287   .     A
C811   C815    1.432   .     S
C812   O844    1.287   .     A
C812   C816    1.432   .     S
C812   O842    1.288   .     A
C813   C830    1.396   .     A
C813   H835    1.082   .     S
C814   H836    1.082   .     S
C814   C829    1.396   .     A
C814   C778    1.383   1_655 S
C816   C923    1.350   .     S
C816   N970    1.441   .     S
C817   O847    1.289   .     A
C817   C822    1.449   .     S
C817   O845    1.292   .     A
C818   O848    1.289   .     A
C818   C821    1.449   .     S
C818   O846    1.292   .     A
C819   C821    1.394   .     A
C819   Cl849   1.781   .     S
C819   C829    1.399   .     A
C820   C822    1.394   .     A
C820   C830    1.399   .     A
C820   Cl850   1.781   .     S
C821   C823    1.404   .     A
C822   C824    1.404   .     A
C823   Cl851   1.778   .     S
C823   C825    1.421   .     A
C824   Cl852   1.778   .     S
C824   C826    1.421   .     A
C825   C831    1.426   .     A
C825   C827    1.433   .     A
C826   C828    1.433   .     A
C826   C832    1.426   .     A
C827   C829    1.416   .     A
C827   C774    1.420   1_655 S
C828   C830    1.416   .     A
C831   N853    1.432   .     S
C831   C759    1.383   1_655 S
C832   N856    1.432   .     S
Cu833  O848    1.955   .     S
Cu833  O844    1.967   .     S
Cu833  O845    1.970   .     S
Cu833  Cu834   2.685   .     S
Cu833  N840    2.018   .     S
Cu833  O841    1.972   .     S
Cu834  O842    1.972   .     S
Cu834  O843    1.967   .     S
Cu834  O847    1.955   .     S
Cu834  O846    1.970   .     S
Cu834  N839    2.018   .     S
H837   N191    1.029   1_556 S
N840   N191    1.299   1_556 S
N840   H190    1.029   1_556 S
N853   H854    1.045   .     S
N853   H855    1.044   .     S
N856   H858    1.044   .     S
N856   H857    1.045   .     S
N859   H860    1.046   .     S
N859   H861    1.045   .     S
N859   C923    1.441   .     S
N862   H863    1.046   .     S
N862   H864    1.045   .     S
C865   O895    1.288   .     A
C865   O897    1.287   .     A
C865   C869    1.432   .     S
C866   O898    1.287   .     A
C866   C870    1.432   .     S
C866   O896    1.288   .     A
C867   C884    1.396   .     A
C867   H889    1.082   .     S
C867   C939    1.383   1_455 S
C868   H890    1.082   .     S
C868   C883    1.396   .     A
C868   C940    1.383   .     S
C870   C653    1.350   1_565 S
C870   N700    1.441   1_565 S
C871   O901    1.289   .     A
C871   C876    1.449   .     S
C871   O899    1.292   .     A
C872   O902    1.289   .     A
C872   C875    1.449   .     S
C872   O900    1.292   .     A
C873   C875    1.394   .     A
C873   Cl903   1.781   .     S
C873   C883    1.399   .     A
C874   C876    1.394   .     A
C874   C884    1.399   .     A
C874   Cl904   1.781   .     S
C875   C877    1.404   .     A
C876   C878    1.404   .     A
C877   Cl905   1.778   .     S
C877   C879    1.421   .     A
C878   Cl906   1.778   .     S
C878   C880    1.421   .     A
C879   C885    1.426   .     A
C879   C881    1.433   .     A
C880   C882    1.433   .     A
C880   C886    1.426   .     A
C881   C883    1.416   .     A
C881   C936    1.420   .     S
C882   C884    1.416   .     A
C882   C935    1.420   1_455 S
C885   N907    1.432   .     S
C885   C921    1.383   .     S
C886   N910    1.432   .     S
C886   C922    1.383   1_455 S
Cu887  O902    1.955   .     S
Cu887  O898    1.967   .     S
Cu887  O899    1.970   .     S
Cu887  Cu888   2.685   .     S
Cu887  N894    2.018   .     S
Cu887  O895    1.972   .     S
Cu888  O896    1.972   .     S
Cu888  O897    1.967   .     S
Cu888  O901    1.955   .     S
Cu888  O900    1.970   .     S
Cu888  N893    2.018   .     S
H891   N245    1.029   1_556 S
N894   N245    1.299   1_556 S
N894   H244    1.029   1_556 S
N907   H908    1.045   .     S
N907   H909    1.044   .     S
N910   H912    1.044   .     S
N910   H911    1.045   .     S
N913   H914    1.046   .     S
N913   H915    1.045   .     S
N913   C653    1.441   1_565 S
N916   H917    1.046   .     S
N916   H918    1.045   .     S
C919   O949    1.288   .     A
C919   O951    1.287   .     A
C919   C923    1.432   .     S
C920   O952    1.287   .     A
C920   C924    1.432   .     S
C920   O950    1.288   .     A
C921   C938    1.396   .     A
C921   H943    1.082   .     S
C922   H944    1.082   .     S
C922   C937    1.396   .     A
C922   C886    1.383   1_655 S
C924   C707    1.350   1_565 S
C924   N754    1.441   1_565 S
C925   O955    1.289   .     A
C925   C930    1.449   .     S
C925   O953    1.292   .     A
C926   O956    1.289   .     A
C926   C929    1.449   .     S
C926   O954    1.292   .     A
C927   C929    1.394   .     A
C927   Cl957   1.781   .     S
C927   C937    1.399   .     A
C928   C930    1.394   .     A
C928   C938    1.399   .     A
C928   Cl958   1.781   .     S
C929   C931    1.404   .     A
C930   C932    1.404   .     A
C931   Cl959   1.778   .     S
C931   C933    1.421   .     A
C932   Cl960   1.778   .     S
C932   C934    1.421   .     A
C933   C939    1.426   .     A
C933   C935    1.433   .     A
C934   C936    1.433   .     A
C934   C940    1.426   .     A
C935   C937    1.416   .     A
C935   C882    1.420   1_655 S
C936   C938    1.416   .     A
C939   N961    1.432   .     S
C939   C867    1.383   1_655 S
C940   N964    1.432   .     S
Cu941  O956    1.955   .     S
Cu941  O952    1.967   .     S
Cu941  O953    1.970   .     S
Cu941  Cu942   2.685   .     S
Cu941  N948    2.018   .     S
Cu941  O949    1.972   .     S
Cu942  O950    1.972   .     S
Cu942  O951    1.967   .     S
Cu942  O955    1.955   .     S
Cu942  O954    1.970   .     S
Cu942  N947    2.018   .     S
H945   N299    1.029   1_556 S
N948   N299    1.299   1_556 S
N948   H298    1.029   1_556 S
N961   H962    1.045   .     S
N961   H963    1.044   .     S
N964   H966    1.044   .     S
N964   H965    1.045   .     S
N967   H968    1.046   .     S
N967   H969    1.045   .     S
N967   C707    1.441   1_565 S
N970   H971    1.046   .     S
N970   H972    1.045   .     S
