data_str_m3_o1_o5_pcu_sym.37
_audit_creation_date              2020-01-03
_audit_creation_method            'Materials Studio'
_symmetry_space_group_name_H-M    'P1'
_symmetry_Int_Tables_number       1
_symmetry_cell_setting            triclinic
loop_
_symmetry_equiv_pos_as_xyz
  x,y,z
_cell_length_a                    32.4686
_cell_length_b                    29.6410
_cell_length_c                    26.7167
_cell_angle_alpha                 90.0813
_cell_angle_beta                  91.0796
_cell_angle_gamma                 90.9143
loop_
_atom_site_label
_atom_site_type_symbol
_atom_site_fract_x
_atom_site_fract_y
_atom_site_fract_z
_atom_site_U_iso_or_equiv
_atom_site_adp_type
_atom_site_occupancy
C1     C     0.08676   0.16629   0.17048   0.00000  Uiso   1.00
C2     C     0.02162   0.20691   0.17875   0.00000  Uiso   1.00
C3     C     0.29104   0.16771   0.15917   0.00000  Uiso   1.00
C4     C     0.04229   0.16563   0.17416   0.00000  Uiso   1.00
C5     C     0.19103   0.02451   0.19990   0.00000  Uiso   1.00
C6     C     0.14230   0.30882   0.13344   0.00000  Uiso   1.00
C7     C     0.14256   0.02357   0.13316   0.00000  Uiso   1.00
C8     C     0.19078   0.30976   0.20017   0.00000  Uiso   1.00
C9     C     0.03801   0.08077   0.17430   0.00000  Uiso   1.00
C10    C     0.29532   0.25256   0.15904   0.00000  Uiso   1.00
C11    C     0.29141   0.08590   0.13459   0.00000  Uiso   1.00
C12    C     0.24657   0.16705   0.16286   0.00000  Uiso   1.00
C13    C     0.04192   0.24744   0.19874   0.00000  Uiso   1.00
C14    C     0.21760   0.04937   0.23435   0.00000  Uiso   1.00
C15    C     0.11573   0.28397   0.09898   0.00000  Uiso   1.00
C16    C     0.11736   0.04741   0.09719   0.00000  Uiso   1.00
C17    C     0.21597   0.28592   0.23614   0.00000  Uiso   1.00
C18    C     0.16658   0.16664   0.07291   0.00000  Uiso   1.00
C19    C     0.16676   0.16669   0.26042   0.00000  Uiso   1.00
C20    C     0.16663   0.16664   0.02180   0.00000  Uiso   1.00
C21    C     0.16670   0.16670   0.31153   0.00000  Uiso   1.00
C22    C     0.01998   0.12483   0.16636   0.00000  Uiso   1.00
C23    C     0.31336   0.20850   0.16697   0.00000  Uiso   1.00
C24    C     0.31172   0.12642   0.15458   0.00000  Uiso   1.00
N25    N     0.16667   0.28573   0.16667   0.00000  Uiso   1.00
N26    N     0.23631   0.26710   0.26511   0.00000  Uiso   1.00
N27    N     0.16667   0.04760   0.16667   0.00000  Uiso   1.00
N28    N     0.05188   0.04555   0.18111   0.00000  Uiso   1.00
N29    N     0.28146   0.28779   0.15222   0.00000  Uiso   1.00
N30    N     0.27533   0.05378   0.11845   0.00000  Uiso   1.00
N31    N     0.05800   0.27956   0.21488   0.00000  Uiso   1.00
N32    N     0.23908   0.06904   0.26205   0.00000  Uiso   1.00
N33    N     0.09426   0.26430   0.07128   0.00000  Uiso   1.00
N34    N     0.09702   0.06623   0.06822   0.00000  Uiso   1.00
O35    O     0.10559   0.20487   0.16666   0.00000  Uiso   1.00
O36    O     0.22774   0.12846   0.16667   0.00000  Uiso   1.00
O37    O     0.22774   0.20487   0.16667   0.00000  Uiso   1.00
O38    O     0.10559   0.12846   0.16666   0.00000  Uiso   1.00
O39    O     0.16667   0.20488   0.09511   0.00000  Uiso   1.00
O40    O     0.16666   0.12845   0.23822   0.00000  Uiso   1.00
O41    O     0.16666   0.20488   0.23822   0.00000  Uiso   1.00
O42    O     0.16667   0.12845   0.09511   0.00000  Uiso   1.00
Zn43   Zn    0.16667   0.21771   0.16667   0.00000  Uiso   1.00
Zn44   Zn    0.16667   0.11563   0.16667   0.00000  Uiso   1.00
C45    C     0.42010   0.16629   0.17048   0.00000  Uiso   1.00
C46    C     0.35495   0.20691   0.17875   0.00000  Uiso   1.00
C47    C     0.62437   0.16771   0.15917   0.00000  Uiso   1.00
C48    C     0.37563   0.16563   0.17416   0.00000  Uiso   1.00
C49    C     0.52437   0.02451   0.19990   0.00000  Uiso   1.00
C50    C     0.47563   0.30882   0.13344   0.00000  Uiso   1.00
C51    C     0.47589   0.02357   0.13316   0.00000  Uiso   1.00
C52    C     0.52411   0.30976   0.20017   0.00000  Uiso   1.00
C53    C     0.37135   0.08077   0.17430   0.00000  Uiso   1.00
C54    C     0.62865   0.25256   0.15904   0.00000  Uiso   1.00
C55    C     0.62474   0.08590   0.13459   0.00000  Uiso   1.00
C56    C     0.57990   0.16705   0.16286   0.00000  Uiso   1.00
C57    C     0.37526   0.24744   0.19874   0.00000  Uiso   1.00
C58    C     0.55094   0.04937   0.23435   0.00000  Uiso   1.00
C59    C     0.44906   0.28397   0.09898   0.00000  Uiso   1.00
C60    C     0.45070   0.04741   0.09719   0.00000  Uiso   1.00
C61    C     0.54930   0.28592   0.23614   0.00000  Uiso   1.00
C62    C     0.49991   0.16664   0.07291   0.00000  Uiso   1.00
C63    C     0.50009   0.16669   0.26042   0.00000  Uiso   1.00
C64    C     0.49997   0.16664   0.02180   0.00000  Uiso   1.00
C65    C     0.50003   0.16670   0.31153   0.00000  Uiso   1.00
C66    C     0.35331   0.12483   0.16636   0.00000  Uiso   1.00
C67    C     0.64669   0.20850   0.16697   0.00000  Uiso   1.00
C68    C     0.64505   0.12642   0.15458   0.00000  Uiso   1.00
N69    N     0.50000   0.28573   0.16667   0.00000  Uiso   1.00
N70    N     0.56964   0.26710   0.26511   0.00000  Uiso   1.00
N71    N     0.50000   0.04760   0.16667   0.00000  Uiso   1.00
N72    N     0.38521   0.04555   0.18111   0.00000  Uiso   1.00
N73    N     0.61479   0.28779   0.15222   0.00000  Uiso   1.00
N74    N     0.60866   0.05378   0.11845   0.00000  Uiso   1.00
N75    N     0.39134   0.27956   0.21488   0.00000  Uiso   1.00
N76    N     0.57241   0.06904   0.26205   0.00000  Uiso   1.00
N77    N     0.42759   0.26430   0.07128   0.00000  Uiso   1.00
N78    N     0.43036   0.06623   0.06822   0.00000  Uiso   1.00
O79    O     0.43892   0.20487   0.16666   0.00000  Uiso   1.00
O80    O     0.56108   0.12846   0.16667   0.00000  Uiso   1.00
O81    O     0.56108   0.20487   0.16667   0.00000  Uiso   1.00
O82    O     0.43892   0.12846   0.16666   0.00000  Uiso   1.00
O83    O     0.50000   0.20488   0.09511   0.00000  Uiso   1.00
O84    O     0.50000   0.12845   0.23822   0.00000  Uiso   1.00
O85    O     0.50000   0.20488   0.23822   0.00000  Uiso   1.00
O86    O     0.50000   0.12845   0.09511   0.00000  Uiso   1.00
Zn87   Zn    0.50000   0.21771   0.16667   0.00000  Uiso   1.00
Zn88   Zn    0.50000   0.11563   0.16667   0.00000  Uiso   1.00
C89    C     0.75343   0.16629   0.17048   0.00000  Uiso   1.00
C90    C     0.68828   0.20691   0.17875   0.00000  Uiso   1.00
C91    C     0.95771   0.16771   0.15917   0.00000  Uiso   1.00
C92    C     0.70896   0.16563   0.17416   0.00000  Uiso   1.00
C93    C     0.85770   0.02451   0.19990   0.00000  Uiso   1.00
C94    C     0.80897   0.30882   0.13344   0.00000  Uiso   1.00
C95    C     0.80922   0.02357   0.13316   0.00000  Uiso   1.00
C96    C     0.85744   0.30976   0.20017   0.00000  Uiso   1.00
C97    C     0.70468   0.08077   0.17430   0.00000  Uiso   1.00
C98    C     0.96199   0.25256   0.15904   0.00000  Uiso   1.00
C99    C     0.95808   0.08590   0.13459   0.00000  Uiso   1.00
C100   C     0.91324   0.16705   0.16286   0.00000  Uiso   1.00
C101   C     0.70859   0.24744   0.19874   0.00000  Uiso   1.00
C102   C     0.88427   0.04937   0.23435   0.00000  Uiso   1.00
C103   C     0.78240   0.28397   0.09898   0.00000  Uiso   1.00
C104   C     0.78403   0.04741   0.09719   0.00000  Uiso   1.00
C105   C     0.88264   0.28592   0.23614   0.00000  Uiso   1.00
C106   C     0.83324   0.16664   0.07291   0.00000  Uiso   1.00
C107   C     0.83342   0.16669   0.26042   0.00000  Uiso   1.00
C108   C     0.83330   0.16664   0.02180   0.00000  Uiso   1.00
C109   C     0.83337   0.16670   0.31153   0.00000  Uiso   1.00
C110   C     0.68664   0.12483   0.16636   0.00000  Uiso   1.00
C111   C     0.98002   0.20850   0.16697   0.00000  Uiso   1.00
C112   C     0.97838   0.12642   0.15458   0.00000  Uiso   1.00
N113   N     0.83333   0.28573   0.16667   0.00000  Uiso   1.00
N114   N     0.90298   0.26710   0.26511   0.00000  Uiso   1.00
N115   N     0.83333   0.04760   0.16667   0.00000  Uiso   1.00
N116   N     0.71854   0.04555   0.18111   0.00000  Uiso   1.00
N117   N     0.94812   0.28779   0.15222   0.00000  Uiso   1.00
N118   N     0.94200   0.05378   0.11845   0.00000  Uiso   1.00
N119   N     0.72467   0.27956   0.21488   0.00000  Uiso   1.00
N120   N     0.90574   0.06904   0.26205   0.00000  Uiso   1.00
N121   N     0.76092   0.26430   0.07128   0.00000  Uiso   1.00
N122   N     0.76369   0.06623   0.06822   0.00000  Uiso   1.00
O123   O     0.77226   0.20487   0.16666   0.00000  Uiso   1.00
O124   O     0.89441   0.12846   0.16667   0.00000  Uiso   1.00
O125   O     0.89441   0.20487   0.16667   0.00000  Uiso   1.00
O126   O     0.77226   0.12846   0.16666   0.00000  Uiso   1.00
O127   O     0.83334   0.20488   0.09511   0.00000  Uiso   1.00
O128   O     0.83333   0.12845   0.23822   0.00000  Uiso   1.00
O129   O     0.83333   0.20488   0.23822   0.00000  Uiso   1.00
O130   O     0.83334   0.12845   0.09511   0.00000  Uiso   1.00
Zn131  Zn    0.83333   0.21771   0.16667   0.00000  Uiso   1.00
Zn132  Zn    0.83333   0.11563   0.16667   0.00000  Uiso   1.00
C133   C     0.08676   0.49962   0.17048   0.00000  Uiso   1.00
C134   C     0.02162   0.54024   0.17875   0.00000  Uiso   1.00
C135   C     0.29104   0.50104   0.15917   0.00000  Uiso   1.00
C136   C     0.04229   0.49896   0.17416   0.00000  Uiso   1.00
C137   C     0.19103   0.35784   0.19990   0.00000  Uiso   1.00
C138   C     0.14230   0.64216   0.13344   0.00000  Uiso   1.00
C139   C     0.14256   0.35690   0.13316   0.00000  Uiso   1.00
C140   C     0.19078   0.64310   0.20017   0.00000  Uiso   1.00
C141   C     0.03801   0.41411   0.17430   0.00000  Uiso   1.00
C142   C     0.29532   0.58589   0.15904   0.00000  Uiso   1.00
C143   C     0.29141   0.41923   0.13459   0.00000  Uiso   1.00
C144   C     0.24657   0.50038   0.16286   0.00000  Uiso   1.00
C145   C     0.04192   0.58077   0.19874   0.00000  Uiso   1.00
C146   C     0.21760   0.38270   0.23435   0.00000  Uiso   1.00
C147   C     0.11573   0.61730   0.09898   0.00000  Uiso   1.00
C148   C     0.11736   0.38075   0.09719   0.00000  Uiso   1.00
C149   C     0.21597   0.61925   0.23614   0.00000  Uiso   1.00
C150   C     0.16658   0.49998   0.07291   0.00000  Uiso   1.00
C151   C     0.16676   0.50002   0.26042   0.00000  Uiso   1.00
C152   C     0.16663   0.49997   0.02180   0.00000  Uiso   1.00
C153   C     0.16670   0.50003   0.31153   0.00000  Uiso   1.00
C154   C     0.01998   0.45817   0.16636   0.00000  Uiso   1.00
C155   C     0.31336   0.54183   0.16697   0.00000  Uiso   1.00
C156   C     0.31172   0.45976   0.15458   0.00000  Uiso   1.00
N157   N     0.16667   0.61907   0.16667   0.00000  Uiso   1.00
N158   N     0.23631   0.60043   0.26511   0.00000  Uiso   1.00
N159   N     0.16667   0.38093   0.16667   0.00000  Uiso   1.00
N160   N     0.05188   0.37888   0.18111   0.00000  Uiso   1.00
N161   N     0.28146   0.62112   0.15222   0.00000  Uiso   1.00
N162   N     0.27533   0.38711   0.11845   0.00000  Uiso   1.00
N163   N     0.05800   0.61289   0.21488   0.00000  Uiso   1.00
N164   N     0.23908   0.40237   0.26205   0.00000  Uiso   1.00
N165   N     0.09426   0.59763   0.07128   0.00000  Uiso   1.00
N166   N     0.09702   0.39957   0.06822   0.00000  Uiso   1.00
O167   O     0.10559   0.53821   0.16666   0.00000  Uiso   1.00
O168   O     0.22774   0.46179   0.16667   0.00000  Uiso   1.00
O169   O     0.22774   0.53821   0.16667   0.00000  Uiso   1.00
O170   O     0.10559   0.46179   0.16666   0.00000  Uiso   1.00
O171   O     0.16667   0.53821   0.09511   0.00000  Uiso   1.00
O172   O     0.16666   0.46179   0.23822   0.00000  Uiso   1.00
O173   O     0.16666   0.53821   0.23822   0.00000  Uiso   1.00
O174   O     0.16667   0.46179   0.09511   0.00000  Uiso   1.00
Zn175  Zn    0.16667   0.55104   0.16667   0.00000  Uiso   1.00
Zn176  Zn    0.16667   0.44896   0.16667   0.00000  Uiso   1.00
C177   C     0.42010   0.49962   0.17048   0.00000  Uiso   1.00
C178   C     0.35495   0.54024   0.17875   0.00000  Uiso   1.00
C179   C     0.62437   0.50104   0.15917   0.00000  Uiso   1.00
C180   C     0.37563   0.49896   0.17416   0.00000  Uiso   1.00
C181   C     0.52437   0.35784   0.19990   0.00000  Uiso   1.00
C182   C     0.47563   0.64216   0.13344   0.00000  Uiso   1.00
C183   C     0.47589   0.35690   0.13316   0.00000  Uiso   1.00
C184   C     0.52411   0.64310   0.20017   0.00000  Uiso   1.00
C185   C     0.37135   0.41411   0.17430   0.00000  Uiso   1.00
C186   C     0.62865   0.58589   0.15904   0.00000  Uiso   1.00
C187   C     0.62474   0.41923   0.13459   0.00000  Uiso   1.00
C188   C     0.57990   0.50038   0.16286   0.00000  Uiso   1.00
C189   C     0.37526   0.58077   0.19874   0.00000  Uiso   1.00
C190   C     0.55094   0.38270   0.23435   0.00000  Uiso   1.00
C191   C     0.44906   0.61730   0.09898   0.00000  Uiso   1.00
C192   C     0.45070   0.38075   0.09719   0.00000  Uiso   1.00
C193   C     0.54930   0.61925   0.23614   0.00000  Uiso   1.00
C194   C     0.49991   0.49998   0.07291   0.00000  Uiso   1.00
C195   C     0.50009   0.50002   0.26042   0.00000  Uiso   1.00
C196   C     0.49997   0.49997   0.02180   0.00000  Uiso   1.00
C197   C     0.50003   0.50003   0.31153   0.00000  Uiso   1.00
C198   C     0.35331   0.45817   0.16636   0.00000  Uiso   1.00
C199   C     0.64669   0.54183   0.16697   0.00000  Uiso   1.00
C200   C     0.64505   0.45976   0.15458   0.00000  Uiso   1.00
N201   N     0.50000   0.61907   0.16667   0.00000  Uiso   1.00
N202   N     0.56964   0.60043   0.26511   0.00000  Uiso   1.00
N203   N     0.50000   0.38093   0.16667   0.00000  Uiso   1.00
N204   N     0.38521   0.37888   0.18111   0.00000  Uiso   1.00
N205   N     0.61479   0.62112   0.15222   0.00000  Uiso   1.00
N206   N     0.60866   0.38711   0.11845   0.00000  Uiso   1.00
N207   N     0.39134   0.61289   0.21488   0.00000  Uiso   1.00
N208   N     0.57241   0.40237   0.26205   0.00000  Uiso   1.00
N209   N     0.42759   0.59763   0.07128   0.00000  Uiso   1.00
N210   N     0.43036   0.39957   0.06822   0.00000  Uiso   1.00
O211   O     0.43892   0.53821   0.16666   0.00000  Uiso   1.00
O212   O     0.56108   0.46179   0.16667   0.00000  Uiso   1.00
O213   O     0.56108   0.53821   0.16667   0.00000  Uiso   1.00
O214   O     0.43892   0.46179   0.16666   0.00000  Uiso   1.00
O215   O     0.50000   0.53821   0.09511   0.00000  Uiso   1.00
O216   O     0.50000   0.46179   0.23822   0.00000  Uiso   1.00
O217   O     0.50000   0.53821   0.23822   0.00000  Uiso   1.00
O218   O     0.50000   0.46179   0.09511   0.00000  Uiso   1.00
Zn219  Zn    0.50000   0.55104   0.16667   0.00000  Uiso   1.00
Zn220  Zn    0.50000   0.44896   0.16667   0.00000  Uiso   1.00
C221   C     0.75343   0.49962   0.17048   0.00000  Uiso   1.00
C222   C     0.68828   0.54024   0.17875   0.00000  Uiso   1.00
C223   C     0.95771   0.50104   0.15917   0.00000  Uiso   1.00
C224   C     0.70896   0.49896   0.17416   0.00000  Uiso   1.00
C225   C     0.85770   0.35784   0.19990   0.00000  Uiso   1.00
C226   C     0.80897   0.64216   0.13344   0.00000  Uiso   1.00
C227   C     0.80922   0.35690   0.13316   0.00000  Uiso   1.00
C228   C     0.85744   0.64310   0.20017   0.00000  Uiso   1.00
C229   C     0.70468   0.41411   0.17430   0.00000  Uiso   1.00
C230   C     0.96199   0.58589   0.15904   0.00000  Uiso   1.00
C231   C     0.95808   0.41923   0.13459   0.00000  Uiso   1.00
C232   C     0.91324   0.50038   0.16286   0.00000  Uiso   1.00
C233   C     0.70859   0.58077   0.19874   0.00000  Uiso   1.00
C234   C     0.88427   0.38270   0.23435   0.00000  Uiso   1.00
C235   C     0.78240   0.61730   0.09898   0.00000  Uiso   1.00
C236   C     0.78403   0.38075   0.09719   0.00000  Uiso   1.00
C237   C     0.88264   0.61925   0.23614   0.00000  Uiso   1.00
C238   C     0.83324   0.49998   0.07291   0.00000  Uiso   1.00
C239   C     0.83342   0.50002   0.26042   0.00000  Uiso   1.00
C240   C     0.83330   0.49997   0.02180   0.00000  Uiso   1.00
C241   C     0.83337   0.50003   0.31153   0.00000  Uiso   1.00
C242   C     0.68664   0.45817   0.16636   0.00000  Uiso   1.00
C243   C     0.98002   0.54183   0.16697   0.00000  Uiso   1.00
C244   C     0.97838   0.45976   0.15458   0.00000  Uiso   1.00
N245   N     0.83333   0.61907   0.16667   0.00000  Uiso   1.00
N246   N     0.90298   0.60043   0.26511   0.00000  Uiso   1.00
N247   N     0.83333   0.38093   0.16667   0.00000  Uiso   1.00
N248   N     0.71854   0.37888   0.18111   0.00000  Uiso   1.00
N249   N     0.94812   0.62112   0.15222   0.00000  Uiso   1.00
N250   N     0.94200   0.38711   0.11845   0.00000  Uiso   1.00
N251   N     0.72467   0.61289   0.21488   0.00000  Uiso   1.00
N252   N     0.90574   0.40237   0.26205   0.00000  Uiso   1.00
N253   N     0.76092   0.59763   0.07128   0.00000  Uiso   1.00
N254   N     0.76369   0.39957   0.06822   0.00000  Uiso   1.00
O255   O     0.77226   0.53821   0.16666   0.00000  Uiso   1.00
O256   O     0.89441   0.46179   0.16667   0.00000  Uiso   1.00
O257   O     0.89441   0.53821   0.16667   0.00000  Uiso   1.00
O258   O     0.77226   0.46179   0.16666   0.00000  Uiso   1.00
O259   O     0.83334   0.53821   0.09511   0.00000  Uiso   1.00
O260   O     0.83333   0.46179   0.23822   0.00000  Uiso   1.00
O261   O     0.83333   0.53821   0.23822   0.00000  Uiso   1.00
O262   O     0.83334   0.46179   0.09511   0.00000  Uiso   1.00
Zn263  Zn    0.83333   0.55104   0.16667   0.00000  Uiso   1.00
Zn264  Zn    0.83333   0.44896   0.16667   0.00000  Uiso   1.00
C265   C     0.08676   0.83295   0.17048   0.00000  Uiso   1.00
C266   C     0.02162   0.87358   0.17875   0.00000  Uiso   1.00
C267   C     0.29104   0.83437   0.15917   0.00000  Uiso   1.00
C268   C     0.04229   0.83229   0.17416   0.00000  Uiso   1.00
C269   C     0.19103   0.69118   0.19990   0.00000  Uiso   1.00
C270   C     0.14230   0.97549   0.13344   0.00000  Uiso   1.00
C271   C     0.14256   0.69024   0.13316   0.00000  Uiso   1.00
C272   C     0.19078   0.97643   0.20017   0.00000  Uiso   1.00
C273   C     0.03801   0.74744   0.17430   0.00000  Uiso   1.00
C274   C     0.29532   0.91923   0.15904   0.00000  Uiso   1.00
C275   C     0.29141   0.75256   0.13459   0.00000  Uiso   1.00
C276   C     0.24657   0.83371   0.16286   0.00000  Uiso   1.00
C277   C     0.04192   0.91410   0.19874   0.00000  Uiso   1.00
C278   C     0.21760   0.71603   0.23435   0.00000  Uiso   1.00
C279   C     0.11573   0.95063   0.09898   0.00000  Uiso   1.00
C280   C     0.11736   0.71408   0.09719   0.00000  Uiso   1.00
C281   C     0.21597   0.95258   0.23614   0.00000  Uiso   1.00
C282   C     0.16658   0.83331   0.07291   0.00000  Uiso   1.00
C283   C     0.16676   0.83335   0.26042   0.00000  Uiso   1.00
C284   C     0.16663   0.83330   0.02180   0.00000  Uiso   1.00
C285   C     0.16670   0.83336   0.31153   0.00000  Uiso   1.00
C286   C     0.01998   0.79150   0.16636   0.00000  Uiso   1.00
C287   C     0.31336   0.87517   0.16697   0.00000  Uiso   1.00
C288   C     0.31172   0.79309   0.15458   0.00000  Uiso   1.00
N289   N     0.16667   0.95240   0.16667   0.00000  Uiso   1.00
N290   N     0.23631   0.93377   0.26511   0.00000  Uiso   1.00
N291   N     0.16667   0.71427   0.16667   0.00000  Uiso   1.00
N292   N     0.05188   0.71221   0.18111   0.00000  Uiso   1.00
N293   N     0.28146   0.95445   0.15222   0.00000  Uiso   1.00
N294   N     0.27533   0.72044   0.11845   0.00000  Uiso   1.00
N295   N     0.05800   0.94622   0.21488   0.00000  Uiso   1.00
N296   N     0.23908   0.73570   0.26205   0.00000  Uiso   1.00
N297   N     0.09426   0.93096   0.07128   0.00000  Uiso   1.00
N298   N     0.09702   0.73290   0.06822   0.00000  Uiso   1.00
O299   O     0.10559   0.87154   0.16666   0.00000  Uiso   1.00
O300   O     0.22774   0.79513   0.16667   0.00000  Uiso   1.00
O301   O     0.22774   0.87154   0.16667   0.00000  Uiso   1.00
O302   O     0.10559   0.79513   0.16666   0.00000  Uiso   1.00
O303   O     0.16667   0.87155   0.09511   0.00000  Uiso   1.00
O304   O     0.16666   0.79512   0.23822   0.00000  Uiso   1.00
O305   O     0.16666   0.87155   0.23822   0.00000  Uiso   1.00
O306   O     0.16667   0.79512   0.09511   0.00000  Uiso   1.00
Zn307  Zn    0.16667   0.88437   0.16667   0.00000  Uiso   1.00
Zn308  Zn    0.16667   0.78229   0.16667   0.00000  Uiso   1.00
C309   C     0.42010   0.83295   0.17048   0.00000  Uiso   1.00
C310   C     0.35495   0.87358   0.17875   0.00000  Uiso   1.00
C311   C     0.62437   0.83437   0.15917   0.00000  Uiso   1.00
C312   C     0.37563   0.83229   0.17416   0.00000  Uiso   1.00
C313   C     0.52437   0.69118   0.19990   0.00000  Uiso   1.00
C314   C     0.47563   0.97549   0.13344   0.00000  Uiso   1.00
C315   C     0.47589   0.69024   0.13316   0.00000  Uiso   1.00
C316   C     0.52411   0.97643   0.20017   0.00000  Uiso   1.00
C317   C     0.37135   0.74744   0.17430   0.00000  Uiso   1.00
C318   C     0.62865   0.91923   0.15904   0.00000  Uiso   1.00
C319   C     0.62474   0.75256   0.13459   0.00000  Uiso   1.00
C320   C     0.57990   0.83371   0.16286   0.00000  Uiso   1.00
C321   C     0.37526   0.91410   0.19874   0.00000  Uiso   1.00
C322   C     0.55094   0.71603   0.23435   0.00000  Uiso   1.00
C323   C     0.44906   0.95063   0.09898   0.00000  Uiso   1.00
C324   C     0.45070   0.71408   0.09719   0.00000  Uiso   1.00
C325   C     0.54930   0.95258   0.23614   0.00000  Uiso   1.00
C326   C     0.49991   0.83331   0.07291   0.00000  Uiso   1.00
C327   C     0.50009   0.83335   0.26042   0.00000  Uiso   1.00
C328   C     0.49997   0.83330   0.02180   0.00000  Uiso   1.00
C329   C     0.50003   0.83336   0.31153   0.00000  Uiso   1.00
C330   C     0.35331   0.79150   0.16636   0.00000  Uiso   1.00
C331   C     0.64669   0.87517   0.16697   0.00000  Uiso   1.00
C332   C     0.64505   0.79309   0.15458   0.00000  Uiso   1.00
N333   N     0.50000   0.95240   0.16667   0.00000  Uiso   1.00
N334   N     0.56964   0.93377   0.26511   0.00000  Uiso   1.00
N335   N     0.50000   0.71427   0.16667   0.00000  Uiso   1.00
N336   N     0.38521   0.71221   0.18111   0.00000  Uiso   1.00
N337   N     0.61479   0.95445   0.15222   0.00000  Uiso   1.00
N338   N     0.60866   0.72044   0.11845   0.00000  Uiso   1.00
N339   N     0.39134   0.94622   0.21488   0.00000  Uiso   1.00
N340   N     0.57241   0.73570   0.26205   0.00000  Uiso   1.00
N341   N     0.42759   0.93096   0.07128   0.00000  Uiso   1.00
N342   N     0.43036   0.73290   0.06822   0.00000  Uiso   1.00
O343   O     0.43892   0.87154   0.16666   0.00000  Uiso   1.00
O344   O     0.56108   0.79513   0.16667   0.00000  Uiso   1.00
O345   O     0.56108   0.87154   0.16667   0.00000  Uiso   1.00
O346   O     0.43892   0.79513   0.16666   0.00000  Uiso   1.00
O347   O     0.50000   0.87155   0.09511   0.00000  Uiso   1.00
O348   O     0.50000   0.79512   0.23822   0.00000  Uiso   1.00
O349   O     0.50000   0.87155   0.23822   0.00000  Uiso   1.00
O350   O     0.50000   0.79512   0.09511   0.00000  Uiso   1.00
Zn351  Zn    0.50000   0.88437   0.16667   0.00000  Uiso   1.00
Zn352  Zn    0.50000   0.78229   0.16667   0.00000  Uiso   1.00
C353   C     0.75343   0.83295   0.17048   0.00000  Uiso   1.00
C354   C     0.68828   0.87358   0.17875   0.00000  Uiso   1.00
C355   C     0.95771   0.83437   0.15917   0.00000  Uiso   1.00
C356   C     0.70896   0.83229   0.17416   0.00000  Uiso   1.00
C357   C     0.85770   0.69118   0.19990   0.00000  Uiso   1.00
C358   C     0.80897   0.97549   0.13344   0.00000  Uiso   1.00
C359   C     0.80922   0.69024   0.13316   0.00000  Uiso   1.00
C360   C     0.85744   0.97643   0.20017   0.00000  Uiso   1.00
C361   C     0.70468   0.74744   0.17430   0.00000  Uiso   1.00
C362   C     0.96199   0.91923   0.15904   0.00000  Uiso   1.00
C363   C     0.95808   0.75256   0.13459   0.00000  Uiso   1.00
C364   C     0.91324   0.83371   0.16286   0.00000  Uiso   1.00
C365   C     0.70859   0.91410   0.19874   0.00000  Uiso   1.00
C366   C     0.88427   0.71603   0.23435   0.00000  Uiso   1.00
C367   C     0.78240   0.95063   0.09898   0.00000  Uiso   1.00
C368   C     0.78403   0.71408   0.09719   0.00000  Uiso   1.00
C369   C     0.88264   0.95258   0.23614   0.00000  Uiso   1.00
C370   C     0.83324   0.83331   0.07291   0.00000  Uiso   1.00
C371   C     0.83342   0.83335   0.26042   0.00000  Uiso   1.00
C372   C     0.83330   0.83330   0.02180   0.00000  Uiso   1.00
C373   C     0.83337   0.83336   0.31153   0.00000  Uiso   1.00
C374   C     0.68664   0.79150   0.16636   0.00000  Uiso   1.00
C375   C     0.98002   0.87517   0.16697   0.00000  Uiso   1.00
C376   C     0.97838   0.79309   0.15458   0.00000  Uiso   1.00
N377   N     0.83333   0.95240   0.16667   0.00000  Uiso   1.00
N378   N     0.90298   0.93377   0.26511   0.00000  Uiso   1.00
N379   N     0.83333   0.71427   0.16667   0.00000  Uiso   1.00
N380   N     0.71854   0.71221   0.18111   0.00000  Uiso   1.00
N381   N     0.94812   0.95445   0.15222   0.00000  Uiso   1.00
N382   N     0.94200   0.72044   0.11845   0.00000  Uiso   1.00
N383   N     0.72467   0.94622   0.21488   0.00000  Uiso   1.00
N384   N     0.90574   0.73570   0.26205   0.00000  Uiso   1.00
N385   N     0.76092   0.93096   0.07128   0.00000  Uiso   1.00
N386   N     0.76369   0.73290   0.06822   0.00000  Uiso   1.00
O387   O     0.77226   0.87154   0.16666   0.00000  Uiso   1.00
O388   O     0.89441   0.79513   0.16667   0.00000  Uiso   1.00
O389   O     0.89441   0.87154   0.16667   0.00000  Uiso   1.00
O390   O     0.77226   0.79513   0.16666   0.00000  Uiso   1.00
O391   O     0.83334   0.87155   0.09511   0.00000  Uiso   1.00
O392   O     0.83333   0.79512   0.23822   0.00000  Uiso   1.00
O393   O     0.83333   0.87155   0.23822   0.00000  Uiso   1.00
O394   O     0.83334   0.79512   0.09511   0.00000  Uiso   1.00
Zn395  Zn    0.83333   0.88437   0.16667   0.00000  Uiso   1.00
Zn396  Zn    0.83333   0.78229   0.16667   0.00000  Uiso   1.00
C397   C     0.08676   0.16629   0.50381   0.00000  Uiso   1.00
C398   C     0.02162   0.20691   0.51209   0.00000  Uiso   1.00
C399   C     0.29104   0.16771   0.49250   0.00000  Uiso   1.00
C400   C     0.04229   0.16563   0.50750   0.00000  Uiso   1.00
C401   C     0.19103   0.02451   0.53323   0.00000  Uiso   1.00
C402   C     0.14230   0.30882   0.46677   0.00000  Uiso   1.00
C403   C     0.14256   0.02357   0.46649   0.00000  Uiso   1.00
C404   C     0.19078   0.30976   0.53351   0.00000  Uiso   1.00
C405   C     0.03801   0.08077   0.50763   0.00000  Uiso   1.00
C406   C     0.29532   0.25256   0.49237   0.00000  Uiso   1.00
C407   C     0.29141   0.08590   0.46792   0.00000  Uiso   1.00
C408   C     0.24657   0.16705   0.49619   0.00000  Uiso   1.00
C409   C     0.04192   0.24744   0.53208   0.00000  Uiso   1.00
C410   C     0.21760   0.04937   0.56768   0.00000  Uiso   1.00
C411   C     0.11573   0.28397   0.43231   0.00000  Uiso   1.00
C412   C     0.11736   0.04741   0.43052   0.00000  Uiso   1.00
C413   C     0.21597   0.28592   0.56948   0.00000  Uiso   1.00
C414   C     0.16658   0.16664   0.40625   0.00000  Uiso   1.00
C415   C     0.16676   0.16669   0.59375   0.00000  Uiso   1.00
C416   C     0.16663   0.16664   0.35514   0.00000  Uiso   1.00
C417   C     0.16670   0.16670   0.64486   0.00000  Uiso   1.00
C418   C     0.01998   0.12483   0.49969   0.00000  Uiso   1.00
C419   C     0.31336   0.20850   0.50030   0.00000  Uiso   1.00
C420   C     0.31172   0.12642   0.48791   0.00000  Uiso   1.00
N421   N     0.16667   0.28573   0.50000   0.00000  Uiso   1.00
N422   N     0.23631   0.26710   0.59844   0.00000  Uiso   1.00
N423   N     0.16667   0.04760   0.50000   0.00000  Uiso   1.00
N424   N     0.05188   0.04555   0.51444   0.00000  Uiso   1.00
N425   N     0.28146   0.28779   0.48556   0.00000  Uiso   1.00
N426   N     0.27533   0.05378   0.45179   0.00000  Uiso   1.00
N427   N     0.05800   0.27956   0.54821   0.00000  Uiso   1.00
N428   N     0.23908   0.06904   0.59538   0.00000  Uiso   1.00
N429   N     0.09426   0.26430   0.40462   0.00000  Uiso   1.00
N430   N     0.09702   0.06623   0.40156   0.00000  Uiso   1.00
O431   O     0.10559   0.20487   0.50000   0.00000  Uiso   1.00
O432   O     0.22774   0.12846   0.50000   0.00000  Uiso   1.00
O433   O     0.22774   0.20487   0.50000   0.00000  Uiso   1.00
O434   O     0.10559   0.12846   0.50000   0.00000  Uiso   1.00
O435   O     0.16667   0.20488   0.42845   0.00000  Uiso   1.00
O436   O     0.16666   0.12845   0.57155   0.00000  Uiso   1.00
O437   O     0.16666   0.20488   0.57155   0.00000  Uiso   1.00
O438   O     0.16667   0.12845   0.42845   0.00000  Uiso   1.00
Zn439  Zn    0.16667   0.21771   0.50000   0.00000  Uiso   1.00
Zn440  Zn    0.16667   0.11563   0.50000   0.00000  Uiso   1.00
C441   C     0.42010   0.16629   0.50381   0.00000  Uiso   1.00
C442   C     0.35495   0.20691   0.51209   0.00000  Uiso   1.00
C443   C     0.62437   0.16771   0.49250   0.00000  Uiso   1.00
C444   C     0.37563   0.16563   0.50750   0.00000  Uiso   1.00
C445   C     0.52437   0.02451   0.53323   0.00000  Uiso   1.00
C446   C     0.47563   0.30882   0.46677   0.00000  Uiso   1.00
C447   C     0.47589   0.02357   0.46649   0.00000  Uiso   1.00
C448   C     0.52411   0.30976   0.53351   0.00000  Uiso   1.00
C449   C     0.37135   0.08077   0.50763   0.00000  Uiso   1.00
C450   C     0.62865   0.25256   0.49237   0.00000  Uiso   1.00
C451   C     0.62474   0.08590   0.46792   0.00000  Uiso   1.00
C452   C     0.57990   0.16705   0.49619   0.00000  Uiso   1.00
C453   C     0.37526   0.24744   0.53208   0.00000  Uiso   1.00
C454   C     0.55094   0.04937   0.56768   0.00000  Uiso   1.00
C455   C     0.44906   0.28397   0.43231   0.00000  Uiso   1.00
C456   C     0.45070   0.04741   0.43052   0.00000  Uiso   1.00
C457   C     0.54930   0.28592   0.56948   0.00000  Uiso   1.00
C458   C     0.49991   0.16664   0.40625   0.00000  Uiso   1.00
C459   C     0.50009   0.16669   0.59375   0.00000  Uiso   1.00
C460   C     0.49997   0.16664   0.35514   0.00000  Uiso   1.00
C461   C     0.50003   0.16670   0.64486   0.00000  Uiso   1.00
C462   C     0.35331   0.12483   0.49969   0.00000  Uiso   1.00
C463   C     0.64669   0.20850   0.50030   0.00000  Uiso   1.00
C464   C     0.64505   0.12642   0.48791   0.00000  Uiso   1.00
N465   N     0.50000   0.28573   0.50000   0.00000  Uiso   1.00
N466   N     0.56964   0.26710   0.59844   0.00000  Uiso   1.00
N467   N     0.50000   0.04760   0.50000   0.00000  Uiso   1.00
N468   N     0.38521   0.04555   0.51444   0.00000  Uiso   1.00
N469   N     0.61479   0.28779   0.48556   0.00000  Uiso   1.00
N470   N     0.60866   0.05378   0.45179   0.00000  Uiso   1.00
N471   N     0.39134   0.27956   0.54821   0.00000  Uiso   1.00
N472   N     0.57241   0.06904   0.59538   0.00000  Uiso   1.00
N473   N     0.42759   0.26430   0.40462   0.00000  Uiso   1.00
N474   N     0.43036   0.06623   0.40156   0.00000  Uiso   1.00
O475   O     0.43892   0.20487   0.50000   0.00000  Uiso   1.00
O476   O     0.56108   0.12846   0.50000   0.00000  Uiso   1.00
O477   O     0.56108   0.20487   0.50000   0.00000  Uiso   1.00
O478   O     0.43892   0.12846   0.50000   0.00000  Uiso   1.00
O479   O     0.50000   0.20488   0.42845   0.00000  Uiso   1.00
O480   O     0.50000   0.12845   0.57155   0.00000  Uiso   1.00
O481   O     0.50000   0.20488   0.57155   0.00000  Uiso   1.00
O482   O     0.50000   0.12845   0.42845   0.00000  Uiso   1.00
Zn483  Zn    0.50000   0.21771   0.50000   0.00000  Uiso   1.00
Zn484  Zn    0.50000   0.11563   0.50000   0.00000  Uiso   1.00
C485   C     0.75343   0.16629   0.50381   0.00000  Uiso   1.00
C486   C     0.68828   0.20691   0.51209   0.00000  Uiso   1.00
C487   C     0.95771   0.16771   0.49250   0.00000  Uiso   1.00
C488   C     0.70896   0.16563   0.50750   0.00000  Uiso   1.00
C489   C     0.85770   0.02451   0.53323   0.00000  Uiso   1.00
C490   C     0.80897   0.30882   0.46677   0.00000  Uiso   1.00
C491   C     0.80922   0.02357   0.46649   0.00000  Uiso   1.00
C492   C     0.85744   0.30976   0.53351   0.00000  Uiso   1.00
C493   C     0.70468   0.08077   0.50763   0.00000  Uiso   1.00
C494   C     0.96199   0.25256   0.49237   0.00000  Uiso   1.00
C495   C     0.95808   0.08590   0.46792   0.00000  Uiso   1.00
C496   C     0.91324   0.16705   0.49619   0.00000  Uiso   1.00
C497   C     0.70859   0.24744   0.53208   0.00000  Uiso   1.00
C498   C     0.88427   0.04937   0.56768   0.00000  Uiso   1.00
C499   C     0.78240   0.28397   0.43231   0.00000  Uiso   1.00
C500   C     0.78403   0.04741   0.43052   0.00000  Uiso   1.00
C501   C     0.88264   0.28592   0.56948   0.00000  Uiso   1.00
C502   C     0.83324   0.16664   0.40625   0.00000  Uiso   1.00
C503   C     0.83342   0.16669   0.59375   0.00000  Uiso   1.00
C504   C     0.83330   0.16664   0.35514   0.00000  Uiso   1.00
C505   C     0.83337   0.16670   0.64486   0.00000  Uiso   1.00
C506   C     0.68664   0.12483   0.49969   0.00000  Uiso   1.00
C507   C     0.98002   0.20850   0.50030   0.00000  Uiso   1.00
C508   C     0.97838   0.12642   0.48791   0.00000  Uiso   1.00
N509   N     0.83333   0.28573   0.50000   0.00000  Uiso   1.00
N510   N     0.90298   0.26710   0.59844   0.00000  Uiso   1.00
N511   N     0.83333   0.04760   0.50000   0.00000  Uiso   1.00
N512   N     0.71854   0.04555   0.51444   0.00000  Uiso   1.00
N513   N     0.94812   0.28779   0.48556   0.00000  Uiso   1.00
N514   N     0.94200   0.05378   0.45179   0.00000  Uiso   1.00
N515   N     0.72467   0.27956   0.54821   0.00000  Uiso   1.00
N516   N     0.90574   0.06904   0.59538   0.00000  Uiso   1.00
N517   N     0.76092   0.26430   0.40462   0.00000  Uiso   1.00
N518   N     0.76369   0.06623   0.40156   0.00000  Uiso   1.00
O519   O     0.77226   0.20487   0.50000   0.00000  Uiso   1.00
O520   O     0.89441   0.12846   0.50000   0.00000  Uiso   1.00
O521   O     0.89441   0.20487   0.50000   0.00000  Uiso   1.00
O522   O     0.77226   0.12846   0.50000   0.00000  Uiso   1.00
O523   O     0.83334   0.20488   0.42845   0.00000  Uiso   1.00
O524   O     0.83333   0.12845   0.57155   0.00000  Uiso   1.00
O525   O     0.83333   0.20488   0.57155   0.00000  Uiso   1.00
O526   O     0.83334   0.12845   0.42845   0.00000  Uiso   1.00
Zn527  Zn    0.83333   0.21771   0.50000   0.00000  Uiso   1.00
Zn528  Zn    0.83333   0.11563   0.50000   0.00000  Uiso   1.00
C529   C     0.08676   0.49962   0.50381   0.00000  Uiso   1.00
C530   C     0.02162   0.54024   0.51209   0.00000  Uiso   1.00
C531   C     0.29104   0.50104   0.49250   0.00000  Uiso   1.00
C532   C     0.04229   0.49896   0.50750   0.00000  Uiso   1.00
C533   C     0.19103   0.35784   0.53323   0.00000  Uiso   1.00
C534   C     0.14230   0.64216   0.46677   0.00000  Uiso   1.00
C535   C     0.14256   0.35690   0.46649   0.00000  Uiso   1.00
C536   C     0.19078   0.64310   0.53351   0.00000  Uiso   1.00
C537   C     0.03801   0.41411   0.50763   0.00000  Uiso   1.00
C538   C     0.29532   0.58589   0.49237   0.00000  Uiso   1.00
C539   C     0.29141   0.41923   0.46792   0.00000  Uiso   1.00
C540   C     0.24657   0.50038   0.49619   0.00000  Uiso   1.00
C541   C     0.04192   0.58077   0.53208   0.00000  Uiso   1.00
C542   C     0.21760   0.38270   0.56768   0.00000  Uiso   1.00
C543   C     0.11573   0.61730   0.43231   0.00000  Uiso   1.00
C544   C     0.11736   0.38075   0.43052   0.00000  Uiso   1.00
C545   C     0.21597   0.61925   0.56948   0.00000  Uiso   1.00
C546   C     0.16658   0.49998   0.40625   0.00000  Uiso   1.00
C547   C     0.16676   0.50002   0.59375   0.00000  Uiso   1.00
C548   C     0.16663   0.49997   0.35514   0.00000  Uiso   1.00
C549   C     0.16670   0.50003   0.64486   0.00000  Uiso   1.00
C550   C     0.01998   0.45817   0.49969   0.00000  Uiso   1.00
C551   C     0.31336   0.54183   0.50030   0.00000  Uiso   1.00
C552   C     0.31172   0.45976   0.48791   0.00000  Uiso   1.00
N553   N     0.16667   0.61907   0.50000   0.00000  Uiso   1.00
N554   N     0.23631   0.60043   0.59844   0.00000  Uiso   1.00
N555   N     0.16667   0.38093   0.50000   0.00000  Uiso   1.00
N556   N     0.05188   0.37888   0.51444   0.00000  Uiso   1.00
N557   N     0.28146   0.62112   0.48556   0.00000  Uiso   1.00
N558   N     0.27533   0.38711   0.45179   0.00000  Uiso   1.00
N559   N     0.05800   0.61289   0.54821   0.00000  Uiso   1.00
N560   N     0.23908   0.40237   0.59538   0.00000  Uiso   1.00
N561   N     0.09426   0.59763   0.40462   0.00000  Uiso   1.00
N562   N     0.09702   0.39957   0.40156   0.00000  Uiso   1.00
O563   O     0.10559   0.53821   0.50000   0.00000  Uiso   1.00
O564   O     0.22774   0.46179   0.50000   0.00000  Uiso   1.00
O565   O     0.22774   0.53821   0.50000   0.00000  Uiso   1.00
O566   O     0.10559   0.46179   0.50000   0.00000  Uiso   1.00
O567   O     0.16667   0.53821   0.42845   0.00000  Uiso   1.00
O568   O     0.16666   0.46179   0.57155   0.00000  Uiso   1.00
O569   O     0.16666   0.53821   0.57155   0.00000  Uiso   1.00
O570   O     0.16667   0.46179   0.42845   0.00000  Uiso   1.00
Zn571  Zn    0.16667   0.55104   0.50000   0.00000  Uiso   1.00
Zn572  Zn    0.16667   0.44896   0.50000   0.00000  Uiso   1.00
C573   C     0.42010   0.49962   0.50381   0.00000  Uiso   1.00
C574   C     0.35495   0.54024   0.51209   0.00000  Uiso   1.00
C575   C     0.62437   0.50104   0.49250   0.00000  Uiso   1.00
C576   C     0.37563   0.49896   0.50750   0.00000  Uiso   1.00
C577   C     0.52437   0.35784   0.53323   0.00000  Uiso   1.00
C578   C     0.47563   0.64216   0.46677   0.00000  Uiso   1.00
C579   C     0.47589   0.35690   0.46649   0.00000  Uiso   1.00
C580   C     0.52411   0.64310   0.53351   0.00000  Uiso   1.00
C581   C     0.37135   0.41411   0.50763   0.00000  Uiso   1.00
C582   C     0.62865   0.58589   0.49237   0.00000  Uiso   1.00
C583   C     0.62474   0.41923   0.46792   0.00000  Uiso   1.00
C584   C     0.57990   0.50038   0.49619   0.00000  Uiso   1.00
C585   C     0.37526   0.58077   0.53208   0.00000  Uiso   1.00
C586   C     0.55094   0.38270   0.56768   0.00000  Uiso   1.00
C587   C     0.44906   0.61730   0.43231   0.00000  Uiso   1.00
C588   C     0.45070   0.38075   0.43052   0.00000  Uiso   1.00
C589   C     0.54930   0.61925   0.56948   0.00000  Uiso   1.00
C590   C     0.49991   0.49998   0.40625   0.00000  Uiso   1.00
C591   C     0.50009   0.50002   0.59375   0.00000  Uiso   1.00
C592   C     0.49997   0.49997   0.35514   0.00000  Uiso   1.00
C593   C     0.50003   0.50003   0.64486   0.00000  Uiso   1.00
C594   C     0.35331   0.45817   0.49969   0.00000  Uiso   1.00
C595   C     0.64669   0.54183   0.50030   0.00000  Uiso   1.00
C596   C     0.64505   0.45976   0.48791   0.00000  Uiso   1.00
N597   N     0.50000   0.61907   0.50000   0.00000  Uiso   1.00
N598   N     0.56964   0.60043   0.59844   0.00000  Uiso   1.00
N599   N     0.50000   0.38093   0.50000   0.00000  Uiso   1.00
N600   N     0.38521   0.37888   0.51444   0.00000  Uiso   1.00
N601   N     0.61479   0.62112   0.48556   0.00000  Uiso   1.00
N602   N     0.60866   0.38711   0.45179   0.00000  Uiso   1.00
N603   N     0.39134   0.61289   0.54821   0.00000  Uiso   1.00
N604   N     0.57241   0.40237   0.59538   0.00000  Uiso   1.00
N605   N     0.42759   0.59763   0.40462   0.00000  Uiso   1.00
N606   N     0.43036   0.39957   0.40156   0.00000  Uiso   1.00
O607   O     0.43892   0.53821   0.50000   0.00000  Uiso   1.00
O608   O     0.56108   0.46179   0.50000   0.00000  Uiso   1.00
O609   O     0.56108   0.53821   0.50000   0.00000  Uiso   1.00
O610   O     0.43892   0.46179   0.50000   0.00000  Uiso   1.00
O611   O     0.50000   0.53821   0.42845   0.00000  Uiso   1.00
O612   O     0.50000   0.46179   0.57155   0.00000  Uiso   1.00
O613   O     0.50000   0.53821   0.57155   0.00000  Uiso   1.00
O614   O     0.50000   0.46179   0.42845   0.00000  Uiso   1.00
Zn615  Zn    0.50000   0.55104   0.50000   0.00000  Uiso   1.00
Zn616  Zn    0.50000   0.44896   0.50000   0.00000  Uiso   1.00
C617   C     0.75343   0.49962   0.50381   0.00000  Uiso   1.00
C618   C     0.68828   0.54024   0.51209   0.00000  Uiso   1.00
C619   C     0.95771   0.50104   0.49250   0.00000  Uiso   1.00
C620   C     0.70896   0.49896   0.50750   0.00000  Uiso   1.00
C621   C     0.85770   0.35784   0.53323   0.00000  Uiso   1.00
C622   C     0.80897   0.64216   0.46677   0.00000  Uiso   1.00
C623   C     0.80922   0.35690   0.46649   0.00000  Uiso   1.00
C624   C     0.85744   0.64310   0.53351   0.00000  Uiso   1.00
C625   C     0.70468   0.41411   0.50763   0.00000  Uiso   1.00
C626   C     0.96199   0.58589   0.49237   0.00000  Uiso   1.00
C627   C     0.95808   0.41923   0.46792   0.00000  Uiso   1.00
C628   C     0.91324   0.50038   0.49619   0.00000  Uiso   1.00
C629   C     0.70859   0.58077   0.53208   0.00000  Uiso   1.00
C630   C     0.88427   0.38270   0.56768   0.00000  Uiso   1.00
C631   C     0.78240   0.61730   0.43231   0.00000  Uiso   1.00
C632   C     0.78403   0.38075   0.43052   0.00000  Uiso   1.00
C633   C     0.88264   0.61925   0.56948   0.00000  Uiso   1.00
C634   C     0.83324   0.49998   0.40625   0.00000  Uiso   1.00
C635   C     0.83342   0.50002   0.59375   0.00000  Uiso   1.00
C636   C     0.83330   0.49997   0.35514   0.00000  Uiso   1.00
C637   C     0.83337   0.50003   0.64486   0.00000  Uiso   1.00
C638   C     0.68664   0.45817   0.49969   0.00000  Uiso   1.00
C639   C     0.98002   0.54183   0.50030   0.00000  Uiso   1.00
C640   C     0.97838   0.45976   0.48791   0.00000  Uiso   1.00
N641   N     0.83333   0.61907   0.50000   0.00000  Uiso   1.00
N642   N     0.90298   0.60043   0.59844   0.00000  Uiso   1.00
N643   N     0.83333   0.38093   0.50000   0.00000  Uiso   1.00
N644   N     0.71854   0.37888   0.51444   0.00000  Uiso   1.00
N645   N     0.94812   0.62112   0.48556   0.00000  Uiso   1.00
N646   N     0.94200   0.38711   0.45179   0.00000  Uiso   1.00
N647   N     0.72467   0.61289   0.54821   0.00000  Uiso   1.00
N648   N     0.90574   0.40237   0.59538   0.00000  Uiso   1.00
N649   N     0.76092   0.59763   0.40462   0.00000  Uiso   1.00
N650   N     0.76369   0.39957   0.40156   0.00000  Uiso   1.00
O651   O     0.77226   0.53821   0.50000   0.00000  Uiso   1.00
O652   O     0.89441   0.46179   0.50000   0.00000  Uiso   1.00
O653   O     0.89441   0.53821   0.50000   0.00000  Uiso   1.00
O654   O     0.77226   0.46179   0.50000   0.00000  Uiso   1.00
O655   O     0.83334   0.53821   0.42845   0.00000  Uiso   1.00
O656   O     0.83333   0.46179   0.57155   0.00000  Uiso   1.00
O657   O     0.83333   0.53821   0.57155   0.00000  Uiso   1.00
O658   O     0.83334   0.46179   0.42845   0.00000  Uiso   1.00
Zn659  Zn    0.83333   0.55104   0.50000   0.00000  Uiso   1.00
Zn660  Zn    0.83333   0.44896   0.50000   0.00000  Uiso   1.00
C661   C     0.08676   0.83295   0.50381   0.00000  Uiso   1.00
C662   C     0.02162   0.87358   0.51209   0.00000  Uiso   1.00
C663   C     0.29104   0.83437   0.49250   0.00000  Uiso   1.00
C664   C     0.04229   0.83229   0.50750   0.00000  Uiso   1.00
C665   C     0.19103   0.69118   0.53323   0.00000  Uiso   1.00
C666   C     0.14230   0.97549   0.46677   0.00000  Uiso   1.00
C667   C     0.14256   0.69024   0.46649   0.00000  Uiso   1.00
C668   C     0.19078   0.97643   0.53351   0.00000  Uiso   1.00
C669   C     0.03801   0.74744   0.50763   0.00000  Uiso   1.00
C670   C     0.29532   0.91923   0.49237   0.00000  Uiso   1.00
C671   C     0.29141   0.75256   0.46792   0.00000  Uiso   1.00
C672   C     0.24657   0.83371   0.49619   0.00000  Uiso   1.00
C673   C     0.04192   0.91410   0.53208   0.00000  Uiso   1.00
C674   C     0.21760   0.71603   0.56768   0.00000  Uiso   1.00
C675   C     0.11573   0.95063   0.43231   0.00000  Uiso   1.00
C676   C     0.11736   0.71408   0.43052   0.00000  Uiso   1.00
C677   C     0.21597   0.95258   0.56948   0.00000  Uiso   1.00
C678   C     0.16658   0.83331   0.40625   0.00000  Uiso   1.00
C679   C     0.16676   0.83335   0.59375   0.00000  Uiso   1.00
C680   C     0.16663   0.83330   0.35514   0.00000  Uiso   1.00
C681   C     0.16670   0.83336   0.64486   0.00000  Uiso   1.00
C682   C     0.01998   0.79150   0.49969   0.00000  Uiso   1.00
C683   C     0.31336   0.87517   0.50030   0.00000  Uiso   1.00
C684   C     0.31172   0.79309   0.48791   0.00000  Uiso   1.00
N685   N     0.16667   0.95240   0.50000   0.00000  Uiso   1.00
N686   N     0.23631   0.93377   0.59844   0.00000  Uiso   1.00
N687   N     0.16667   0.71427   0.50000   0.00000  Uiso   1.00
N688   N     0.05188   0.71221   0.51444   0.00000  Uiso   1.00
N689   N     0.28146   0.95445   0.48556   0.00000  Uiso   1.00
N690   N     0.27533   0.72044   0.45179   0.00000  Uiso   1.00
N691   N     0.05800   0.94622   0.54821   0.00000  Uiso   1.00
N692   N     0.23908   0.73570   0.59538   0.00000  Uiso   1.00
N693   N     0.09426   0.93096   0.40462   0.00000  Uiso   1.00
N694   N     0.09702   0.73290   0.40156   0.00000  Uiso   1.00
O695   O     0.10559   0.87154   0.50000   0.00000  Uiso   1.00
O696   O     0.22774   0.79513   0.50000   0.00000  Uiso   1.00
O697   O     0.22774   0.87154   0.50000   0.00000  Uiso   1.00
O698   O     0.10559   0.79513   0.50000   0.00000  Uiso   1.00
O699   O     0.16667   0.87155   0.42845   0.00000  Uiso   1.00
O700   O     0.16666   0.79512   0.57155   0.00000  Uiso   1.00
O701   O     0.16666   0.87155   0.57155   0.00000  Uiso   1.00
O702   O     0.16667   0.79512   0.42845   0.00000  Uiso   1.00
Zn703  Zn    0.16667   0.88437   0.50000   0.00000  Uiso   1.00
Zn704  Zn    0.16667   0.78229   0.50000   0.00000  Uiso   1.00
C705   C     0.42010   0.83295   0.50381   0.00000  Uiso   1.00
C706   C     0.35495   0.87358   0.51209   0.00000  Uiso   1.00
C707   C     0.62437   0.83437   0.49250   0.00000  Uiso   1.00
C708   C     0.37563   0.83229   0.50750   0.00000  Uiso   1.00
C709   C     0.52437   0.69118   0.53323   0.00000  Uiso   1.00
C710   C     0.47563   0.97549   0.46677   0.00000  Uiso   1.00
C711   C     0.47589   0.69024   0.46649   0.00000  Uiso   1.00
C712   C     0.52411   0.97643   0.53351   0.00000  Uiso   1.00
C713   C     0.37135   0.74744   0.50763   0.00000  Uiso   1.00
C714   C     0.62865   0.91923   0.49237   0.00000  Uiso   1.00
C715   C     0.62474   0.75256   0.46792   0.00000  Uiso   1.00
C716   C     0.57990   0.83371   0.49619   0.00000  Uiso   1.00
C717   C     0.37526   0.91410   0.53208   0.00000  Uiso   1.00
C718   C     0.55094   0.71603   0.56768   0.00000  Uiso   1.00
C719   C     0.44906   0.95063   0.43231   0.00000  Uiso   1.00
C720   C     0.45070   0.71408   0.43052   0.00000  Uiso   1.00
C721   C     0.54930   0.95258   0.56948   0.00000  Uiso   1.00
C722   C     0.49991   0.83331   0.40625   0.00000  Uiso   1.00
C723   C     0.50009   0.83335   0.59375   0.00000  Uiso   1.00
C724   C     0.49997   0.83330   0.35514   0.00000  Uiso   1.00
C725   C     0.50003   0.83336   0.64486   0.00000  Uiso   1.00
C726   C     0.35331   0.79150   0.49969   0.00000  Uiso   1.00
C727   C     0.64669   0.87517   0.50030   0.00000  Uiso   1.00
C728   C     0.64505   0.79309   0.48791   0.00000  Uiso   1.00
N729   N     0.50000   0.95240   0.50000   0.00000  Uiso   1.00
N730   N     0.56964   0.93377   0.59844   0.00000  Uiso   1.00
N731   N     0.50000   0.71427   0.50000   0.00000  Uiso   1.00
N732   N     0.38521   0.71221   0.51444   0.00000  Uiso   1.00
N733   N     0.61479   0.95445   0.48556   0.00000  Uiso   1.00
N734   N     0.60866   0.72044   0.45179   0.00000  Uiso   1.00
N735   N     0.39134   0.94622   0.54821   0.00000  Uiso   1.00
N736   N     0.57241   0.73570   0.59538   0.00000  Uiso   1.00
N737   N     0.42759   0.93096   0.40462   0.00000  Uiso   1.00
N738   N     0.43036   0.73290   0.40156   0.00000  Uiso   1.00
O739   O     0.43892   0.87154   0.50000   0.00000  Uiso   1.00
O740   O     0.56108   0.79513   0.50000   0.00000  Uiso   1.00
O741   O     0.56108   0.87154   0.50000   0.00000  Uiso   1.00
O742   O     0.43892   0.79513   0.50000   0.00000  Uiso   1.00
O743   O     0.50000   0.87155   0.42845   0.00000  Uiso   1.00
O744   O     0.50000   0.79512   0.57155   0.00000  Uiso   1.00
O745   O     0.50000   0.87155   0.57155   0.00000  Uiso   1.00
O746   O     0.50000   0.79512   0.42845   0.00000  Uiso   1.00
Zn747  Zn    0.50000   0.88437   0.50000   0.00000  Uiso   1.00
Zn748  Zn    0.50000   0.78229   0.50000   0.00000  Uiso   1.00
C749   C     0.75343   0.83295   0.50381   0.00000  Uiso   1.00
C750   C     0.68828   0.87358   0.51209   0.00000  Uiso   1.00
C751   C     0.95771   0.83437   0.49250   0.00000  Uiso   1.00
C752   C     0.70896   0.83229   0.50750   0.00000  Uiso   1.00
C753   C     0.85770   0.69118   0.53323   0.00000  Uiso   1.00
C754   C     0.80897   0.97549   0.46677   0.00000  Uiso   1.00
C755   C     0.80922   0.69024   0.46649   0.00000  Uiso   1.00
C756   C     0.85744   0.97643   0.53351   0.00000  Uiso   1.00
C757   C     0.70468   0.74744   0.50763   0.00000  Uiso   1.00
C758   C     0.96199   0.91923   0.49237   0.00000  Uiso   1.00
C759   C     0.95808   0.75256   0.46792   0.00000  Uiso   1.00
C760   C     0.91324   0.83371   0.49619   0.00000  Uiso   1.00
C761   C     0.70859   0.91410   0.53208   0.00000  Uiso   1.00
C762   C     0.88427   0.71603   0.56768   0.00000  Uiso   1.00
C763   C     0.78240   0.95063   0.43231   0.00000  Uiso   1.00
C764   C     0.78403   0.71408   0.43052   0.00000  Uiso   1.00
C765   C     0.88264   0.95258   0.56948   0.00000  Uiso   1.00
C766   C     0.83324   0.83331   0.40625   0.00000  Uiso   1.00
C767   C     0.83342   0.83335   0.59375   0.00000  Uiso   1.00
C768   C     0.83330   0.83330   0.35514   0.00000  Uiso   1.00
C769   C     0.83337   0.83336   0.64486   0.00000  Uiso   1.00
C770   C     0.68664   0.79150   0.49969   0.00000  Uiso   1.00
C771   C     0.98002   0.87517   0.50030   0.00000  Uiso   1.00
C772   C     0.97838   0.79309   0.48791   0.00000  Uiso   1.00
N773   N     0.83333   0.95240   0.50000   0.00000  Uiso   1.00
N774   N     0.90298   0.93377   0.59844   0.00000  Uiso   1.00
N775   N     0.83333   0.71427   0.50000   0.00000  Uiso   1.00
N776   N     0.71854   0.71221   0.51444   0.00000  Uiso   1.00
N777   N     0.94812   0.95445   0.48556   0.00000  Uiso   1.00
N778   N     0.94200   0.72044   0.45179   0.00000  Uiso   1.00
N779   N     0.72467   0.94622   0.54821   0.00000  Uiso   1.00
N780   N     0.90574   0.73570   0.59538   0.00000  Uiso   1.00
N781   N     0.76092   0.93096   0.40462   0.00000  Uiso   1.00
N782   N     0.76369   0.73290   0.40156   0.00000  Uiso   1.00
O783   O     0.77226   0.87154   0.50000   0.00000  Uiso   1.00
O784   O     0.89441   0.79513   0.50000   0.00000  Uiso   1.00
O785   O     0.89441   0.87154   0.50000   0.00000  Uiso   1.00
O786   O     0.77226   0.79513   0.50000   0.00000  Uiso   1.00
O787   O     0.83334   0.87155   0.42845   0.00000  Uiso   1.00
O788   O     0.83333   0.79512   0.57155   0.00000  Uiso   1.00
O789   O     0.83333   0.87155   0.57155   0.00000  Uiso   1.00
O790   O     0.83334   0.79512   0.42845   0.00000  Uiso   1.00
Zn791  Zn    0.83333   0.88437   0.50000   0.00000  Uiso   1.00
Zn792  Zn    0.83333   0.78229   0.50000   0.00000  Uiso   1.00
C793   C     0.08676   0.16629   0.83714   0.00000  Uiso   1.00
C794   C     0.02162   0.20691   0.84542   0.00000  Uiso   1.00
C795   C     0.29104   0.16771   0.82583   0.00000  Uiso   1.00
C796   C     0.04229   0.16563   0.84083   0.00000  Uiso   1.00
C797   C     0.19103   0.02451   0.86656   0.00000  Uiso   1.00
C798   C     0.14230   0.30882   0.80010   0.00000  Uiso   1.00
C799   C     0.14256   0.02357   0.79983   0.00000  Uiso   1.00
C800   C     0.19078   0.30976   0.86684   0.00000  Uiso   1.00
C801   C     0.03801   0.08077   0.84096   0.00000  Uiso   1.00
C802   C     0.29532   0.25256   0.82570   0.00000  Uiso   1.00
C803   C     0.29141   0.08590   0.80125   0.00000  Uiso   1.00
C804   C     0.24657   0.16705   0.82952   0.00000  Uiso   1.00
C805   C     0.04192   0.24744   0.86541   0.00000  Uiso   1.00
C806   C     0.21760   0.04937   0.90102   0.00000  Uiso   1.00
C807   C     0.11573   0.28397   0.76565   0.00000  Uiso   1.00
C808   C     0.11736   0.04741   0.76386   0.00000  Uiso   1.00
C809   C     0.21597   0.28592   0.90281   0.00000  Uiso   1.00
C810   C     0.16658   0.16664   0.73958   0.00000  Uiso   1.00
C811   C     0.16676   0.16669   0.92709   0.00000  Uiso   1.00
C812   C     0.16663   0.16664   0.68847   0.00000  Uiso   1.00
C813   C     0.16670   0.16670   0.97820   0.00000  Uiso   1.00
C814   C     0.01998   0.12483   0.83303   0.00000  Uiso   1.00
C815   C     0.31336   0.20850   0.83364   0.00000  Uiso   1.00
C816   C     0.31172   0.12642   0.82125   0.00000  Uiso   1.00
N817   N     0.16667   0.28573   0.83333   0.00000  Uiso   1.00
N818   N     0.23631   0.26710   0.93178   0.00000  Uiso   1.00
N819   N     0.16667   0.04760   0.83333   0.00000  Uiso   1.00
N820   N     0.05188   0.04555   0.84778   0.00000  Uiso   1.00
N821   N     0.28146   0.28779   0.81889   0.00000  Uiso   1.00
N822   N     0.27533   0.05378   0.78512   0.00000  Uiso   1.00
N823   N     0.05800   0.27956   0.88154   0.00000  Uiso   1.00
N824   N     0.23908   0.06904   0.92871   0.00000  Uiso   1.00
N825   N     0.09426   0.26430   0.73795   0.00000  Uiso   1.00
N826   N     0.09702   0.06623   0.73489   0.00000  Uiso   1.00
O827   O     0.10559   0.20487   0.83333   0.00000  Uiso   1.00
O828   O     0.22774   0.12846   0.83334   0.00000  Uiso   1.00
O829   O     0.22774   0.20487   0.83334   0.00000  Uiso   1.00
O830   O     0.10559   0.12846   0.83333   0.00000  Uiso   1.00
O831   O     0.16667   0.20488   0.76178   0.00000  Uiso   1.00
O832   O     0.16666   0.12845   0.90489   0.00000  Uiso   1.00
O833   O     0.16666   0.20488   0.90489   0.00000  Uiso   1.00
O834   O     0.16667   0.12845   0.76178   0.00000  Uiso   1.00
Zn835  Zn    0.16667   0.21771   0.83333   0.00000  Uiso   1.00
Zn836  Zn    0.16667   0.11563   0.83333   0.00000  Uiso   1.00
C837   C     0.42010   0.16629   0.83714   0.00000  Uiso   1.00
C838   C     0.35495   0.20691   0.84542   0.00000  Uiso   1.00
C839   C     0.62437   0.16771   0.82583   0.00000  Uiso   1.00
C840   C     0.37563   0.16563   0.84083   0.00000  Uiso   1.00
C841   C     0.52437   0.02451   0.86656   0.00000  Uiso   1.00
C842   C     0.47563   0.30882   0.80010   0.00000  Uiso   1.00
C843   C     0.47589   0.02357   0.79983   0.00000  Uiso   1.00
C844   C     0.52411   0.30976   0.86684   0.00000  Uiso   1.00
C845   C     0.37135   0.08077   0.84096   0.00000  Uiso   1.00
C846   C     0.62865   0.25256   0.82570   0.00000  Uiso   1.00
C847   C     0.62474   0.08590   0.80125   0.00000  Uiso   1.00
C848   C     0.57990   0.16705   0.82952   0.00000  Uiso   1.00
C849   C     0.37526   0.24744   0.86541   0.00000  Uiso   1.00
C850   C     0.55094   0.04937   0.90102   0.00000  Uiso   1.00
C851   C     0.44906   0.28397   0.76565   0.00000  Uiso   1.00
C852   C     0.45070   0.04741   0.76386   0.00000  Uiso   1.00
C853   C     0.54930   0.28592   0.90281   0.00000  Uiso   1.00
C854   C     0.49991   0.16664   0.73958   0.00000  Uiso   1.00
C855   C     0.50009   0.16669   0.92709   0.00000  Uiso   1.00
C856   C     0.49997   0.16664   0.68847   0.00000  Uiso   1.00
C857   C     0.50003   0.16670   0.97820   0.00000  Uiso   1.00
C858   C     0.35331   0.12483   0.83303   0.00000  Uiso   1.00
C859   C     0.64669   0.20850   0.83364   0.00000  Uiso   1.00
C860   C     0.64505   0.12642   0.82125   0.00000  Uiso   1.00
N861   N     0.50000   0.28573   0.83333   0.00000  Uiso   1.00
N862   N     0.56964   0.26710   0.93178   0.00000  Uiso   1.00
N863   N     0.50000   0.04760   0.83333   0.00000  Uiso   1.00
N864   N     0.38521   0.04555   0.84778   0.00000  Uiso   1.00
N865   N     0.61479   0.28779   0.81889   0.00000  Uiso   1.00
N866   N     0.60866   0.05378   0.78512   0.00000  Uiso   1.00
N867   N     0.39134   0.27956   0.88154   0.00000  Uiso   1.00
N868   N     0.57241   0.06904   0.92871   0.00000  Uiso   1.00
N869   N     0.42759   0.26430   0.73795   0.00000  Uiso   1.00
N870   N     0.43036   0.06623   0.73489   0.00000  Uiso   1.00
O871   O     0.43892   0.20487   0.83333   0.00000  Uiso   1.00
O872   O     0.56108   0.12846   0.83334   0.00000  Uiso   1.00
O873   O     0.56108   0.20487   0.83334   0.00000  Uiso   1.00
O874   O     0.43892   0.12846   0.83333   0.00000  Uiso   1.00
O875   O     0.50000   0.20488   0.76178   0.00000  Uiso   1.00
O876   O     0.50000   0.12845   0.90489   0.00000  Uiso   1.00
O877   O     0.50000   0.20488   0.90489   0.00000  Uiso   1.00
O878   O     0.50000   0.12845   0.76178   0.00000  Uiso   1.00
Zn879  Zn    0.50000   0.21771   0.83333   0.00000  Uiso   1.00
Zn880  Zn    0.50000   0.11563   0.83333   0.00000  Uiso   1.00
C881   C     0.75343   0.16629   0.83714   0.00000  Uiso   1.00
C882   C     0.68828   0.20691   0.84542   0.00000  Uiso   1.00
C883   C     0.95771   0.16771   0.82583   0.00000  Uiso   1.00
C884   C     0.70896   0.16563   0.84083   0.00000  Uiso   1.00
C885   C     0.85770   0.02451   0.86656   0.00000  Uiso   1.00
C886   C     0.80897   0.30882   0.80010   0.00000  Uiso   1.00
C887   C     0.80922   0.02357   0.79983   0.00000  Uiso   1.00
C888   C     0.85744   0.30976   0.86684   0.00000  Uiso   1.00
C889   C     0.70468   0.08077   0.84096   0.00000  Uiso   1.00
C890   C     0.96199   0.25256   0.82570   0.00000  Uiso   1.00
C891   C     0.95808   0.08590   0.80125   0.00000  Uiso   1.00
C892   C     0.91324   0.16705   0.82952   0.00000  Uiso   1.00
C893   C     0.70859   0.24744   0.86541   0.00000  Uiso   1.00
C894   C     0.88427   0.04937   0.90102   0.00000  Uiso   1.00
C895   C     0.78240   0.28397   0.76565   0.00000  Uiso   1.00
C896   C     0.78403   0.04741   0.76386   0.00000  Uiso   1.00
C897   C     0.88264   0.28592   0.90281   0.00000  Uiso   1.00
C898   C     0.83324   0.16664   0.73958   0.00000  Uiso   1.00
C899   C     0.83342   0.16669   0.92709   0.00000  Uiso   1.00
C900   C     0.83330   0.16664   0.68847   0.00000  Uiso   1.00
C901   C     0.83337   0.16670   0.97820   0.00000  Uiso   1.00
C902   C     0.68664   0.12483   0.83303   0.00000  Uiso   1.00
C903   C     0.98002   0.20850   0.83364   0.00000  Uiso   1.00
C904   C     0.97838   0.12642   0.82125   0.00000  Uiso   1.00
N905   N     0.83333   0.28573   0.83333   0.00000  Uiso   1.00
N906   N     0.90298   0.26710   0.93178   0.00000  Uiso   1.00
N907   N     0.83333   0.04760   0.83333   0.00000  Uiso   1.00
N908   N     0.71854   0.04555   0.84778   0.00000  Uiso   1.00
N909   N     0.94812   0.28779   0.81889   0.00000  Uiso   1.00
N910   N     0.94200   0.05378   0.78512   0.00000  Uiso   1.00
N911   N     0.72467   0.27956   0.88154   0.00000  Uiso   1.00
N912   N     0.90574   0.06904   0.92871   0.00000  Uiso   1.00
N913   N     0.76092   0.26430   0.73795   0.00000  Uiso   1.00
N914   N     0.76369   0.06623   0.73489   0.00000  Uiso   1.00
O915   O     0.77226   0.20487   0.83333   0.00000  Uiso   1.00
O916   O     0.89441   0.12846   0.83334   0.00000  Uiso   1.00
O917   O     0.89441   0.20487   0.83334   0.00000  Uiso   1.00
O918   O     0.77226   0.12846   0.83333   0.00000  Uiso   1.00
O919   O     0.83334   0.20488   0.76178   0.00000  Uiso   1.00
O920   O     0.83333   0.12845   0.90489   0.00000  Uiso   1.00
O921   O     0.83333   0.20488   0.90489   0.00000  Uiso   1.00
O922   O     0.83334   0.12845   0.76178   0.00000  Uiso   1.00
Zn923  Zn    0.83333   0.21771   0.83333   0.00000  Uiso   1.00
Zn924  Zn    0.83333   0.11563   0.83333   0.00000  Uiso   1.00
C925   C     0.08676   0.49962   0.83714   0.00000  Uiso   1.00
C926   C     0.02162   0.54024   0.84542   0.00000  Uiso   1.00
C927   C     0.29104   0.50104   0.82583   0.00000  Uiso   1.00
C928   C     0.04229   0.49896   0.84083   0.00000  Uiso   1.00
C929   C     0.19103   0.35784   0.86656   0.00000  Uiso   1.00
C930   C     0.14230   0.64216   0.80010   0.00000  Uiso   1.00
C931   C     0.14256   0.35690   0.79983   0.00000  Uiso   1.00
C932   C     0.19078   0.64310   0.86684   0.00000  Uiso   1.00
C933   C     0.03801   0.41411   0.84096   0.00000  Uiso   1.00
C934   C     0.29532   0.58589   0.82570   0.00000  Uiso   1.00
C935   C     0.29141   0.41923   0.80125   0.00000  Uiso   1.00
C936   C     0.24657   0.50038   0.82952   0.00000  Uiso   1.00
C937   C     0.04192   0.58077   0.86541   0.00000  Uiso   1.00
C938   C     0.21760   0.38270   0.90102   0.00000  Uiso   1.00
C939   C     0.11573   0.61730   0.76565   0.00000  Uiso   1.00
C940   C     0.11736   0.38075   0.76386   0.00000  Uiso   1.00
C941   C     0.21597   0.61925   0.90281   0.00000  Uiso   1.00
C942   C     0.16658   0.49998   0.73958   0.00000  Uiso   1.00
C943   C     0.16676   0.50002   0.92709   0.00000  Uiso   1.00
C944   C     0.16663   0.49997   0.68847   0.00000  Uiso   1.00
C945   C     0.16670   0.50003   0.97820   0.00000  Uiso   1.00
C946   C     0.01998   0.45817   0.83303   0.00000  Uiso   1.00
C947   C     0.31336   0.54183   0.83364   0.00000  Uiso   1.00
C948   C     0.31172   0.45976   0.82125   0.00000  Uiso   1.00
N949   N     0.16667   0.61907   0.83333   0.00000  Uiso   1.00
N950   N     0.23631   0.60043   0.93178   0.00000  Uiso   1.00
N951   N     0.16667   0.38093   0.83333   0.00000  Uiso   1.00
N952   N     0.05188   0.37888   0.84778   0.00000  Uiso   1.00
N953   N     0.28146   0.62112   0.81889   0.00000  Uiso   1.00
N954   N     0.27533   0.38711   0.78512   0.00000  Uiso   1.00
N955   N     0.05800   0.61289   0.88154   0.00000  Uiso   1.00
N956   N     0.23908   0.40237   0.92871   0.00000  Uiso   1.00
N957   N     0.09426   0.59763   0.73795   0.00000  Uiso   1.00
N958   N     0.09702   0.39957   0.73489   0.00000  Uiso   1.00
O959   O     0.10559   0.53821   0.83333   0.00000  Uiso   1.00
O960   O     0.22774   0.46179   0.83334   0.00000  Uiso   1.00
O961   O     0.22774   0.53821   0.83334   0.00000  Uiso   1.00
O962   O     0.10559   0.46179   0.83333   0.00000  Uiso   1.00
O963   O     0.16667   0.53821   0.76178   0.00000  Uiso   1.00
O964   O     0.16666   0.46179   0.90489   0.00000  Uiso   1.00
O965   O     0.16666   0.53821   0.90489   0.00000  Uiso   1.00
O966   O     0.16667   0.46179   0.76178   0.00000  Uiso   1.00
Zn967  Zn    0.16667   0.55104   0.83333   0.00000  Uiso   1.00
Zn968  Zn    0.16667   0.44896   0.83333   0.00000  Uiso   1.00
C969   C     0.42010   0.49962   0.83714   0.00000  Uiso   1.00
C970   C     0.35495   0.54024   0.84542   0.00000  Uiso   1.00
C971   C     0.62437   0.50104   0.82583   0.00000  Uiso   1.00
C972   C     0.37563   0.49896   0.84083   0.00000  Uiso   1.00
C973   C     0.52437   0.35784   0.86656   0.00000  Uiso   1.00
C974   C     0.47563   0.64216   0.80010   0.00000  Uiso   1.00
C975   C     0.47589   0.35690   0.79983   0.00000  Uiso   1.00
C976   C     0.52411   0.64310   0.86684   0.00000  Uiso   1.00
C977   C     0.37135   0.41411   0.84096   0.00000  Uiso   1.00
C978   C     0.62865   0.58589   0.82570   0.00000  Uiso   1.00
C979   C     0.62474   0.41923   0.80125   0.00000  Uiso   1.00
C980   C     0.57990   0.50038   0.82952   0.00000  Uiso   1.00
C981   C     0.37526   0.58077   0.86541   0.00000  Uiso   1.00
C982   C     0.55094   0.38270   0.90102   0.00000  Uiso   1.00
C983   C     0.44906   0.61730   0.76565   0.00000  Uiso   1.00
C984   C     0.45070   0.38075   0.76386   0.00000  Uiso   1.00
C985   C     0.54930   0.61925   0.90281   0.00000  Uiso   1.00
C986   C     0.49991   0.49998   0.73958   0.00000  Uiso   1.00
C987   C     0.50009   0.50002   0.92709   0.00000  Uiso   1.00
C988   C     0.49997   0.49997   0.68847   0.00000  Uiso   1.00
C989   C     0.50003   0.50003   0.97820   0.00000  Uiso   1.00
C990   C     0.35331   0.45817   0.83303   0.00000  Uiso   1.00
C991   C     0.64669   0.54183   0.83364   0.00000  Uiso   1.00
C992   C     0.64505   0.45976   0.82125   0.00000  Uiso   1.00
N993   N     0.50000   0.61907   0.83333   0.00000  Uiso   1.00
N994   N     0.56964   0.60043   0.93178   0.00000  Uiso   1.00
N995   N     0.50000   0.38093   0.83333   0.00000  Uiso   1.00
N996   N     0.38521   0.37888   0.84778   0.00000  Uiso   1.00
N997   N     0.61479   0.62112   0.81889   0.00000  Uiso   1.00
N998   N     0.60866   0.38711   0.78512   0.00000  Uiso   1.00
N999   N     0.39134   0.61289   0.88154   0.00000  Uiso   1.00
N1000  N     0.57241   0.40237   0.92871   0.00000  Uiso   1.00
N1001  N     0.42759   0.59763   0.73795   0.00000  Uiso   1.00
N1002  N     0.43036   0.39957   0.73489   0.00000  Uiso   1.00
O1003  O     0.43892   0.53821   0.83333   0.00000  Uiso   1.00
O1004  O     0.56108   0.46179   0.83334   0.00000  Uiso   1.00
O1005  O     0.56108   0.53821   0.83334   0.00000  Uiso   1.00
O1006  O     0.43892   0.46179   0.83333   0.00000  Uiso   1.00
O1007  O     0.50000   0.53821   0.76178   0.00000  Uiso   1.00
O1008  O     0.50000   0.46179   0.90489   0.00000  Uiso   1.00
O1009  O     0.50000   0.53821   0.90489   0.00000  Uiso   1.00
O1010  O     0.50000   0.46179   0.76178   0.00000  Uiso   1.00
Zn1011 Zn    0.50000   0.55104   0.83333   0.00000  Uiso   1.00
Zn1012 Zn    0.50000   0.44896   0.83333   0.00000  Uiso   1.00
C1013  C     0.75343   0.49962   0.83714   0.00000  Uiso   1.00
C1014  C     0.68828   0.54024   0.84542   0.00000  Uiso   1.00
C1015  C     0.95771   0.50104   0.82583   0.00000  Uiso   1.00
C1016  C     0.70896   0.49896   0.84083   0.00000  Uiso   1.00
C1017  C     0.85770   0.35784   0.86656   0.00000  Uiso   1.00
C1018  C     0.80897   0.64216   0.80010   0.00000  Uiso   1.00
C1019  C     0.80922   0.35690   0.79983   0.00000  Uiso   1.00
C1020  C     0.85744   0.64310   0.86684   0.00000  Uiso   1.00
C1021  C     0.70468   0.41411   0.84096   0.00000  Uiso   1.00
C1022  C     0.96199   0.58589   0.82570   0.00000  Uiso   1.00
C1023  C     0.95808   0.41923   0.80125   0.00000  Uiso   1.00
C1024  C     0.91324   0.50038   0.82952   0.00000  Uiso   1.00
C1025  C     0.70859   0.58077   0.86541   0.00000  Uiso   1.00
C1026  C     0.88427   0.38270   0.90102   0.00000  Uiso   1.00
C1027  C     0.78240   0.61730   0.76565   0.00000  Uiso   1.00
C1028  C     0.78403   0.38075   0.76386   0.00000  Uiso   1.00
C1029  C     0.88264   0.61925   0.90281   0.00000  Uiso   1.00
C1030  C     0.83324   0.49998   0.73958   0.00000  Uiso   1.00
C1031  C     0.83342   0.50002   0.92709   0.00000  Uiso   1.00
C1032  C     0.83330   0.49997   0.68847   0.00000  Uiso   1.00
C1033  C     0.83337   0.50003   0.97820   0.00000  Uiso   1.00
C1034  C     0.68664   0.45817   0.83303   0.00000  Uiso   1.00
C1035  C     0.98002   0.54183   0.83364   0.00000  Uiso   1.00
C1036  C     0.97838   0.45976   0.82125   0.00000  Uiso   1.00
N1037  N     0.83333   0.61907   0.83333   0.00000  Uiso   1.00
N1038  N     0.90298   0.60043   0.93178   0.00000  Uiso   1.00
N1039  N     0.83333   0.38093   0.83333   0.00000  Uiso   1.00
N1040  N     0.71854   0.37888   0.84778   0.00000  Uiso   1.00
N1041  N     0.94812   0.62112   0.81889   0.00000  Uiso   1.00
N1042  N     0.94200   0.38711   0.78512   0.00000  Uiso   1.00
N1043  N     0.72467   0.61289   0.88154   0.00000  Uiso   1.00
N1044  N     0.90574   0.40237   0.92871   0.00000  Uiso   1.00
N1045  N     0.76092   0.59763   0.73795   0.00000  Uiso   1.00
N1046  N     0.76369   0.39957   0.73489   0.00000  Uiso   1.00
O1047  O     0.77226   0.53821   0.83333   0.00000  Uiso   1.00
O1048  O     0.89441   0.46179   0.83334   0.00000  Uiso   1.00
O1049  O     0.89441   0.53821   0.83334   0.00000  Uiso   1.00
O1050  O     0.77226   0.46179   0.83333   0.00000  Uiso   1.00
O1051  O     0.83334   0.53821   0.76178   0.00000  Uiso   1.00
O1052  O     0.83333   0.46179   0.90489   0.00000  Uiso   1.00
O1053  O     0.83333   0.53821   0.90489   0.00000  Uiso   1.00
O1054  O     0.83334   0.46179   0.76178   0.00000  Uiso   1.00
Zn1055 Zn    0.83333   0.55104   0.83333   0.00000  Uiso   1.00
Zn1056 Zn    0.83333   0.44896   0.83333   0.00000  Uiso   1.00
C1057  C     0.08676   0.83295   0.83714   0.00000  Uiso   1.00
C1058  C     0.02162   0.87358   0.84542   0.00000  Uiso   1.00
C1059  C     0.29104   0.83437   0.82583   0.00000  Uiso   1.00
C1060  C     0.04229   0.83229   0.84083   0.00000  Uiso   1.00
C1061  C     0.19103   0.69118   0.86656   0.00000  Uiso   1.00
C1062  C     0.14230   0.97549   0.80010   0.00000  Uiso   1.00
C1063  C     0.14256   0.69024   0.79983   0.00000  Uiso   1.00
C1064  C     0.19078   0.97643   0.86684   0.00000  Uiso   1.00
C1065  C     0.03801   0.74744   0.84096   0.00000  Uiso   1.00
C1066  C     0.29532   0.91923   0.82570   0.00000  Uiso   1.00
C1067  C     0.29141   0.75256   0.80125   0.00000  Uiso   1.00
C1068  C     0.24657   0.83371   0.82952   0.00000  Uiso   1.00
C1069  C     0.04192   0.91410   0.86541   0.00000  Uiso   1.00
C1070  C     0.21760   0.71603   0.90102   0.00000  Uiso   1.00
C1071  C     0.11573   0.95063   0.76565   0.00000  Uiso   1.00
C1072  C     0.11736   0.71408   0.76386   0.00000  Uiso   1.00
C1073  C     0.21597   0.95258   0.90281   0.00000  Uiso   1.00
C1074  C     0.16658   0.83331   0.73958   0.00000  Uiso   1.00
C1075  C     0.16676   0.83335   0.92709   0.00000  Uiso   1.00
C1076  C     0.16663   0.83330   0.68847   0.00000  Uiso   1.00
C1077  C     0.16670   0.83336   0.97820   0.00000  Uiso   1.00
C1078  C     0.01998   0.79150   0.83303   0.00000  Uiso   1.00
C1079  C     0.31336   0.87517   0.83364   0.00000  Uiso   1.00
C1080  C     0.31172   0.79309   0.82125   0.00000  Uiso   1.00
N1081  N     0.16667   0.95240   0.83333   0.00000  Uiso   1.00
N1082  N     0.23631   0.93377   0.93178   0.00000  Uiso   1.00
N1083  N     0.16667   0.71427   0.83333   0.00000  Uiso   1.00
N1084  N     0.05188   0.71221   0.84778   0.00000  Uiso   1.00
N1085  N     0.28146   0.95445   0.81889   0.00000  Uiso   1.00
N1086  N     0.27533   0.72044   0.78512   0.00000  Uiso   1.00
N1087  N     0.05800   0.94622   0.88154   0.00000  Uiso   1.00
N1088  N     0.23908   0.73570   0.92871   0.00000  Uiso   1.00
N1089  N     0.09426   0.93096   0.73795   0.00000  Uiso   1.00
N1090  N     0.09702   0.73290   0.73489   0.00000  Uiso   1.00
O1091  O     0.10559   0.87154   0.83333   0.00000  Uiso   1.00
O1092  O     0.22774   0.79513   0.83334   0.00000  Uiso   1.00
O1093  O     0.22774   0.87154   0.83334   0.00000  Uiso   1.00
O1094  O     0.10559   0.79513   0.83333   0.00000  Uiso   1.00
O1095  O     0.16667   0.87155   0.76178   0.00000  Uiso   1.00
O1096  O     0.16666   0.79512   0.90489   0.00000  Uiso   1.00
O1097  O     0.16666   0.87155   0.90489   0.00000  Uiso   1.00
O1098  O     0.16667   0.79512   0.76178   0.00000  Uiso   1.00
Zn1099 Zn    0.16667   0.88437   0.83333   0.00000  Uiso   1.00
Zn1100 Zn    0.16667   0.78229   0.83333   0.00000  Uiso   1.00
C1101  C     0.42010   0.83295   0.83714   0.00000  Uiso   1.00
C1102  C     0.35495   0.87358   0.84542   0.00000  Uiso   1.00
C1103  C     0.62437   0.83437   0.82583   0.00000  Uiso   1.00
C1104  C     0.37563   0.83229   0.84083   0.00000  Uiso   1.00
C1105  C     0.52437   0.69118   0.86656   0.00000  Uiso   1.00
C1106  C     0.47563   0.97549   0.80010   0.00000  Uiso   1.00
C1107  C     0.47589   0.69024   0.79983   0.00000  Uiso   1.00
C1108  C     0.52411   0.97643   0.86684   0.00000  Uiso   1.00
C1109  C     0.37135   0.74744   0.84096   0.00000  Uiso   1.00
C1110  C     0.62865   0.91923   0.82570   0.00000  Uiso   1.00
C1111  C     0.62474   0.75256   0.80125   0.00000  Uiso   1.00
C1112  C     0.57990   0.83371   0.82952   0.00000  Uiso   1.00
C1113  C     0.37526   0.91410   0.86541   0.00000  Uiso   1.00
C1114  C     0.55094   0.71603   0.90102   0.00000  Uiso   1.00
C1115  C     0.44906   0.95063   0.76565   0.00000  Uiso   1.00
C1116  C     0.45070   0.71408   0.76386   0.00000  Uiso   1.00
C1117  C     0.54930   0.95258   0.90281   0.00000  Uiso   1.00
C1118  C     0.49991   0.83331   0.73958   0.00000  Uiso   1.00
C1119  C     0.50009   0.83335   0.92709   0.00000  Uiso   1.00
C1120  C     0.49997   0.83330   0.68847   0.00000  Uiso   1.00
C1121  C     0.50003   0.83336   0.97820   0.00000  Uiso   1.00
C1122  C     0.35331   0.79150   0.83303   0.00000  Uiso   1.00
C1123  C     0.64669   0.87517   0.83364   0.00000  Uiso   1.00
C1124  C     0.64505   0.79309   0.82125   0.00000  Uiso   1.00
N1125  N     0.50000   0.95240   0.83333   0.00000  Uiso   1.00
N1126  N     0.56964   0.93377   0.93178   0.00000  Uiso   1.00
N1127  N     0.50000   0.71427   0.83333   0.00000  Uiso   1.00
N1128  N     0.38521   0.71221   0.84778   0.00000  Uiso   1.00
N1129  N     0.61479   0.95445   0.81889   0.00000  Uiso   1.00
N1130  N     0.60866   0.72044   0.78512   0.00000  Uiso   1.00
N1131  N     0.39134   0.94622   0.88154   0.00000  Uiso   1.00
N1132  N     0.57241   0.73570   0.92871   0.00000  Uiso   1.00
N1133  N     0.42759   0.93096   0.73795   0.00000  Uiso   1.00
N1134  N     0.43036   0.73290   0.73489   0.00000  Uiso   1.00
O1135  O     0.43892   0.87154   0.83333   0.00000  Uiso   1.00
O1136  O     0.56108   0.79513   0.83334   0.00000  Uiso   1.00
O1137  O     0.56108   0.87154   0.83334   0.00000  Uiso   1.00
O1138  O     0.43892   0.79513   0.83333   0.00000  Uiso   1.00
O1139  O     0.50000   0.87155   0.76178   0.00000  Uiso   1.00
O1140  O     0.50000   0.79512   0.90489   0.00000  Uiso   1.00
O1141  O     0.50000   0.87155   0.90489   0.00000  Uiso   1.00
O1142  O     0.50000   0.79512   0.76178   0.00000  Uiso   1.00
Zn1143 Zn    0.50000   0.88437   0.83333   0.00000  Uiso   1.00
Zn1144 Zn    0.50000   0.78229   0.83333   0.00000  Uiso   1.00
C1145  C     0.75343   0.83295   0.83714   0.00000  Uiso   1.00
C1146  C     0.68828   0.87358   0.84542   0.00000  Uiso   1.00
C1147  C     0.95771   0.83437   0.82583   0.00000  Uiso   1.00
C1148  C     0.70896   0.83229   0.84083   0.00000  Uiso   1.00
C1149  C     0.85770   0.69118   0.86656   0.00000  Uiso   1.00
C1150  C     0.80897   0.97549   0.80010   0.00000  Uiso   1.00
C1151  C     0.80922   0.69024   0.79983   0.00000  Uiso   1.00
C1152  C     0.85744   0.97643   0.86684   0.00000  Uiso   1.00
C1153  C     0.70468   0.74744   0.84096   0.00000  Uiso   1.00
C1154  C     0.96199   0.91923   0.82570   0.00000  Uiso   1.00
C1155  C     0.95808   0.75256   0.80125   0.00000  Uiso   1.00
C1156  C     0.91324   0.83371   0.82952   0.00000  Uiso   1.00
C1157  C     0.70859   0.91410   0.86541   0.00000  Uiso   1.00
C1158  C     0.88427   0.71603   0.90102   0.00000  Uiso   1.00
C1159  C     0.78240   0.95063   0.76565   0.00000  Uiso   1.00
C1160  C     0.78403   0.71408   0.76386   0.00000  Uiso   1.00
C1161  C     0.88264   0.95258   0.90281   0.00000  Uiso   1.00
C1162  C     0.83324   0.83331   0.73958   0.00000  Uiso   1.00
C1163  C     0.83342   0.83335   0.92709   0.00000  Uiso   1.00
C1164  C     0.83330   0.83330   0.68847   0.00000  Uiso   1.00
C1165  C     0.83337   0.83336   0.97820   0.00000  Uiso   1.00
C1166  C     0.68664   0.79150   0.83303   0.00000  Uiso   1.00
C1167  C     0.98002   0.87517   0.83364   0.00000  Uiso   1.00
C1168  C     0.97838   0.79309   0.82125   0.00000  Uiso   1.00
N1169  N     0.83333   0.95240   0.83333   0.00000  Uiso   1.00
N1170  N     0.90298   0.93377   0.93178   0.00000  Uiso   1.00
N1171  N     0.83333   0.71427   0.83333   0.00000  Uiso   1.00
N1172  N     0.71854   0.71221   0.84778   0.00000  Uiso   1.00
N1173  N     0.94812   0.95445   0.81889   0.00000  Uiso   1.00
N1174  N     0.94200   0.72044   0.78512   0.00000  Uiso   1.00
N1175  N     0.72467   0.94622   0.88154   0.00000  Uiso   1.00
N1176  N     0.90574   0.73570   0.92871   0.00000  Uiso   1.00
N1177  N     0.76092   0.93096   0.73795   0.00000  Uiso   1.00
N1178  N     0.76369   0.73290   0.73489   0.00000  Uiso   1.00
O1179  O     0.77226   0.87154   0.83333   0.00000  Uiso   1.00
O1180  O     0.89441   0.79513   0.83334   0.00000  Uiso   1.00
O1181  O     0.89441   0.87154   0.83334   0.00000  Uiso   1.00
O1182  O     0.77226   0.79513   0.83333   0.00000  Uiso   1.00
O1183  O     0.83334   0.87155   0.76178   0.00000  Uiso   1.00
O1184  O     0.83333   0.79512   0.90489   0.00000  Uiso   1.00
O1185  O     0.83333   0.87155   0.90489   0.00000  Uiso   1.00
O1186  O     0.83334   0.79512   0.76178   0.00000  Uiso   1.00
Zn1187 Zn    0.83333   0.88437   0.83333   0.00000  Uiso   1.00
Zn1188 Zn    0.83333   0.78229   0.83333   0.00000  Uiso   1.00
loop_
_geom_bond_atom_site_label_1
_geom_bond_atom_site_label_2
_geom_bond_distance
_geom_bond_site_symmetry_2
_ccdc_geom_bond_type
C1     C4      1.449   .     S
C1     O38     1.290   .     A
C1     O35     1.293   .     A
C2     C4      1.411   .     A
C2     C13     1.457   .     S
C2     C111    1.382   1_455 S
C3     C23     1.413   .     A
C3     C24     1.411   .     A
C3     C12     1.449   .     S
C4     C22     1.413   .     A
C5     C14     1.443   .     S
C5     N27     1.369   .     A
C5     C272    1.425   1_545 S
C6     N25     1.369   .     A
C6     C15     1.443   .     S
C6     C139    1.425   .     S
C7     C16     1.443   .     S
C7     N27     1.369   .     A
C7     C270    1.425   1_545 S
C8     C17     1.443   .     S
C8     N25     1.369   .     A
C8     C137    1.425   .     S
C9     C22     1.454   .     S
C9     N28     1.157   .     T
C10    C23     1.454   .     S
C10    N29     1.157   .     T
C11    N30     1.157   .     T
C11    C24     1.457   .     S
C12    O36     1.293   .     A
C12    O37     1.290   .     A
C13    N31     1.157   .     T
C14    N32     1.158   .     T
C15    N33     1.158   .     T
C16    N34     1.158   .     T
C17    N26     1.158   .     T
C18    O39     1.278   .     A
C18    C20     1.366   .     S
C18    O42     1.279   .     A
C19    C21     1.366   .     S
C19    O40     1.278   .     A
C19    O41     1.279   .     A
C20    C813    1.165   1_554 S
C21    C416    1.165   .     S
C22    C112    1.382   1_455 S
C23    C46     1.382   .     S
C24    C66     1.382   .     S
N25    Zn43    2.016   .     S
N27    Zn44    2.016   .     S
O35    Zn43    2.013   .     S
O36    Zn44    2.013   .     S
O37    Zn43    2.025   .     S
O38    Zn44    2.025   .     S
O39    Zn43    1.949   .     S
O40    Zn44    1.949   .     S
O41    Zn43    1.950   .     S
O42    Zn44    1.950   .     S
C45    C48     1.449   .     S
C45    O82     1.290   .     A
C45    O79     1.293   .     A
C46    C48     1.411   .     A
C46    C57     1.457   .     S
C47    C67     1.413   .     A
C47    C68     1.411   .     A
C47    C56     1.449   .     S
C48    C66     1.413   .     A
C49    C58     1.443   .     S
C49    N71     1.369   .     A
C49    C316    1.425   1_545 S
C50    N69     1.369   .     A
C50    C59     1.443   .     S
C50    C183    1.425   .     S
C51    C60     1.443   .     S
C51    N71     1.369   .     A
C51    C314    1.425   1_545 S
C52    C61     1.443   .     S
C52    N69     1.369   .     A
C52    C181    1.425   .     S
C53    C66     1.454   .     S
C53    N72     1.157   .     T
C54    C67     1.454   .     S
C54    N73     1.157   .     T
C55    N74     1.157   .     T
C55    C68     1.457   .     S
C56    O80     1.293   .     A
C56    O81     1.290   .     A
C57    N75     1.157   .     T
C58    N76     1.158   .     T
C59    N77     1.158   .     T
C60    N78     1.158   .     T
C61    N70     1.158   .     T
C62    O83     1.278   .     A
C62    C64     1.366   .     S
C62    O86     1.279   .     A
C63    C65     1.366   .     S
C63    O84     1.278   .     A
C63    O85     1.279   .     A
C64    C857    1.165   1_554 S
C65    C460    1.165   .     S
C67    C90     1.382   .     S
C68    C110    1.382   .     S
N69    Zn87    2.016   .     S
N71    Zn88    2.016   .     S
O79    Zn87    2.013   .     S
O80    Zn88    2.013   .     S
O81    Zn87    2.025   .     S
O82    Zn88    2.025   .     S
O83    Zn87    1.949   .     S
O84    Zn88    1.949   .     S
O85    Zn87    1.950   .     S
O86    Zn88    1.950   .     S
C89    C92     1.449   .     S
C89    O126    1.290   .     A
C89    O123    1.293   .     A
C90    C92     1.411   .     A
C90    C101    1.457   .     S
C91    C111    1.413   .     A
C91    C112    1.411   .     A
C91    C100    1.449   .     S
C92    C110    1.413   .     A
C93    C102    1.443   .     S
C93    N115    1.369   .     A
C93    C360    1.425   1_545 S
C94    N113    1.369   .     A
C94    C103    1.443   .     S
C94    C227    1.425   .     S
C95    C104    1.443   .     S
C95    N115    1.369   .     A
C95    C358    1.425   1_545 S
C96    C105    1.443   .     S
C96    N113    1.369   .     A
C96    C225    1.425   .     S
C97    C110    1.454   .     S
C97    N116    1.157   .     T
C98    C111    1.454   .     S
C98    N117    1.157   .     T
C99    N118    1.157   .     T
C99    C112    1.457   .     S
C100   O124    1.293   .     A
C100   O125    1.290   .     A
C101   N119    1.157   .     T
C102   N120    1.158   .     T
C103   N121    1.158   .     T
C104   N122    1.158   .     T
C105   N114    1.158   .     T
C106   O127    1.278   .     A
C106   C108    1.366   .     S
C106   O130    1.279   .     A
C107   C109    1.366   .     S
C107   O128    1.278   .     A
C107   O129    1.279   .     A
C108   C901    1.165   1_554 S
C109   C504    1.165   .     S
C111   C2      1.382   1_655 S
C112   C22     1.382   1_655 S
N113   Zn131   2.016   .     S
N115   Zn132   2.016   .     S
O123   Zn131   2.013   .     S
O124   Zn132   2.013   .     S
O125   Zn131   2.025   .     S
O126   Zn132   2.025   .     S
O127   Zn131   1.949   .     S
O128   Zn132   1.949   .     S
O129   Zn131   1.950   .     S
O130   Zn132   1.950   .     S
C133   C136    1.449   .     S
C133   O170    1.290   .     A
C133   O167    1.293   .     A
C134   C136    1.411   .     A
C134   C145    1.457   .     S
C134   C243    1.382   1_455 S
C135   C155    1.413   .     A
C135   C156    1.411   .     A
C135   C144    1.449   .     S
C136   C154    1.413   .     A
C137   C146    1.443   .     S
C137   N159    1.369   .     A
C138   N157    1.369   .     A
C138   C147    1.443   .     S
C138   C271    1.425   .     S
C139   C148    1.443   .     S
C139   N159    1.369   .     A
C140   C149    1.443   .     S
C140   N157    1.369   .     A
C140   C269    1.425   .     S
C141   C154    1.454   .     S
C141   N160    1.157   .     T
C142   C155    1.454   .     S
C142   N161    1.157   .     T
C143   N162    1.157   .     T
C143   C156    1.457   .     S
C144   O168    1.293   .     A
C144   O169    1.290   .     A
C145   N163    1.157   .     T
C146   N164    1.158   .     T
C147   N165    1.158   .     T
C148   N166    1.158   .     T
C149   N158    1.158   .     T
C150   O171    1.278   .     A
C150   C152    1.366   .     S
C150   O174    1.279   .     A
C151   C153    1.366   .     S
C151   O172    1.278   .     A
C151   O173    1.279   .     A
C152   C945    1.165   1_554 S
C153   C548    1.165   .     S
C154   C244    1.382   1_455 S
C155   C178    1.382   .     S
C156   C198    1.382   .     S
N157   Zn175   2.016   .     S
N159   Zn176   2.016   .     S
O167   Zn175   2.013   .     S
O168   Zn176   2.013   .     S
O169   Zn175   2.025   .     S
O170   Zn176   2.025   .     S
O171   Zn175   1.949   .     S
O172   Zn176   1.949   .     S
O173   Zn175   1.950   .     S
O174   Zn176   1.950   .     S
C177   C180    1.449   .     S
C177   O214    1.290   .     A
C177   O211    1.293   .     A
C178   C180    1.411   .     A
C178   C189    1.457   .     S
C179   C199    1.413   .     A
C179   C200    1.411   .     A
C179   C188    1.449   .     S
C180   C198    1.413   .     A
C181   C190    1.443   .     S
C181   N203    1.369   .     A
C182   N201    1.369   .     A
C182   C191    1.443   .     S
C182   C315    1.425   .     S
C183   C192    1.443   .     S
C183   N203    1.369   .     A
C184   C193    1.443   .     S
C184   N201    1.369   .     A
C184   C313    1.425   .     S
C185   C198    1.454   .     S
C185   N204    1.157   .     T
C186   C199    1.454   .     S
C186   N205    1.157   .     T
C187   N206    1.157   .     T
C187   C200    1.457   .     S
C188   O212    1.293   .     A
C188   O213    1.290   .     A
C189   N207    1.157   .     T
C190   N208    1.158   .     T
C191   N209    1.158   .     T
C192   N210    1.158   .     T
C193   N202    1.158   .     T
C194   O215    1.278   .     A
C194   C196    1.366   .     S
C194   O218    1.279   .     A
C195   C197    1.366   .     S
C195   O216    1.278   .     A
C195   O217    1.279   .     A
C196   C989    1.165   1_554 S
C197   C592    1.165   .     S
C199   C222    1.382   .     S
C200   C242    1.382   .     S
N201   Zn219   2.016   .     S
N203   Zn220   2.016   .     S
O211   Zn219   2.013   .     S
O212   Zn220   2.013   .     S
O213   Zn219   2.025   .     S
O214   Zn220   2.025   .     S
O215   Zn219   1.949   .     S
O216   Zn220   1.949   .     S
O217   Zn219   1.950   .     S
O218   Zn220   1.950   .     S
C221   C224    1.449   .     S
C221   O258    1.290   .     A
C221   O255    1.293   .     A
C222   C224    1.411   .     A
C222   C233    1.457   .     S
C223   C243    1.413   .     A
C223   C244    1.411   .     A
C223   C232    1.449   .     S
C224   C242    1.413   .     A
C225   C234    1.443   .     S
C225   N247    1.369   .     A
C226   N245    1.369   .     A
C226   C235    1.443   .     S
C226   C359    1.425   .     S
C227   C236    1.443   .     S
C227   N247    1.369   .     A
C228   C237    1.443   .     S
C228   N245    1.369   .     A
C228   C357    1.425   .     S
C229   C242    1.454   .     S
C229   N248    1.157   .     T
C230   C243    1.454   .     S
C230   N249    1.157   .     T
C231   N250    1.157   .     T
C231   C244    1.457   .     S
C232   O256    1.293   .     A
C232   O257    1.290   .     A
C233   N251    1.157   .     T
C234   N252    1.158   .     T
C235   N253    1.158   .     T
C236   N254    1.158   .     T
C237   N246    1.158   .     T
C238   O259    1.278   .     A
C238   C240    1.366   .     S
C238   O262    1.279   .     A
C239   C241    1.366   .     S
C239   O260    1.278   .     A
C239   O261    1.279   .     A
C240   C1033   1.165   1_554 S
C241   C636    1.165   .     S
C243   C134    1.382   1_655 S
C244   C154    1.382   1_655 S
N245   Zn263   2.016   .     S
N247   Zn264   2.016   .     S
O255   Zn263   2.013   .     S
O256   Zn264   2.013   .     S
O257   Zn263   2.025   .     S
O258   Zn264   2.025   .     S
O259   Zn263   1.949   .     S
O260   Zn264   1.949   .     S
O261   Zn263   1.950   .     S
O262   Zn264   1.950   .     S
C265   C268    1.449   .     S
C265   O302    1.290   .     A
C265   O299    1.293   .     A
C266   C268    1.411   .     A
C266   C277    1.457   .     S
C266   C375    1.382   1_455 S
C267   C287    1.413   .     A
C267   C288    1.411   .     A
C267   C276    1.449   .     S
C268   C286    1.413   .     A
C269   C278    1.443   .     S
C269   N291    1.369   .     A
C270   N289    1.369   .     A
C270   C279    1.443   .     S
C270   C7      1.425   1_565 S
C271   C280    1.443   .     S
C271   N291    1.369   .     A
C272   C281    1.443   .     S
C272   N289    1.369   .     A
C272   C5      1.425   1_565 S
C273   C286    1.454   .     S
C273   N292    1.157   .     T
C274   C287    1.454   .     S
C274   N293    1.157   .     T
C275   N294    1.157   .     T
C275   C288    1.457   .     S
C276   O300    1.293   .     A
C276   O301    1.290   .     A
C277   N295    1.157   .     T
C278   N296    1.158   .     T
C279   N297    1.158   .     T
C280   N298    1.158   .     T
C281   N290    1.158   .     T
C282   O303    1.278   .     A
C282   C284    1.366   .     S
C282   O306    1.279   .     A
C283   C285    1.366   .     S
C283   O304    1.278   .     A
C283   O305    1.279   .     A
C284   C1077   1.165   1_554 S
C285   C680    1.165   .     S
C286   C376    1.382   1_455 S
C287   C310    1.382   .     S
C288   C330    1.382   .     S
N289   Zn307   2.016   .     S
N291   Zn308   2.016   .     S
O299   Zn307   2.013   .     S
O300   Zn308   2.013   .     S
O301   Zn307   2.025   .     S
O302   Zn308   2.025   .     S
O303   Zn307   1.949   .     S
O304   Zn308   1.949   .     S
O305   Zn307   1.950   .     S
O306   Zn308   1.950   .     S
C309   C312    1.449   .     S
C309   O346    1.290   .     A
C309   O343    1.293   .     A
C310   C312    1.411   .     A
C310   C321    1.457   .     S
C311   C331    1.413   .     A
C311   C332    1.411   .     A
C311   C320    1.449   .     S
C312   C330    1.413   .     A
C313   C322    1.443   .     S
C313   N335    1.369   .     A
C314   N333    1.369   .     A
C314   C323    1.443   .     S
C314   C51     1.425   1_565 S
C315   C324    1.443   .     S
C315   N335    1.369   .     A
C316   C325    1.443   .     S
C316   N333    1.369   .     A
C316   C49     1.425   1_565 S
C317   C330    1.454   .     S
C317   N336    1.157   .     T
C318   C331    1.454   .     S
C318   N337    1.157   .     T
C319   N338    1.157   .     T
C319   C332    1.457   .     S
C320   O344    1.293   .     A
C320   O345    1.290   .     A
C321   N339    1.157   .     T
C322   N340    1.158   .     T
C323   N341    1.158   .     T
C324   N342    1.158   .     T
C325   N334    1.158   .     T
C326   O347    1.278   .     A
C326   C328    1.366   .     S
C326   O350    1.279   .     A
C327   C329    1.366   .     S
C327   O348    1.278   .     A
C327   O349    1.279   .     A
C328   C1121   1.165   1_554 S
C329   C724    1.165   .     S
C331   C354    1.382   .     S
C332   C374    1.382   .     S
N333   Zn351   2.016   .     S
N335   Zn352   2.016   .     S
O343   Zn351   2.013   .     S
O344   Zn352   2.013   .     S
O345   Zn351   2.025   .     S
O346   Zn352   2.025   .     S
O347   Zn351   1.949   .     S
O348   Zn352   1.949   .     S
O349   Zn351   1.950   .     S
O350   Zn352   1.950   .     S
C353   C356    1.449   .     S
C353   O390    1.290   .     A
C353   O387    1.293   .     A
C354   C356    1.411   .     A
C354   C365    1.457   .     S
C355   C375    1.413   .     A
C355   C376    1.411   .     A
C355   C364    1.449   .     S
C356   C374    1.413   .     A
C357   C366    1.443   .     S
C357   N379    1.369   .     A
C358   N377    1.369   .     A
C358   C367    1.443   .     S
C358   C95     1.425   1_565 S
C359   C368    1.443   .     S
C359   N379    1.369   .     A
C360   C369    1.443   .     S
C360   N377    1.369   .     A
C360   C93     1.425   1_565 S
C361   C374    1.454   .     S
C361   N380    1.157   .     T
C362   C375    1.454   .     S
C362   N381    1.157   .     T
C363   N382    1.157   .     T
C363   C376    1.457   .     S
C364   O388    1.293   .     A
C364   O389    1.290   .     A
C365   N383    1.157   .     T
C366   N384    1.158   .     T
C367   N385    1.158   .     T
C368   N386    1.158   .     T
C369   N378    1.158   .     T
C370   O391    1.278   .     A
C370   C372    1.366   .     S
C370   O394    1.279   .     A
C371   C373    1.366   .     S
C371   O392    1.278   .     A
C371   O393    1.279   .     A
C372   C1165   1.165   1_554 S
C373   C768    1.165   .     S
C375   C266    1.382   1_655 S
C376   C286    1.382   1_655 S
N377   Zn395   2.016   .     S
N379   Zn396   2.016   .     S
O387   Zn395   2.013   .     S
O388   Zn396   2.013   .     S
O389   Zn395   2.025   .     S
O390   Zn396   2.025   .     S
O391   Zn395   1.949   .     S
O392   Zn396   1.949   .     S
O393   Zn395   1.950   .     S
O394   Zn396   1.950   .     S
C397   C400    1.449   .     S
C397   O434    1.290   .     A
C397   O431    1.293   .     A
C398   C400    1.411   .     A
C398   C409    1.457   .     S
C398   C507    1.382   1_455 S
C399   C419    1.413   .     A
C399   C420    1.411   .     A
C399   C408    1.449   .     S
C400   C418    1.413   .     A
C401   C410    1.443   .     S
C401   N423    1.369   .     A
C401   C668    1.425   1_545 S
C402   N421    1.369   .     A
C402   C411    1.443   .     S
C402   C535    1.425   .     S
C403   C412    1.443   .     S
C403   N423    1.369   .     A
C403   C666    1.425   1_545 S
C404   C413    1.443   .     S
C404   N421    1.369   .     A
C404   C533    1.425   .     S
C405   C418    1.454   .     S
C405   N424    1.157   .     T
C406   C419    1.454   .     S
C406   N425    1.157   .     T
C407   N426    1.157   .     T
C407   C420    1.457   .     S
C408   O432    1.293   .     A
C408   O433    1.290   .     A
C409   N427    1.157   .     T
C410   N428    1.158   .     T
C411   N429    1.158   .     T
C412   N430    1.158   .     T
C413   N422    1.158   .     T
C414   O435    1.278   .     A
C414   C416    1.366   .     S
C414   O438    1.279   .     A
C415   C417    1.366   .     S
C415   O436    1.278   .     A
C415   O437    1.279   .     A
C417   C812    1.165   .     S
C418   C508    1.382   1_455 S
C419   C442    1.382   .     S
C420   C462    1.382   .     S
N421   Zn439   2.016   .     S
N423   Zn440   2.016   .     S
O431   Zn439   2.013   .     S
O432   Zn440   2.013   .     S
O433   Zn439   2.025   .     S
O434   Zn440   2.025   .     S
O435   Zn439   1.949   .     S
O436   Zn440   1.949   .     S
O437   Zn439   1.950   .     S
O438   Zn440   1.950   .     S
C441   C444    1.449   .     S
C441   O478    1.290   .     A
C441   O475    1.293   .     A
C442   C444    1.411   .     A
C442   C453    1.457   .     S
C443   C463    1.413   .     A
C443   C464    1.411   .     A
C443   C452    1.449   .     S
C444   C462    1.413   .     A
C445   C454    1.443   .     S
C445   N467    1.369   .     A
C445   C712    1.425   1_545 S
C446   N465    1.369   .     A
C446   C455    1.443   .     S
C446   C579    1.425   .     S
C447   C456    1.443   .     S
C447   N467    1.369   .     A
C447   C710    1.425   1_545 S
C448   C457    1.443   .     S
C448   N465    1.369   .     A
C448   C577    1.425   .     S
C449   C462    1.454   .     S
C449   N468    1.157   .     T
C450   C463    1.454   .     S
C450   N469    1.157   .     T
C451   N470    1.157   .     T
C451   C464    1.457   .     S
C452   O476    1.293   .     A
C452   O477    1.290   .     A
C453   N471    1.157   .     T
C454   N472    1.158   .     T
C455   N473    1.158   .     T
C456   N474    1.158   .     T
C457   N466    1.158   .     T
C458   O479    1.278   .     A
C458   C460    1.366   .     S
C458   O482    1.279   .     A
C459   C461    1.366   .     S
C459   O480    1.278   .     A
C459   O481    1.279   .     A
C461   C856    1.165   .     S
C463   C486    1.382   .     S
C464   C506    1.382   .     S
N465   Zn483   2.016   .     S
N467   Zn484   2.016   .     S
O475   Zn483   2.013   .     S
O476   Zn484   2.013   .     S
O477   Zn483   2.025   .     S
O478   Zn484   2.025   .     S
O479   Zn483   1.949   .     S
O480   Zn484   1.949   .     S
O481   Zn483   1.950   .     S
O482   Zn484   1.950   .     S
C485   C488    1.449   .     S
C485   O522    1.290   .     A
C485   O519    1.293   .     A
C486   C488    1.411   .     A
C486   C497    1.457   .     S
C487   C507    1.413   .     A
C487   C508    1.411   .     A
C487   C496    1.449   .     S
C488   C506    1.413   .     A
C489   C498    1.443   .     S
C489   N511    1.369   .     A
C489   C756    1.425   1_545 S
C490   N509    1.369   .     A
C490   C499    1.443   .     S
C490   C623    1.425   .     S
C491   C500    1.443   .     S
C491   N511    1.369   .     A
C491   C754    1.425   1_545 S
C492   C501    1.443   .     S
C492   N509    1.369   .     A
C492   C621    1.425   .     S
C493   C506    1.454   .     S
C493   N512    1.157   .     T
C494   C507    1.454   .     S
C494   N513    1.157   .     T
C495   N514    1.157   .     T
C495   C508    1.457   .     S
C496   O520    1.293   .     A
C496   O521    1.290   .     A
C497   N515    1.157   .     T
C498   N516    1.158   .     T
C499   N517    1.158   .     T
C500   N518    1.158   .     T
C501   N510    1.158   .     T
C502   O523    1.278   .     A
C502   C504    1.366   .     S
C502   O526    1.279   .     A
C503   C505    1.366   .     S
C503   O524    1.278   .     A
C503   O525    1.279   .     A
C505   C900    1.165   .     S
C507   C398    1.382   1_655 S
C508   C418    1.382   1_655 S
N509   Zn527   2.016   .     S
N511   Zn528   2.016   .     S
O519   Zn527   2.013   .     S
O520   Zn528   2.013   .     S
O521   Zn527   2.025   .     S
O522   Zn528   2.025   .     S
O523   Zn527   1.949   .     S
O524   Zn528   1.949   .     S
O525   Zn527   1.950   .     S
O526   Zn528   1.950   .     S
C529   C532    1.449   .     S
C529   O566    1.290   .     A
C529   O563    1.293   .     A
C530   C532    1.411   .     A
C530   C541    1.457   .     S
C530   C639    1.382   1_455 S
C531   C551    1.413   .     A
C531   C552    1.411   .     A
C531   C540    1.449   .     S
C532   C550    1.413   .     A
C533   C542    1.443   .     S
C533   N555    1.369   .     A
C534   N553    1.369   .     A
C534   C543    1.443   .     S
C534   C667    1.425   .     S
C535   C544    1.443   .     S
C535   N555    1.369   .     A
C536   C545    1.443   .     S
C536   N553    1.369   .     A
C536   C665    1.425   .     S
C537   C550    1.454   .     S
C537   N556    1.157   .     T
C538   C551    1.454   .     S
C538   N557    1.157   .     T
C539   N558    1.157   .     T
C539   C552    1.457   .     S
C540   O564    1.293   .     A
C540   O565    1.290   .     A
C541   N559    1.157   .     T
C542   N560    1.158   .     T
C543   N561    1.158   .     T
C544   N562    1.158   .     T
C545   N554    1.158   .     T
C546   O567    1.278   .     A
C546   C548    1.366   .     S
C546   O570    1.279   .     A
C547   C549    1.366   .     S
C547   O568    1.278   .     A
C547   O569    1.279   .     A
C549   C944    1.165   .     S
C550   C640    1.382   1_455 S
C551   C574    1.382   .     S
C552   C594    1.382   .     S
N553   Zn571   2.016   .     S
N555   Zn572   2.016   .     S
O563   Zn571   2.013   .     S
O564   Zn572   2.013   .     S
O565   Zn571   2.025   .     S
O566   Zn572   2.025   .     S
O567   Zn571   1.949   .     S
O568   Zn572   1.949   .     S
O569   Zn571   1.950   .     S
O570   Zn572   1.950   .     S
C573   C576    1.449   .     S
C573   O610    1.290   .     A
C573   O607    1.293   .     A
C574   C576    1.411   .     A
C574   C585    1.457   .     S
C575   C595    1.413   .     A
C575   C596    1.411   .     A
C575   C584    1.449   .     S
C576   C594    1.413   .     A
C577   C586    1.443   .     S
C577   N599    1.369   .     A
C578   N597    1.369   .     A
C578   C587    1.443   .     S
C578   C711    1.425   .     S
C579   C588    1.443   .     S
C579   N599    1.369   .     A
C580   C589    1.443   .     S
C580   N597    1.369   .     A
C580   C709    1.425   .     S
C581   C594    1.454   .     S
C581   N600    1.157   .     T
C582   C595    1.454   .     S
C582   N601    1.157   .     T
C583   N602    1.157   .     T
C583   C596    1.457   .     S
C584   O608    1.293   .     A
C584   O609    1.290   .     A
C585   N603    1.157   .     T
C586   N604    1.158   .     T
C587   N605    1.158   .     T
C588   N606    1.158   .     T
C589   N598    1.158   .     T
C590   O611    1.278   .     A
C590   C592    1.366   .     S
C590   O614    1.279   .     A
C591   C593    1.366   .     S
C591   O612    1.278   .     A
C591   O613    1.279   .     A
C593   C988    1.165   .     S
C595   C618    1.382   .     S
C596   C638    1.382   .     S
N597   Zn615   2.016   .     S
N599   Zn616   2.016   .     S
O607   Zn615   2.013   .     S
O608   Zn616   2.013   .     S
O609   Zn615   2.025   .     S
O610   Zn616   2.025   .     S
O611   Zn615   1.949   .     S
O612   Zn616   1.949   .     S
O613   Zn615   1.950   .     S
O614   Zn616   1.950   .     S
C617   C620    1.449   .     S
C617   O654    1.290   .     A
C617   O651    1.293   .     A
C618   C620    1.411   .     A
C618   C629    1.457   .     S
C619   C639    1.413   .     A
C619   C640    1.411   .     A
C619   C628    1.449   .     S
C620   C638    1.413   .     A
C621   C630    1.443   .     S
C621   N643    1.369   .     A
C622   N641    1.369   .     A
C622   C631    1.443   .     S
C622   C755    1.425   .     S
C623   C632    1.443   .     S
C623   N643    1.369   .     A
C624   C633    1.443   .     S
C624   N641    1.369   .     A
C624   C753    1.425   .     S
C625   C638    1.454   .     S
C625   N644    1.157   .     T
C626   C639    1.454   .     S
C626   N645    1.157   .     T
C627   N646    1.157   .     T
C627   C640    1.457   .     S
C628   O652    1.293   .     A
C628   O653    1.290   .     A
C629   N647    1.157   .     T
C630   N648    1.158   .     T
C631   N649    1.158   .     T
C632   N650    1.158   .     T
C633   N642    1.158   .     T
C634   O655    1.278   .     A
C634   C636    1.366   .     S
C634   O658    1.279   .     A
C635   C637    1.366   .     S
C635   O656    1.278   .     A
C635   O657    1.279   .     A
C637   C1032   1.165   .     S
C639   C530    1.382   1_655 S
C640   C550    1.382   1_655 S
N641   Zn659   2.016   .     S
N643   Zn660   2.016   .     S
O651   Zn659   2.013   .     S
O652   Zn660   2.013   .     S
O653   Zn659   2.025   .     S
O654   Zn660   2.025   .     S
O655   Zn659   1.949   .     S
O656   Zn660   1.949   .     S
O657   Zn659   1.950   .     S
O658   Zn660   1.950   .     S
C661   C664    1.449   .     S
C661   O698    1.290   .     A
C661   O695    1.293   .     A
C662   C664    1.411   .     A
C662   C673    1.457   .     S
C662   C771    1.382   1_455 S
C663   C683    1.413   .     A
C663   C684    1.411   .     A
C663   C672    1.449   .     S
C664   C682    1.413   .     A
C665   C674    1.443   .     S
C665   N687    1.369   .     A
C666   N685    1.369   .     A
C666   C675    1.443   .     S
C666   C403    1.425   1_565 S
C667   C676    1.443   .     S
C667   N687    1.369   .     A
C668   C677    1.443   .     S
C668   N685    1.369   .     A
C668   C401    1.425   1_565 S
C669   C682    1.454   .     S
C669   N688    1.157   .     T
C670   C683    1.454   .     S
C670   N689    1.157   .     T
C671   N690    1.157   .     T
C671   C684    1.457   .     S
C672   O696    1.293   .     A
C672   O697    1.290   .     A
C673   N691    1.157   .     T
C674   N692    1.158   .     T
C675   N693    1.158   .     T
C676   N694    1.158   .     T
C677   N686    1.158   .     T
C678   O699    1.278   .     A
C678   C680    1.366   .     S
C678   O702    1.279   .     A
C679   C681    1.366   .     S
C679   O700    1.278   .     A
C679   O701    1.279   .     A
C681   C1076   1.165   .     S
C682   C772    1.382   1_455 S
C683   C706    1.382   .     S
C684   C726    1.382   .     S
N685   Zn703   2.016   .     S
N687   Zn704   2.016   .     S
O695   Zn703   2.013   .     S
O696   Zn704   2.013   .     S
O697   Zn703   2.025   .     S
O698   Zn704   2.025   .     S
O699   Zn703   1.949   .     S
O700   Zn704   1.949   .     S
O701   Zn703   1.950   .     S
O702   Zn704   1.950   .     S
C705   C708    1.449   .     S
C705   O742    1.290   .     A
C705   O739    1.293   .     A
C706   C708    1.411   .     A
C706   C717    1.457   .     S
C707   C727    1.413   .     A
C707   C728    1.411   .     A
C707   C716    1.449   .     S
C708   C726    1.413   .     A
C709   C718    1.443   .     S
C709   N731    1.369   .     A
C710   N729    1.369   .     A
C710   C719    1.443   .     S
C710   C447    1.425   1_565 S
C711   C720    1.443   .     S
C711   N731    1.369   .     A
C712   C721    1.443   .     S
C712   N729    1.369   .     A
C712   C445    1.425   1_565 S
C713   C726    1.454   .     S
C713   N732    1.157   .     T
C714   C727    1.454   .     S
C714   N733    1.157   .     T
C715   N734    1.157   .     T
C715   C728    1.457   .     S
C716   O740    1.293   .     A
C716   O741    1.290   .     A
C717   N735    1.157   .     T
C718   N736    1.158   .     T
C719   N737    1.158   .     T
C720   N738    1.158   .     T
C721   N730    1.158   .     T
C722   O743    1.278   .     A
C722   C724    1.366   .     S
C722   O746    1.279   .     A
C723   C725    1.366   .     S
C723   O744    1.278   .     A
C723   O745    1.279   .     A
C725   C1120   1.165   .     S
C727   C750    1.382   .     S
C728   C770    1.382   .     S
N729   Zn747   2.016   .     S
N731   Zn748   2.016   .     S
O739   Zn747   2.013   .     S
O740   Zn748   2.013   .     S
O741   Zn747   2.025   .     S
O742   Zn748   2.025   .     S
O743   Zn747   1.949   .     S
O744   Zn748   1.949   .     S
O745   Zn747   1.950   .     S
O746   Zn748   1.950   .     S
C749   C752    1.449   .     S
C749   O786    1.290   .     A
C749   O783    1.293   .     A
C750   C752    1.411   .     A
C750   C761    1.457   .     S
C751   C771    1.413   .     A
C751   C772    1.411   .     A
C751   C760    1.449   .     S
C752   C770    1.413   .     A
C753   C762    1.443   .     S
C753   N775    1.369   .     A
C754   N773    1.369   .     A
C754   C763    1.443   .     S
C754   C491    1.425   1_565 S
C755   C764    1.443   .     S
C755   N775    1.369   .     A
C756   C765    1.443   .     S
C756   N773    1.369   .     A
C756   C489    1.425   1_565 S
C757   C770    1.454   .     S
C757   N776    1.157   .     T
C758   C771    1.454   .     S
C758   N777    1.157   .     T
C759   N778    1.157   .     T
C759   C772    1.457   .     S
C760   O784    1.293   .     A
C760   O785    1.290   .     A
C761   N779    1.157   .     T
C762   N780    1.158   .     T
C763   N781    1.158   .     T
C764   N782    1.158   .     T
C765   N774    1.158   .     T
C766   O787    1.278   .     A
C766   C768    1.366   .     S
C766   O790    1.279   .     A
C767   C769    1.366   .     S
C767   O788    1.278   .     A
C767   O789    1.279   .     A
C769   C1164   1.165   .     S
C771   C662    1.382   1_655 S
C772   C682    1.382   1_655 S
N773   Zn791   2.016   .     S
N775   Zn792   2.016   .     S
O783   Zn791   2.013   .     S
O784   Zn792   2.013   .     S
O785   Zn791   2.025   .     S
O786   Zn792   2.025   .     S
O787   Zn791   1.949   .     S
O788   Zn792   1.949   .     S
O789   Zn791   1.950   .     S
O790   Zn792   1.950   .     S
C793   C796    1.449   .     S
C793   O830    1.290   .     A
C793   O827    1.293   .     A
C794   C796    1.411   .     A
C794   C805    1.457   .     S
C794   C903    1.382   1_455 S
C795   C815    1.413   .     A
C795   C816    1.411   .     A
C795   C804    1.449   .     S
C796   C814    1.413   .     A
C797   C806    1.443   .     S
C797   N819    1.369   .     A
C797   C1064   1.425   1_545 S
C798   N817    1.369   .     A
C798   C807    1.443   .     S
C798   C931    1.425   .     S
C799   C808    1.443   .     S
C799   N819    1.369   .     A
C799   C1062   1.425   1_545 S
C800   C809    1.443   .     S
C800   N817    1.369   .     A
C800   C929    1.425   .     S
C801   C814    1.454   .     S
C801   N820    1.157   .     T
C802   C815    1.454   .     S
C802   N821    1.157   .     T
C803   N822    1.157   .     T
C803   C816    1.457   .     S
C804   O828    1.293   .     A
C804   O829    1.290   .     A
C805   N823    1.157   .     T
C806   N824    1.158   .     T
C807   N825    1.158   .     T
C808   N826    1.158   .     T
C809   N818    1.158   .     T
C810   O831    1.278   .     A
C810   C812    1.366   .     S
C810   O834    1.279   .     A
C811   C813    1.366   .     S
C811   O832    1.278   .     A
C811   O833    1.279   .     A
C813   C20     1.165   1_556 S
C814   C904    1.382   1_455 S
C815   C838    1.382   .     S
C816   C858    1.382   .     S
N817   Zn835   2.016   .     S
N819   Zn836   2.016   .     S
O827   Zn835   2.013   .     S
O828   Zn836   2.013   .     S
O829   Zn835   2.025   .     S
O830   Zn836   2.025   .     S
O831   Zn835   1.949   .     S
O832   Zn836   1.949   .     S
O833   Zn835   1.950   .     S
O834   Zn836   1.950   .     S
C837   C840    1.449   .     S
C837   O874    1.290   .     A
C837   O871    1.293   .     A
C838   C840    1.411   .     A
C838   C849    1.457   .     S
C839   C859    1.413   .     A
C839   C860    1.411   .     A
C839   C848    1.449   .     S
C840   C858    1.413   .     A
C841   C850    1.443   .     S
C841   N863    1.369   .     A
C841   C1108   1.425   1_545 S
C842   N861    1.369   .     A
C842   C851    1.443   .     S
C842   C975    1.425   .     S
C843   C852    1.443   .     S
C843   N863    1.369   .     A
C843   C1106   1.425   1_545 S
C844   C853    1.443   .     S
C844   N861    1.369   .     A
C844   C973    1.425   .     S
C845   C858    1.454   .     S
C845   N864    1.157   .     T
C846   C859    1.454   .     S
C846   N865    1.157   .     T
C847   N866    1.157   .     T
C847   C860    1.457   .     S
C848   O872    1.293   .     A
C848   O873    1.290   .     A
C849   N867    1.157   .     T
C850   N868    1.158   .     T
C851   N869    1.158   .     T
C852   N870    1.158   .     T
C853   N862    1.158   .     T
C854   O875    1.278   .     A
C854   C856    1.366   .     S
C854   O878    1.279   .     A
C855   C857    1.366   .     S
C855   O876    1.278   .     A
C855   O877    1.279   .     A
C857   C64     1.165   1_556 S
C859   C882    1.382   .     S
C860   C902    1.382   .     S
N861   Zn879   2.016   .     S
N863   Zn880   2.016   .     S
O871   Zn879   2.013   .     S
O872   Zn880   2.013   .     S
O873   Zn879   2.025   .     S
O874   Zn880   2.025   .     S
O875   Zn879   1.949   .     S
O876   Zn880   1.949   .     S
O877   Zn879   1.950   .     S
O878   Zn880   1.950   .     S
C881   C884    1.449   .     S
C881   O918    1.290   .     A
C881   O915    1.293   .     A
C882   C884    1.411   .     A
C882   C893    1.457   .     S
C883   C903    1.413   .     A
C883   C904    1.411   .     A
C883   C892    1.449   .     S
C884   C902    1.413   .     A
C885   C894    1.443   .     S
C885   N907    1.369   .     A
C885   C1152   1.425   1_545 S
C886   N905    1.369   .     A
C886   C895    1.443   .     S
C886   C1019   1.425   .     S
C887   C896    1.443   .     S
C887   N907    1.369   .     A
C887   C1150   1.425   1_545 S
C888   C897    1.443   .     S
C888   N905    1.369   .     A
C888   C1017   1.425   .     S
C889   C902    1.454   .     S
C889   N908    1.157   .     T
C890   C903    1.454   .     S
C890   N909    1.157   .     T
C891   N910    1.157   .     T
C891   C904    1.457   .     S
C892   O916    1.293   .     A
C892   O917    1.290   .     A
C893   N911    1.157   .     T
C894   N912    1.158   .     T
C895   N913    1.158   .     T
C896   N914    1.158   .     T
C897   N906    1.158   .     T
C898   O919    1.278   .     A
C898   C900    1.366   .     S
C898   O922    1.279   .     A
C899   C901    1.366   .     S
C899   O920    1.278   .     A
C899   O921    1.279   .     A
C901   C108    1.165   1_556 S
C903   C794    1.382   1_655 S
C904   C814    1.382   1_655 S
N905   Zn923   2.016   .     S
N907   Zn924   2.016   .     S
O915   Zn923   2.013   .     S
O916   Zn924   2.013   .     S
O917   Zn923   2.025   .     S
O918   Zn924   2.025   .     S
O919   Zn923   1.949   .     S
O920   Zn924   1.949   .     S
O921   Zn923   1.950   .     S
O922   Zn924   1.950   .     S
C925   C928    1.449   .     S
C925   O962    1.290   .     A
C925   O959    1.293   .     A
C926   C928    1.411   .     A
C926   C937    1.457   .     S
C926   C1035   1.382   1_455 S
C927   C947    1.413   .     A
C927   C948    1.411   .     A
C927   C936    1.449   .     S
C928   C946    1.413   .     A
C929   C938    1.443   .     S
C929   N951    1.369   .     A
C930   N949    1.369   .     A
C930   C939    1.443   .     S
C930   C1063   1.425   .     S
C931   C940    1.443   .     S
C931   N951    1.369   .     A
C932   C941    1.443   .     S
C932   N949    1.369   .     A
C932   C1061   1.425   .     S
C933   C946    1.454   .     S
C933   N952    1.157   .     T
C934   C947    1.454   .     S
C934   N953    1.157   .     T
C935   N954    1.157   .     T
C935   C948    1.457   .     S
C936   O960    1.293   .     A
C936   O961    1.290   .     A
C937   N955    1.157   .     T
C938   N956    1.158   .     T
C939   N957    1.158   .     T
C940   N958    1.158   .     T
C941   N950    1.158   .     T
C942   O963    1.278   .     A
C942   C944    1.366   .     S
C942   O966    1.279   .     A
C943   C945    1.366   .     S
C943   O964    1.278   .     A
C943   O965    1.279   .     A
C945   C152    1.165   1_556 S
C946   C1036   1.382   1_455 S
C947   C970    1.382   .     S
C948   C990    1.382   .     S
N949   Zn967   2.016   .     S
N951   Zn968   2.016   .     S
O959   Zn967   2.013   .     S
O960   Zn968   2.013   .     S
O961   Zn967   2.025   .     S
O962   Zn968   2.025   .     S
O963   Zn967   1.949   .     S
O964   Zn968   1.949   .     S
O965   Zn967   1.950   .     S
O966   Zn968   1.950   .     S
C969   C972    1.449   .     S
C969   O1006   1.290   .     A
C969   O1003   1.293   .     A
C970   C972    1.411   .     A
C970   C981    1.457   .     S
C971   C991    1.413   .     A
C971   C992    1.411   .     A
C971   C980    1.449   .     S
C972   C990    1.413   .     A
C973   C982    1.443   .     S
C973   N995    1.369   .     A
C974   N993    1.369   .     A
C974   C983    1.443   .     S
C974   C1107   1.425   .     S
C975   C984    1.443   .     S
C975   N995    1.369   .     A
C976   C985    1.443   .     S
C976   N993    1.369   .     A
C976   C1105   1.425   .     S
C977   C990    1.454   .     S
C977   N996    1.157   .     T
C978   C991    1.454   .     S
C978   N997    1.157   .     T
C979   N998    1.157   .     T
C979   C992    1.457   .     S
C980   O1004   1.293   .     A
C980   O1005   1.290   .     A
C981   N999    1.157   .     T
C982   N1000   1.158   .     T
C983   N1001   1.158   .     T
C984   N1002   1.158   .     T
C985   N994    1.158   .     T
C986   O1007   1.278   .     A
C986   C988    1.366   .     S
C986   O1010   1.279   .     A
C987   C989    1.366   .     S
C987   O1008   1.278   .     A
C987   O1009   1.279   .     A
C989   C196    1.165   1_556 S
C991   C1014   1.382   .     S
C992   C1034   1.382   .     S
N993   Zn1011  2.016   .     S
N995   Zn1012  2.016   .     S
O1003  Zn1011  2.013   .     S
O1004  Zn1012  2.013   .     S
O1005  Zn1011  2.025   .     S
O1006  Zn1012  2.025   .     S
O1007  Zn1011  1.949   .     S
O1008  Zn1012  1.949   .     S
O1009  Zn1011  1.950   .     S
O1010  Zn1012  1.950   .     S
C1013  C1016   1.449   .     S
C1013  O1050   1.290   .     A
C1013  O1047   1.293   .     A
C1014  C1016   1.411   .     A
C1014  C1025   1.457   .     S
C1015  C1035   1.413   .     A
C1015  C1036   1.411   .     A
C1015  C1024   1.449   .     S
C1016  C1034   1.413   .     A
C1017  C1026   1.443   .     S
C1017  N1039   1.369   .     A
C1018  N1037   1.369   .     A
C1018  C1027   1.443   .     S
C1018  C1151   1.425   .     S
C1019  C1028   1.443   .     S
C1019  N1039   1.369   .     A
C1020  C1029   1.443   .     S
C1020  N1037   1.369   .     A
C1020  C1149   1.425   .     S
C1021  C1034   1.454   .     S
C1021  N1040   1.157   .     T
C1022  C1035   1.454   .     S
C1022  N1041   1.157   .     T
C1023  N1042   1.157   .     T
C1023  C1036   1.457   .     S
C1024  O1048   1.293   .     A
C1024  O1049   1.290   .     A
C1025  N1043   1.157   .     T
C1026  N1044   1.158   .     T
C1027  N1045   1.158   .     T
C1028  N1046   1.158   .     T
C1029  N1038   1.158   .     T
C1030  O1051   1.278   .     A
C1030  C1032   1.366   .     S
C1030  O1054   1.279   .     A
C1031  C1033   1.366   .     S
C1031  O1052   1.278   .     A
C1031  O1053   1.279   .     A
C1033  C240    1.165   1_556 S
C1035  C926    1.382   1_655 S
C1036  C946    1.382   1_655 S
N1037  Zn1055  2.016   .     S
N1039  Zn1056  2.016   .     S
O1047  Zn1055  2.013   .     S
O1048  Zn1056  2.013   .     S
O1049  Zn1055  2.025   .     S
O1050  Zn1056  2.025   .     S
O1051  Zn1055  1.949   .     S
O1052  Zn1056  1.949   .     S
O1053  Zn1055  1.950   .     S
O1054  Zn1056  1.950   .     S
C1057  C1060   1.449   .     S
C1057  O1094   1.290   .     A
C1057  O1091   1.293   .     A
C1058  C1060   1.411   .     A
C1058  C1069   1.457   .     S
C1058  C1167   1.382   1_455 S
C1059  C1079   1.413   .     A
C1059  C1080   1.411   .     A
C1059  C1068   1.449   .     S
C1060  C1078   1.413   .     A
C1061  C1070   1.443   .     S
C1061  N1083   1.369   .     A
C1062  N1081   1.369   .     A
C1062  C1071   1.443   .     S
C1062  C799    1.425   1_565 S
C1063  C1072   1.443   .     S
C1063  N1083   1.369   .     A
C1064  C1073   1.443   .     S
C1064  N1081   1.369   .     A
C1064  C797    1.425   1_565 S
C1065  C1078   1.454   .     S
C1065  N1084   1.157   .     T
C1066  C1079   1.454   .     S
C1066  N1085   1.157   .     T
C1067  N1086   1.157   .     T
C1067  C1080   1.457   .     S
C1068  O1092   1.293   .     A
C1068  O1093   1.290   .     A
C1069  N1087   1.157   .     T
C1070  N1088   1.158   .     T
C1071  N1089   1.158   .     T
C1072  N1090   1.158   .     T
C1073  N1082   1.158   .     T
C1074  O1095   1.278   .     A
C1074  C1076   1.366   .     S
C1074  O1098   1.279   .     A
C1075  C1077   1.366   .     S
C1075  O1096   1.278   .     A
C1075  O1097   1.279   .     A
C1077  C284    1.165   1_556 S
C1078  C1168   1.382   1_455 S
C1079  C1102   1.382   .     S
C1080  C1122   1.382   .     S
N1081  Zn1099  2.016   .     S
N1083  Zn1100  2.016   .     S
O1091  Zn1099  2.013   .     S
O1092  Zn1100  2.013   .     S
O1093  Zn1099  2.025   .     S
O1094  Zn1100  2.025   .     S
O1095  Zn1099  1.949   .     S
O1096  Zn1100  1.949   .     S
O1097  Zn1099  1.950   .     S
O1098  Zn1100  1.950   .     S
C1101  C1104   1.449   .     S
C1101  O1138   1.290   .     A
C1101  O1135   1.293   .     A
C1102  C1104   1.411   .     A
C1102  C1113   1.457   .     S
C1103  C1123   1.413   .     A
C1103  C1124   1.411   .     A
C1103  C1112   1.449   .     S
C1104  C1122   1.413   .     A
C1105  C1114   1.443   .     S
C1105  N1127   1.369   .     A
C1106  N1125   1.369   .     A
C1106  C1115   1.443   .     S
C1106  C843    1.425   1_565 S
C1107  C1116   1.443   .     S
C1107  N1127   1.369   .     A
C1108  C1117   1.443   .     S
C1108  N1125   1.369   .     A
C1108  C841    1.425   1_565 S
C1109  C1122   1.454   .     S
C1109  N1128   1.157   .     T
C1110  C1123   1.454   .     S
C1110  N1129   1.157   .     T
C1111  N1130   1.157   .     T
C1111  C1124   1.457   .     S
C1112  O1136   1.293   .     A
C1112  O1137   1.290   .     A
C1113  N1131   1.157   .     T
C1114  N1132   1.158   .     T
C1115  N1133   1.158   .     T
C1116  N1134   1.158   .     T
C1117  N1126   1.158   .     T
C1118  O1139   1.278   .     A
C1118  C1120   1.366   .     S
C1118  O1142   1.279   .     A
C1119  C1121   1.366   .     S
C1119  O1140   1.278   .     A
C1119  O1141   1.279   .     A
C1121  C328    1.165   1_556 S
C1123  C1146   1.382   .     S
C1124  C1166   1.382   .     S
N1125  Zn1143  2.016   .     S
N1127  Zn1144  2.016   .     S
O1135  Zn1143  2.013   .     S
O1136  Zn1144  2.013   .     S
O1137  Zn1143  2.025   .     S
O1138  Zn1144  2.025   .     S
O1139  Zn1143  1.949   .     S
O1140  Zn1144  1.949   .     S
O1141  Zn1143  1.950   .     S
O1142  Zn1144  1.950   .     S
C1145  C1148   1.449   .     S
C1145  O1182   1.290   .     A
C1145  O1179   1.293   .     A
C1146  C1148   1.411   .     A
C1146  C1157   1.457   .     S
C1147  C1167   1.413   .     A
C1147  C1168   1.411   .     A
C1147  C1156   1.449   .     S
C1148  C1166   1.413   .     A
C1149  C1158   1.443   .     S
C1149  N1171   1.369   .     A
C1150  N1169   1.369   .     A
C1150  C1159   1.443   .     S
C1150  C887    1.425   1_565 S
C1151  C1160   1.443   .     S
C1151  N1171   1.369   .     A
C1152  C1161   1.443   .     S
C1152  N1169   1.369   .     A
C1152  C885    1.425   1_565 S
C1153  C1166   1.454   .     S
C1153  N1172   1.157   .     T
C1154  C1167   1.454   .     S
C1154  N1173   1.157   .     T
C1155  N1174   1.157   .     T
C1155  C1168   1.457   .     S
C1156  O1180   1.293   .     A
C1156  O1181   1.290   .     A
C1157  N1175   1.157   .     T
C1158  N1176   1.158   .     T
C1159  N1177   1.158   .     T
C1160  N1178   1.158   .     T
C1161  N1170   1.158   .     T
C1162  O1183   1.278   .     A
C1162  C1164   1.366   .     S
C1162  O1186   1.279   .     A
C1163  C1165   1.366   .     S
C1163  O1184   1.278   .     A
C1163  O1185   1.279   .     A
C1165  C372    1.165   1_556 S
C1167  C1058   1.382   1_655 S
C1168  C1078   1.382   1_655 S
N1169  Zn1187  2.016   .     S
N1171  Zn1188  2.016   .     S
O1179  Zn1187  2.013   .     S
O1180  Zn1188  2.013   .     S
O1181  Zn1187  2.025   .     S
O1182  Zn1188  2.025   .     S
O1183  Zn1187  1.949   .     S
O1184  Zn1188  1.949   .     S
O1185  Zn1187  1.950   .     S
O1186  Zn1188  1.950   .     S
