data_str_m1_o10_o18_pcu_sym.245
_audit_creation_date              2020-01-03
_audit_creation_method            'Materials Studio'
_symmetry_space_group_name_H-M    'P1'
_symmetry_Int_Tables_number       1
_symmetry_cell_setting            triclinic
loop_
_symmetry_equiv_pos_as_xyz
  x,y,z
_cell_length_a                    32.5912
_cell_length_b                    32.5161
_cell_length_c                    35.7497
_cell_angle_alpha                 98.1811
_cell_angle_beta                  72.4707
_cell_angle_gamma                 98.6297
loop_
_atom_site_label
_atom_site_type_symbol
_atom_site_fract_x
_atom_site_fract_y
_atom_site_fract_z
_atom_site_U_iso_or_equiv
_atom_site_adp_type
_atom_site_occupancy
C1     C     0.05235   0.15976   0.25938   0.00000  Uiso   1.00
C2     C     0.20511   0.13932   0.45890   0.00000  Uiso   1.00
C3     C     0.23052   0.12500   0.47803   0.00000  Uiso   1.00
C4     C     0.28131   0.17282   0.24028   0.00000  Uiso   1.00
C5     C     0.21925   0.12847   0.01898   0.00000  Uiso   1.00
C6     C     0.18063   0.14535   0.04158   0.00000  Uiso   1.00
C7     C     0.24666   0.11524   0.03738   0.00000  Uiso   1.00
C8     C     0.23715   0.11906   0.07852   0.00000  Uiso   1.00
C9     C     0.17138   0.14915   0.08297   0.00000  Uiso   1.00
C10    C     0.32800   0.17317   0.23374   0.00000  Uiso   1.00
C11    C     0.00743   0.15983   0.26194   0.00000  Uiso   1.00
C12    C     0.08870   0.20385   0.42247   0.00000  Uiso   1.00
C13    C     0.18102   0.32223   0.23803   0.00000  Uiso   1.00
C14    C     0.15148   0.01212   0.26211   0.00000  Uiso   1.00
C15    C     0.15592   0.05617   0.25888   0.00000  Uiso   1.00
C16    C     0.17689   0.27774   0.24131   0.00000  Uiso   1.00
C17    C     0.18851   0.14530   0.14399   0.00000  Uiso   1.00
C18    C     0.14407   0.18676   0.35641   0.00000  Uiso   1.00
C19    C     0.12899   0.19008   0.40010   0.00000  Uiso   1.00
C20    C     0.19897   0.13646   0.10123   0.00000  Uiso   1.00
C21    C     0.07655   0.20484   0.46350   0.00000  Uiso   1.00
C22    C     0.04309   0.19712   0.04879   0.00000  Uiso   1.00
C23    C     0.15522   0.17700   0.41969   0.00000  Uiso   1.00
C24    C     0.02574   0.18744   0.19638   0.00000  Uiso   1.00
C25    C     0.26773   0.10470   0.09641   0.00000  Uiso   1.00
C26    C     0.05686   0.21528   0.40477   0.00000  Uiso   1.00
C27    C     0.14147   0.17412   0.46074   0.00000  Uiso   1.00
C28    C     0.10121   0.18847   0.48296   0.00000  Uiso   1.00
C29    C     0.16698   0.15773   0.48012   0.00000  Uiso   1.00
C30    C     0.15349   0.15889   0.02199   0.00000  Uiso   1.00
C31    C     0.11290   0.17249   0.04293   0.00000  Uiso   1.00
C32    C     0.08653   0.18637   0.02412   0.00000  Uiso   1.00
H33    H     0.27581   0.10207   0.01936   0.00000  Uiso   1.00
H34    H     0.31754   0.15133   0.28942   0.00000  Uiso   1.00
H35    H     0.14401   0.16384   0.10218   0.00000  Uiso   1.00
H36    H     0.32719   0.08776   0.08833   0.00000  Uiso   1.00
H37    H     0.01605   0.25644   0.40541   0.00000  Uiso   1.00
H38    H     0.18667   0.16940   0.40185   0.00000  Uiso   1.00
H39    H     0.20835   0.00287   0.21586   0.00000  Uiso   1.00
H40    H     0.12375   0.33222   0.28432   0.00000  Uiso   1.00
H41    H     0.25960   0.11139   0.46048   0.00000  Uiso   1.00
H42    H     0.04665   0.21742   0.47990   0.00000  Uiso   1.00
H43    H     0.09950   0.17066   0.07418   0.00000  Uiso   1.00
H44    H     0.21604   0.13443   0.42722   0.00000  Uiso   1.00
H45    H     0.31204   0.19107   0.05607   0.00000  Uiso   1.00
H46    H     0.08564   0.21280   0.16805   0.00000  Uiso   1.00
O47    O     0.16667   0.16667   0.25000   0.00000  Uiso   1.00
O48    O     0.15693   0.12393   0.16625   0.00000  Uiso   1.00
O49    O     0.12687   0.20646   0.33749   0.00000  Uiso   1.00
O50    O     0.21088   0.17493   0.15877   0.00000  Uiso   1.00
O51    O     0.17198   0.16135   0.33749   0.00000  Uiso   1.00
O52    O     0.03938   0.21803   0.08066   0.00000  Uiso   1.00
O53    O     0.00626   0.18183   0.03653   0.00000  Uiso   1.00
O54    O     0.01395   0.18431   0.16659   0.00000  Uiso   1.00
O55    O     0.06805   0.20472   0.19515   0.00000  Uiso   1.00
O56    O     0.25670   0.09881   0.13125   0.00000  Uiso   1.00
O57    O     0.30936   0.09722   0.07297   0.00000  Uiso   1.00
O58    O     0.17849   0.08101   0.27821   0.00000  Uiso   1.00
O59    O     0.04544   0.19141   0.37916   0.00000  Uiso   1.00
O60    O     0.03793   0.25235   0.41920   0.00000  Uiso   1.00
O61    O     0.14581   0.26136   0.26767   0.00000  Uiso   1.00
O62    O     0.07452   0.13251   0.23607   0.00000  Uiso   1.00
O63    O     0.26785   0.19179   0.21806   0.00000  Uiso   1.00
O64    O     0.06990   0.18960   0.27820   0.00000  Uiso   1.00
O65    O     0.25440   0.15277   0.26768   0.00000  Uiso   1.00
O66    O     0.13800   0.06903   0.23607   0.00000  Uiso   1.00
O67    O     0.20437   0.25527   0.21806   0.00000  Uiso   1.00
Zn68   Zn    0.19244   0.14090   0.28278   0.00000  Uiso   1.00
Zn69   Zn    0.13459   0.12378   0.22258   0.00000  Uiso   1.00
Zn70   Zn    0.21166   0.19664   0.21188   0.00000  Uiso   1.00
Zn71   Zn    0.12798   0.20535   0.28277   0.00000  Uiso   1.00
C72    C     0.38568   0.15976   0.25938   0.00000  Uiso   1.00
C73    C     0.53845   0.13932   0.45890   0.00000  Uiso   1.00
C74    C     0.56386   0.12500   0.47803   0.00000  Uiso   1.00
C75    C     0.61464   0.17282   0.24028   0.00000  Uiso   1.00
C76    C     0.55258   0.12847   0.01898   0.00000  Uiso   1.00
C77    C     0.51397   0.14535   0.04158   0.00000  Uiso   1.00
C78    C     0.58000   0.11524   0.03738   0.00000  Uiso   1.00
C79    C     0.57048   0.11906   0.07852   0.00000  Uiso   1.00
C80    C     0.50471   0.14915   0.08297   0.00000  Uiso   1.00
C81    C     0.66134   0.17317   0.23374   0.00000  Uiso   1.00
C82    C     0.34076   0.15983   0.26194   0.00000  Uiso   1.00
C83    C     0.42204   0.20385   0.42247   0.00000  Uiso   1.00
C84    C     0.51435   0.32223   0.23803   0.00000  Uiso   1.00
C85    C     0.48481   0.01212   0.26211   0.00000  Uiso   1.00
C86    C     0.48926   0.05617   0.25888   0.00000  Uiso   1.00
C87    C     0.51023   0.27774   0.24131   0.00000  Uiso   1.00
C88    C     0.52184   0.14530   0.14399   0.00000  Uiso   1.00
C89    C     0.47741   0.18676   0.35641   0.00000  Uiso   1.00
C90    C     0.46232   0.19008   0.40010   0.00000  Uiso   1.00
C91    C     0.53230   0.13646   0.10123   0.00000  Uiso   1.00
C92    C     0.40988   0.20484   0.46350   0.00000  Uiso   1.00
C93    C     0.37642   0.19712   0.04879   0.00000  Uiso   1.00
C94    C     0.48855   0.17700   0.41969   0.00000  Uiso   1.00
C95    C     0.35907   0.18744   0.19638   0.00000  Uiso   1.00
C96    C     0.60106   0.10470   0.09641   0.00000  Uiso   1.00
C97    C     0.39019   0.21528   0.40477   0.00000  Uiso   1.00
C98    C     0.47481   0.17412   0.46074   0.00000  Uiso   1.00
C99    C     0.43454   0.18847   0.48296   0.00000  Uiso   1.00
C100   C     0.50031   0.15773   0.48012   0.00000  Uiso   1.00
C101   C     0.48682   0.15889   0.02199   0.00000  Uiso   1.00
C102   C     0.44623   0.17249   0.04293   0.00000  Uiso   1.00
C103   C     0.41986   0.18637   0.02412   0.00000  Uiso   1.00
H104   H     0.60915   0.10207   0.01936   0.00000  Uiso   1.00
H105   H     0.65088   0.15133   0.28942   0.00000  Uiso   1.00
H106   H     0.47734   0.16384   0.10218   0.00000  Uiso   1.00
H107   H     0.66052   0.08776   0.08833   0.00000  Uiso   1.00
H108   H     0.34939   0.25644   0.40541   0.00000  Uiso   1.00
H109   H     0.52000   0.16940   0.40185   0.00000  Uiso   1.00
H110   H     0.54168   0.00287   0.21586   0.00000  Uiso   1.00
H111   H     0.45708   0.33222   0.28432   0.00000  Uiso   1.00
H112   H     0.59294   0.11139   0.46048   0.00000  Uiso   1.00
H113   H     0.37998   0.21742   0.47990   0.00000  Uiso   1.00
H114   H     0.43283   0.17066   0.07418   0.00000  Uiso   1.00
H115   H     0.54937   0.13443   0.42722   0.00000  Uiso   1.00
H116   H     0.64537   0.19107   0.05607   0.00000  Uiso   1.00
H117   H     0.41897   0.21280   0.16805   0.00000  Uiso   1.00
O118   O     0.50000   0.16667   0.25000   0.00000  Uiso   1.00
O119   O     0.49027   0.12393   0.16625   0.00000  Uiso   1.00
O120   O     0.46020   0.20646   0.33749   0.00000  Uiso   1.00
O121   O     0.54421   0.17493   0.15877   0.00000  Uiso   1.00
O122   O     0.50532   0.16135   0.33749   0.00000  Uiso   1.00
O123   O     0.37271   0.21803   0.08066   0.00000  Uiso   1.00
O124   O     0.33959   0.18183   0.03653   0.00000  Uiso   1.00
O125   O     0.34729   0.18431   0.16659   0.00000  Uiso   1.00
O126   O     0.40139   0.20472   0.19515   0.00000  Uiso   1.00
O127   O     0.59004   0.09881   0.13125   0.00000  Uiso   1.00
O128   O     0.64269   0.09722   0.07297   0.00000  Uiso   1.00
O129   O     0.51182   0.08101   0.27821   0.00000  Uiso   1.00
O130   O     0.37877   0.19141   0.37916   0.00000  Uiso   1.00
O131   O     0.37126   0.25235   0.41920   0.00000  Uiso   1.00
O132   O     0.47914   0.26136   0.26767   0.00000  Uiso   1.00
O133   O     0.40785   0.13251   0.23607   0.00000  Uiso   1.00
O134   O     0.60119   0.19179   0.21806   0.00000  Uiso   1.00
O135   O     0.40323   0.18960   0.27820   0.00000  Uiso   1.00
O136   O     0.58773   0.15277   0.26768   0.00000  Uiso   1.00
O137   O     0.47133   0.06903   0.23607   0.00000  Uiso   1.00
O138   O     0.53771   0.25527   0.21806   0.00000  Uiso   1.00
Zn139  Zn    0.52577   0.14090   0.28278   0.00000  Uiso   1.00
Zn140  Zn    0.46792   0.12378   0.22258   0.00000  Uiso   1.00
Zn141  Zn    0.54500   0.19664   0.21188   0.00000  Uiso   1.00
Zn142  Zn    0.46131   0.20535   0.28277   0.00000  Uiso   1.00
C143   C     0.71901   0.15976   0.25938   0.00000  Uiso   1.00
C144   C     0.87178   0.13932   0.45890   0.00000  Uiso   1.00
C145   C     0.89719   0.12500   0.47803   0.00000  Uiso   1.00
C146   C     0.94797   0.17282   0.24028   0.00000  Uiso   1.00
C147   C     0.88591   0.12847   0.01898   0.00000  Uiso   1.00
C148   C     0.84730   0.14535   0.04158   0.00000  Uiso   1.00
C149   C     0.91333   0.11524   0.03738   0.00000  Uiso   1.00
C150   C     0.90382   0.11906   0.07852   0.00000  Uiso   1.00
C151   C     0.83805   0.14915   0.08297   0.00000  Uiso   1.00
C152   C     0.99467   0.17317   0.23374   0.00000  Uiso   1.00
C153   C     0.67410   0.15983   0.26194   0.00000  Uiso   1.00
C154   C     0.75537   0.20385   0.42247   0.00000  Uiso   1.00
C155   C     0.84769   0.32223   0.23803   0.00000  Uiso   1.00
C156   C     0.81814   0.01212   0.26211   0.00000  Uiso   1.00
C157   C     0.82259   0.05617   0.25888   0.00000  Uiso   1.00
C158   C     0.84356   0.27774   0.24131   0.00000  Uiso   1.00
C159   C     0.85517   0.14530   0.14399   0.00000  Uiso   1.00
C160   C     0.81074   0.18676   0.35641   0.00000  Uiso   1.00
C161   C     0.79565   0.19008   0.40010   0.00000  Uiso   1.00
C162   C     0.86563   0.13646   0.10123   0.00000  Uiso   1.00
C163   C     0.74322   0.20484   0.46350   0.00000  Uiso   1.00
C164   C     0.70975   0.19712   0.04879   0.00000  Uiso   1.00
C165   C     0.82188   0.17700   0.41969   0.00000  Uiso   1.00
C166   C     0.69240   0.18744   0.19638   0.00000  Uiso   1.00
C167   C     0.93439   0.10470   0.09641   0.00000  Uiso   1.00
C168   C     0.72353   0.21528   0.40477   0.00000  Uiso   1.00
C169   C     0.80814   0.17412   0.46074   0.00000  Uiso   1.00
C170   C     0.76787   0.18847   0.48296   0.00000  Uiso   1.00
C171   C     0.83364   0.15773   0.48012   0.00000  Uiso   1.00
C172   C     0.82016   0.15889   0.02199   0.00000  Uiso   1.00
C173   C     0.77956   0.17249   0.04293   0.00000  Uiso   1.00
C174   C     0.75319   0.18637   0.02412   0.00000  Uiso   1.00
H175   H     0.94248   0.10207   0.01936   0.00000  Uiso   1.00
H176   H     0.98421   0.15133   0.28942   0.00000  Uiso   1.00
H177   H     0.81067   0.16384   0.10218   0.00000  Uiso   1.00
H178   H     0.99386   0.08776   0.08833   0.00000  Uiso   1.00
H179   H     0.68272   0.25644   0.40541   0.00000  Uiso   1.00
H180   H     0.85334   0.16940   0.40185   0.00000  Uiso   1.00
H181   H     0.87501   0.00287   0.21586   0.00000  Uiso   1.00
H182   H     0.79042   0.33222   0.28432   0.00000  Uiso   1.00
H183   H     0.92627   0.11139   0.46048   0.00000  Uiso   1.00
H184   H     0.71332   0.21742   0.47990   0.00000  Uiso   1.00
H185   H     0.76616   0.17066   0.07418   0.00000  Uiso   1.00
H186   H     0.88271   0.13443   0.42722   0.00000  Uiso   1.00
H187   H     0.97871   0.19107   0.05607   0.00000  Uiso   1.00
H188   H     0.75230   0.21280   0.16805   0.00000  Uiso   1.00
O189   O     0.83333   0.16667   0.25000   0.00000  Uiso   1.00
O190   O     0.82360   0.12393   0.16625   0.00000  Uiso   1.00
O191   O     0.79354   0.20646   0.33749   0.00000  Uiso   1.00
O192   O     0.87755   0.17493   0.15877   0.00000  Uiso   1.00
O193   O     0.83865   0.16135   0.33749   0.00000  Uiso   1.00
O194   O     0.70604   0.21803   0.08066   0.00000  Uiso   1.00
O195   O     0.67293   0.18183   0.03653   0.00000  Uiso   1.00
O196   O     0.68062   0.18431   0.16659   0.00000  Uiso   1.00
O197   O     0.73472   0.20472   0.19515   0.00000  Uiso   1.00
O198   O     0.92337   0.09881   0.13125   0.00000  Uiso   1.00
O199   O     0.97602   0.09722   0.07297   0.00000  Uiso   1.00
O200   O     0.84515   0.08101   0.27821   0.00000  Uiso   1.00
O201   O     0.71210   0.19141   0.37916   0.00000  Uiso   1.00
O202   O     0.70460   0.25235   0.41920   0.00000  Uiso   1.00
O203   O     0.81247   0.26136   0.26767   0.00000  Uiso   1.00
O204   O     0.74119   0.13251   0.23607   0.00000  Uiso   1.00
O205   O     0.93452   0.19179   0.21806   0.00000  Uiso   1.00
O206   O     0.73656   0.18960   0.27820   0.00000  Uiso   1.00
O207   O     0.92106   0.15277   0.26768   0.00000  Uiso   1.00
O208   O     0.80467   0.06903   0.23607   0.00000  Uiso   1.00
O209   O     0.87104   0.25527   0.21806   0.00000  Uiso   1.00
Zn210  Zn    0.85910   0.14090   0.28278   0.00000  Uiso   1.00
Zn211  Zn    0.80125   0.12378   0.22258   0.00000  Uiso   1.00
Zn212  Zn    0.87833   0.19664   0.21188   0.00000  Uiso   1.00
Zn213  Zn    0.79465   0.20535   0.28277   0.00000  Uiso   1.00
C214   C     0.05235   0.49309   0.25938   0.00000  Uiso   1.00
C215   C     0.20511   0.47265   0.45890   0.00000  Uiso   1.00
C216   C     0.23052   0.45833   0.47803   0.00000  Uiso   1.00
C217   C     0.28131   0.50616   0.24028   0.00000  Uiso   1.00
C218   C     0.21925   0.46180   0.01898   0.00000  Uiso   1.00
C219   C     0.18063   0.47868   0.04158   0.00000  Uiso   1.00
C220   C     0.24666   0.44858   0.03738   0.00000  Uiso   1.00
C221   C     0.23715   0.45239   0.07852   0.00000  Uiso   1.00
C222   C     0.17138   0.48249   0.08297   0.00000  Uiso   1.00
C223   C     0.32800   0.50650   0.23374   0.00000  Uiso   1.00
C224   C     0.00743   0.49316   0.26194   0.00000  Uiso   1.00
C225   C     0.08870   0.53718   0.42247   0.00000  Uiso   1.00
C226   C     0.18102   0.65557   0.23803   0.00000  Uiso   1.00
C227   C     0.15148   0.34546   0.26211   0.00000  Uiso   1.00
C228   C     0.15592   0.38950   0.25888   0.00000  Uiso   1.00
C229   C     0.17689   0.61108   0.24131   0.00000  Uiso   1.00
C230   C     0.18851   0.47864   0.14399   0.00000  Uiso   1.00
C231   C     0.14407   0.52010   0.35641   0.00000  Uiso   1.00
C232   C     0.12899   0.52341   0.40010   0.00000  Uiso   1.00
C233   C     0.19897   0.46979   0.10123   0.00000  Uiso   1.00
C234   C     0.07655   0.53817   0.46350   0.00000  Uiso   1.00
C235   C     0.04309   0.53045   0.04879   0.00000  Uiso   1.00
C236   C     0.15522   0.51033   0.41969   0.00000  Uiso   1.00
C237   C     0.02574   0.52077   0.19638   0.00000  Uiso   1.00
C238   C     0.26773   0.43803   0.09641   0.00000  Uiso   1.00
C239   C     0.05686   0.54862   0.40477   0.00000  Uiso   1.00
C240   C     0.14147   0.50745   0.46074   0.00000  Uiso   1.00
C241   C     0.10121   0.52180   0.48296   0.00000  Uiso   1.00
C242   C     0.16698   0.49106   0.48012   0.00000  Uiso   1.00
C243   C     0.15349   0.49222   0.02199   0.00000  Uiso   1.00
C244   C     0.11290   0.50582   0.04293   0.00000  Uiso   1.00
C245   C     0.08653   0.51970   0.02412   0.00000  Uiso   1.00
H246   H     0.27581   0.43540   0.01936   0.00000  Uiso   1.00
H247   H     0.31754   0.48466   0.28942   0.00000  Uiso   1.00
H248   H     0.14401   0.49717   0.10218   0.00000  Uiso   1.00
H249   H     0.32719   0.42109   0.08833   0.00000  Uiso   1.00
H250   H     0.01605   0.58977   0.40541   0.00000  Uiso   1.00
H251   H     0.18667   0.50274   0.40185   0.00000  Uiso   1.00
H252   H     0.20835   0.33620   0.21586   0.00000  Uiso   1.00
H253   H     0.12375   0.66556   0.28432   0.00000  Uiso   1.00
H254   H     0.25960   0.44472   0.46048   0.00000  Uiso   1.00
H255   H     0.04665   0.55076   0.47990   0.00000  Uiso   1.00
H256   H     0.09950   0.50400   0.07418   0.00000  Uiso   1.00
H257   H     0.21604   0.46776   0.42722   0.00000  Uiso   1.00
H258   H     0.31204   0.52440   0.05607   0.00000  Uiso   1.00
H259   H     0.08564   0.54614   0.16805   0.00000  Uiso   1.00
O260   O     0.16667   0.50000   0.25000   0.00000  Uiso   1.00
O261   O     0.15693   0.45726   0.16625   0.00000  Uiso   1.00
O262   O     0.12687   0.53979   0.33749   0.00000  Uiso   1.00
O263   O     0.21088   0.50826   0.15877   0.00000  Uiso   1.00
O264   O     0.17198   0.49468   0.33749   0.00000  Uiso   1.00
O265   O     0.03938   0.55137   0.08066   0.00000  Uiso   1.00
O266   O     0.00626   0.51517   0.03653   0.00000  Uiso   1.00
O267   O     0.01395   0.51764   0.16659   0.00000  Uiso   1.00
O268   O     0.06805   0.53806   0.19515   0.00000  Uiso   1.00
O269   O     0.25670   0.43214   0.13125   0.00000  Uiso   1.00
O270   O     0.30936   0.43055   0.07297   0.00000  Uiso   1.00
O271   O     0.17849   0.41434   0.27821   0.00000  Uiso   1.00
O272   O     0.04544   0.52474   0.37916   0.00000  Uiso   1.00
O273   O     0.03793   0.58569   0.41920   0.00000  Uiso   1.00
O274   O     0.14581   0.59469   0.26767   0.00000  Uiso   1.00
O275   O     0.07452   0.46584   0.23607   0.00000  Uiso   1.00
O276   O     0.26785   0.52512   0.21806   0.00000  Uiso   1.00
O277   O     0.06990   0.52293   0.27820   0.00000  Uiso   1.00
O278   O     0.25440   0.48610   0.26768   0.00000  Uiso   1.00
O279   O     0.13800   0.40236   0.23607   0.00000  Uiso   1.00
O280   O     0.20437   0.58860   0.21806   0.00000  Uiso   1.00
Zn281  Zn    0.19244   0.47423   0.28278   0.00000  Uiso   1.00
Zn282  Zn    0.13459   0.45711   0.22258   0.00000  Uiso   1.00
Zn283  Zn    0.21166   0.52997   0.21188   0.00000  Uiso   1.00
Zn284  Zn    0.12798   0.53868   0.28277   0.00000  Uiso   1.00
C285   C     0.38568   0.49309   0.25938   0.00000  Uiso   1.00
C286   C     0.53845   0.47265   0.45890   0.00000  Uiso   1.00
C287   C     0.56386   0.45833   0.47803   0.00000  Uiso   1.00
C288   C     0.61464   0.50616   0.24028   0.00000  Uiso   1.00
C289   C     0.55258   0.46180   0.01898   0.00000  Uiso   1.00
C290   C     0.51397   0.47868   0.04158   0.00000  Uiso   1.00
C291   C     0.58000   0.44858   0.03738   0.00000  Uiso   1.00
C292   C     0.57048   0.45239   0.07852   0.00000  Uiso   1.00
C293   C     0.50471   0.48249   0.08297   0.00000  Uiso   1.00
C294   C     0.66134   0.50650   0.23374   0.00000  Uiso   1.00
C295   C     0.34076   0.49316   0.26194   0.00000  Uiso   1.00
C296   C     0.42204   0.53718   0.42247   0.00000  Uiso   1.00
C297   C     0.51435   0.65557   0.23803   0.00000  Uiso   1.00
C298   C     0.48481   0.34546   0.26211   0.00000  Uiso   1.00
C299   C     0.48926   0.38950   0.25888   0.00000  Uiso   1.00
C300   C     0.51023   0.61108   0.24131   0.00000  Uiso   1.00
C301   C     0.52184   0.47864   0.14399   0.00000  Uiso   1.00
C302   C     0.47741   0.52010   0.35641   0.00000  Uiso   1.00
C303   C     0.46232   0.52341   0.40010   0.00000  Uiso   1.00
C304   C     0.53230   0.46979   0.10123   0.00000  Uiso   1.00
C305   C     0.40988   0.53817   0.46350   0.00000  Uiso   1.00
C306   C     0.37642   0.53045   0.04879   0.00000  Uiso   1.00
C307   C     0.48855   0.51033   0.41969   0.00000  Uiso   1.00
C308   C     0.35907   0.52077   0.19638   0.00000  Uiso   1.00
C309   C     0.60106   0.43803   0.09641   0.00000  Uiso   1.00
C310   C     0.39019   0.54862   0.40477   0.00000  Uiso   1.00
C311   C     0.47481   0.50745   0.46074   0.00000  Uiso   1.00
C312   C     0.43454   0.52180   0.48296   0.00000  Uiso   1.00
C313   C     0.50031   0.49106   0.48012   0.00000  Uiso   1.00
C314   C     0.48682   0.49222   0.02199   0.00000  Uiso   1.00
C315   C     0.44623   0.50582   0.04293   0.00000  Uiso   1.00
C316   C     0.41986   0.51970   0.02412   0.00000  Uiso   1.00
H317   H     0.60915   0.43540   0.01936   0.00000  Uiso   1.00
H318   H     0.65088   0.48466   0.28942   0.00000  Uiso   1.00
H319   H     0.47734   0.49717   0.10218   0.00000  Uiso   1.00
H320   H     0.66052   0.42109   0.08833   0.00000  Uiso   1.00
H321   H     0.34939   0.58977   0.40541   0.00000  Uiso   1.00
H322   H     0.52000   0.50274   0.40185   0.00000  Uiso   1.00
H323   H     0.54168   0.33620   0.21586   0.00000  Uiso   1.00
H324   H     0.45708   0.66556   0.28432   0.00000  Uiso   1.00
H325   H     0.59294   0.44472   0.46048   0.00000  Uiso   1.00
H326   H     0.37998   0.55076   0.47990   0.00000  Uiso   1.00
H327   H     0.43283   0.50400   0.07418   0.00000  Uiso   1.00
H328   H     0.54937   0.46776   0.42722   0.00000  Uiso   1.00
H329   H     0.64537   0.52440   0.05607   0.00000  Uiso   1.00
H330   H     0.41897   0.54614   0.16805   0.00000  Uiso   1.00
O331   O     0.50000   0.50000   0.25000   0.00000  Uiso   1.00
O332   O     0.49027   0.45726   0.16625   0.00000  Uiso   1.00
O333   O     0.46020   0.53979   0.33749   0.00000  Uiso   1.00
O334   O     0.54421   0.50826   0.15877   0.00000  Uiso   1.00
O335   O     0.50532   0.49468   0.33749   0.00000  Uiso   1.00
O336   O     0.37271   0.55137   0.08066   0.00000  Uiso   1.00
O337   O     0.33959   0.51517   0.03653   0.00000  Uiso   1.00
O338   O     0.34729   0.51764   0.16659   0.00000  Uiso   1.00
O339   O     0.40139   0.53806   0.19515   0.00000  Uiso   1.00
O340   O     0.59004   0.43214   0.13125   0.00000  Uiso   1.00
O341   O     0.64269   0.43055   0.07297   0.00000  Uiso   1.00
O342   O     0.51182   0.41434   0.27821   0.00000  Uiso   1.00
O343   O     0.37877   0.52474   0.37916   0.00000  Uiso   1.00
O344   O     0.37126   0.58569   0.41920   0.00000  Uiso   1.00
O345   O     0.47914   0.59469   0.26767   0.00000  Uiso   1.00
O346   O     0.40785   0.46584   0.23607   0.00000  Uiso   1.00
O347   O     0.60119   0.52512   0.21806   0.00000  Uiso   1.00
O348   O     0.40323   0.52293   0.27820   0.00000  Uiso   1.00
O349   O     0.58773   0.48610   0.26768   0.00000  Uiso   1.00
O350   O     0.47133   0.40236   0.23607   0.00000  Uiso   1.00
O351   O     0.53771   0.58860   0.21806   0.00000  Uiso   1.00
Zn352  Zn    0.52577   0.47423   0.28278   0.00000  Uiso   1.00
Zn353  Zn    0.46792   0.45711   0.22258   0.00000  Uiso   1.00
Zn354  Zn    0.54500   0.52997   0.21188   0.00000  Uiso   1.00
Zn355  Zn    0.46131   0.53868   0.28277   0.00000  Uiso   1.00
C356   C     0.71901   0.49309   0.25938   0.00000  Uiso   1.00
C357   C     0.87178   0.47265   0.45890   0.00000  Uiso   1.00
C358   C     0.89719   0.45833   0.47803   0.00000  Uiso   1.00
C359   C     0.94797   0.50616   0.24028   0.00000  Uiso   1.00
C360   C     0.88591   0.46180   0.01898   0.00000  Uiso   1.00
C361   C     0.84730   0.47868   0.04158   0.00000  Uiso   1.00
C362   C     0.91333   0.44858   0.03738   0.00000  Uiso   1.00
C363   C     0.90382   0.45239   0.07852   0.00000  Uiso   1.00
C364   C     0.83805   0.48249   0.08297   0.00000  Uiso   1.00
C365   C     0.99467   0.50650   0.23374   0.00000  Uiso   1.00
C366   C     0.67410   0.49316   0.26194   0.00000  Uiso   1.00
C367   C     0.75537   0.53718   0.42247   0.00000  Uiso   1.00
C368   C     0.84769   0.65557   0.23803   0.00000  Uiso   1.00
C369   C     0.81814   0.34546   0.26211   0.00000  Uiso   1.00
C370   C     0.82259   0.38950   0.25888   0.00000  Uiso   1.00
C371   C     0.84356   0.61108   0.24131   0.00000  Uiso   1.00
C372   C     0.85517   0.47864   0.14399   0.00000  Uiso   1.00
C373   C     0.81074   0.52010   0.35641   0.00000  Uiso   1.00
C374   C     0.79565   0.52341   0.40010   0.00000  Uiso   1.00
C375   C     0.86563   0.46979   0.10123   0.00000  Uiso   1.00
C376   C     0.74322   0.53817   0.46350   0.00000  Uiso   1.00
C377   C     0.70975   0.53045   0.04879   0.00000  Uiso   1.00
C378   C     0.82188   0.51033   0.41969   0.00000  Uiso   1.00
C379   C     0.69240   0.52077   0.19638   0.00000  Uiso   1.00
C380   C     0.93439   0.43803   0.09641   0.00000  Uiso   1.00
C381   C     0.72353   0.54862   0.40477   0.00000  Uiso   1.00
C382   C     0.80814   0.50745   0.46074   0.00000  Uiso   1.00
C383   C     0.76787   0.52180   0.48296   0.00000  Uiso   1.00
C384   C     0.83364   0.49106   0.48012   0.00000  Uiso   1.00
C385   C     0.82016   0.49222   0.02199   0.00000  Uiso   1.00
C386   C     0.77956   0.50582   0.04293   0.00000  Uiso   1.00
C387   C     0.75319   0.51970   0.02412   0.00000  Uiso   1.00
H388   H     0.94248   0.43540   0.01936   0.00000  Uiso   1.00
H389   H     0.98421   0.48466   0.28942   0.00000  Uiso   1.00
H390   H     0.81067   0.49717   0.10218   0.00000  Uiso   1.00
H391   H     0.99386   0.42109   0.08833   0.00000  Uiso   1.00
H392   H     0.68272   0.58977   0.40541   0.00000  Uiso   1.00
H393   H     0.85334   0.50274   0.40185   0.00000  Uiso   1.00
H394   H     0.87501   0.33620   0.21586   0.00000  Uiso   1.00
H395   H     0.79042   0.66556   0.28432   0.00000  Uiso   1.00
H396   H     0.92627   0.44472   0.46048   0.00000  Uiso   1.00
H397   H     0.71332   0.55076   0.47990   0.00000  Uiso   1.00
H398   H     0.76616   0.50400   0.07418   0.00000  Uiso   1.00
H399   H     0.88271   0.46776   0.42722   0.00000  Uiso   1.00
H400   H     0.97871   0.52440   0.05607   0.00000  Uiso   1.00
H401   H     0.75230   0.54614   0.16805   0.00000  Uiso   1.00
O402   O     0.83333   0.50000   0.25000   0.00000  Uiso   1.00
O403   O     0.82360   0.45726   0.16625   0.00000  Uiso   1.00
O404   O     0.79354   0.53979   0.33749   0.00000  Uiso   1.00
O405   O     0.87755   0.50826   0.15877   0.00000  Uiso   1.00
O406   O     0.83865   0.49468   0.33749   0.00000  Uiso   1.00
O407   O     0.70604   0.55137   0.08066   0.00000  Uiso   1.00
O408   O     0.67293   0.51517   0.03653   0.00000  Uiso   1.00
O409   O     0.68062   0.51764   0.16659   0.00000  Uiso   1.00
O410   O     0.73472   0.53806   0.19515   0.00000  Uiso   1.00
O411   O     0.92337   0.43214   0.13125   0.00000  Uiso   1.00
O412   O     0.97602   0.43055   0.07297   0.00000  Uiso   1.00
O413   O     0.84515   0.41434   0.27821   0.00000  Uiso   1.00
O414   O     0.71210   0.52474   0.37916   0.00000  Uiso   1.00
O415   O     0.70460   0.58569   0.41920   0.00000  Uiso   1.00
O416   O     0.81247   0.59469   0.26767   0.00000  Uiso   1.00
O417   O     0.74119   0.46584   0.23607   0.00000  Uiso   1.00
O418   O     0.93452   0.52512   0.21806   0.00000  Uiso   1.00
O419   O     0.73656   0.52293   0.27820   0.00000  Uiso   1.00
O420   O     0.92106   0.48610   0.26768   0.00000  Uiso   1.00
O421   O     0.80467   0.40236   0.23607   0.00000  Uiso   1.00
O422   O     0.87104   0.58860   0.21806   0.00000  Uiso   1.00
Zn423  Zn    0.85910   0.47423   0.28278   0.00000  Uiso   1.00
Zn424  Zn    0.80125   0.45711   0.22258   0.00000  Uiso   1.00
Zn425  Zn    0.87833   0.52997   0.21188   0.00000  Uiso   1.00
Zn426  Zn    0.79465   0.53868   0.28277   0.00000  Uiso   1.00
C427   C     0.05235   0.82643   0.25938   0.00000  Uiso   1.00
C428   C     0.20511   0.80598   0.45890   0.00000  Uiso   1.00
C429   C     0.23052   0.79166   0.47803   0.00000  Uiso   1.00
C430   C     0.28131   0.83949   0.24028   0.00000  Uiso   1.00
C431   C     0.21925   0.79514   0.01898   0.00000  Uiso   1.00
C432   C     0.18063   0.81201   0.04158   0.00000  Uiso   1.00
C433   C     0.24666   0.78191   0.03738   0.00000  Uiso   1.00
C434   C     0.23715   0.78573   0.07852   0.00000  Uiso   1.00
C435   C     0.17138   0.81582   0.08297   0.00000  Uiso   1.00
C436   C     0.32800   0.83983   0.23374   0.00000  Uiso   1.00
C437   C     0.00743   0.82650   0.26194   0.00000  Uiso   1.00
C438   C     0.08870   0.87052   0.42247   0.00000  Uiso   1.00
C439   C     0.18102   0.98890   0.23803   0.00000  Uiso   1.00
C440   C     0.15148   0.67879   0.26211   0.00000  Uiso   1.00
C441   C     0.15592   0.72283   0.25888   0.00000  Uiso   1.00
C442   C     0.17689   0.94441   0.24131   0.00000  Uiso   1.00
C443   C     0.18851   0.81197   0.14399   0.00000  Uiso   1.00
C444   C     0.14407   0.85343   0.35641   0.00000  Uiso   1.00
C445   C     0.12899   0.85675   0.40010   0.00000  Uiso   1.00
C446   C     0.19897   0.80312   0.10123   0.00000  Uiso   1.00
C447   C     0.07655   0.87150   0.46350   0.00000  Uiso   1.00
C448   C     0.04309   0.86378   0.04879   0.00000  Uiso   1.00
C449   C     0.15522   0.84366   0.41969   0.00000  Uiso   1.00
C450   C     0.02574   0.85411   0.19638   0.00000  Uiso   1.00
C451   C     0.26773   0.77136   0.09641   0.00000  Uiso   1.00
C452   C     0.05686   0.88195   0.40477   0.00000  Uiso   1.00
C453   C     0.14147   0.84078   0.46074   0.00000  Uiso   1.00
C454   C     0.10121   0.85513   0.48296   0.00000  Uiso   1.00
C455   C     0.16698   0.82440   0.48012   0.00000  Uiso   1.00
C456   C     0.15349   0.82555   0.02199   0.00000  Uiso   1.00
C457   C     0.11290   0.83916   0.04293   0.00000  Uiso   1.00
C458   C     0.08653   0.85304   0.02412   0.00000  Uiso   1.00
H459   H     0.27581   0.76873   0.01936   0.00000  Uiso   1.00
H460   H     0.31754   0.81799   0.28942   0.00000  Uiso   1.00
H461   H     0.14401   0.83050   0.10218   0.00000  Uiso   1.00
H462   H     0.32719   0.75442   0.08833   0.00000  Uiso   1.00
H463   H     0.01605   0.92311   0.40541   0.00000  Uiso   1.00
H464   H     0.18667   0.83607   0.40185   0.00000  Uiso   1.00
H465   H     0.20835   0.66954   0.21586   0.00000  Uiso   1.00
H466   H     0.12375   0.99889   0.28432   0.00000  Uiso   1.00
H467   H     0.25960   0.77806   0.46048   0.00000  Uiso   1.00
H468   H     0.04665   0.88409   0.47990   0.00000  Uiso   1.00
H469   H     0.09950   0.83733   0.07418   0.00000  Uiso   1.00
H470   H     0.21604   0.80109   0.42722   0.00000  Uiso   1.00
H471   H     0.31204   0.85773   0.05607   0.00000  Uiso   1.00
H472   H     0.08564   0.87947   0.16805   0.00000  Uiso   1.00
O473   O     0.16667   0.83333   0.25000   0.00000  Uiso   1.00
O474   O     0.15693   0.79060   0.16625   0.00000  Uiso   1.00
O475   O     0.12687   0.87313   0.33749   0.00000  Uiso   1.00
O476   O     0.21088   0.84159   0.15877   0.00000  Uiso   1.00
O477   O     0.17198   0.82802   0.33749   0.00000  Uiso   1.00
O478   O     0.03938   0.88470   0.08066   0.00000  Uiso   1.00
O479   O     0.00626   0.84850   0.03653   0.00000  Uiso   1.00
O480   O     0.01395   0.85098   0.16659   0.00000  Uiso   1.00
O481   O     0.06805   0.87139   0.19515   0.00000  Uiso   1.00
O482   O     0.25670   0.76547   0.13125   0.00000  Uiso   1.00
O483   O     0.30936   0.76389   0.07297   0.00000  Uiso   1.00
O484   O     0.17849   0.74768   0.27821   0.00000  Uiso   1.00
O485   O     0.04544   0.85807   0.37916   0.00000  Uiso   1.00
O486   O     0.03793   0.91902   0.41920   0.00000  Uiso   1.00
O487   O     0.14581   0.92803   0.26767   0.00000  Uiso   1.00
O488   O     0.07452   0.79917   0.23607   0.00000  Uiso   1.00
O489   O     0.26785   0.85845   0.21806   0.00000  Uiso   1.00
O490   O     0.06990   0.85627   0.27820   0.00000  Uiso   1.00
O491   O     0.25440   0.81944   0.26768   0.00000  Uiso   1.00
O492   O     0.13800   0.73570   0.23607   0.00000  Uiso   1.00
O493   O     0.20437   0.92193   0.21806   0.00000  Uiso   1.00
Zn494  Zn    0.19244   0.80756   0.28278   0.00000  Uiso   1.00
Zn495  Zn    0.13459   0.79044   0.22258   0.00000  Uiso   1.00
Zn496  Zn    0.21166   0.86331   0.21188   0.00000  Uiso   1.00
Zn497  Zn    0.12798   0.87202   0.28277   0.00000  Uiso   1.00
C498   C     0.38568   0.82643   0.25938   0.00000  Uiso   1.00
C499   C     0.53845   0.80598   0.45890   0.00000  Uiso   1.00
C500   C     0.56386   0.79166   0.47803   0.00000  Uiso   1.00
C501   C     0.61464   0.83949   0.24028   0.00000  Uiso   1.00
C502   C     0.55258   0.79514   0.01898   0.00000  Uiso   1.00
C503   C     0.51397   0.81201   0.04158   0.00000  Uiso   1.00
C504   C     0.58000   0.78191   0.03738   0.00000  Uiso   1.00
C505   C     0.57048   0.78573   0.07852   0.00000  Uiso   1.00
C506   C     0.50471   0.81582   0.08297   0.00000  Uiso   1.00
C507   C     0.66134   0.83983   0.23374   0.00000  Uiso   1.00
C508   C     0.34076   0.82650   0.26194   0.00000  Uiso   1.00
C509   C     0.42204   0.87052   0.42247   0.00000  Uiso   1.00
C510   C     0.51435   0.98890   0.23803   0.00000  Uiso   1.00
C511   C     0.48481   0.67879   0.26211   0.00000  Uiso   1.00
C512   C     0.48926   0.72283   0.25888   0.00000  Uiso   1.00
C513   C     0.51023   0.94441   0.24131   0.00000  Uiso   1.00
C514   C     0.52184   0.81197   0.14399   0.00000  Uiso   1.00
C515   C     0.47741   0.85343   0.35641   0.00000  Uiso   1.00
C516   C     0.46232   0.85675   0.40010   0.00000  Uiso   1.00
C517   C     0.53230   0.80312   0.10123   0.00000  Uiso   1.00
C518   C     0.40988   0.87150   0.46350   0.00000  Uiso   1.00
C519   C     0.37642   0.86378   0.04879   0.00000  Uiso   1.00
C520   C     0.48855   0.84366   0.41969   0.00000  Uiso   1.00
C521   C     0.35907   0.85411   0.19638   0.00000  Uiso   1.00
C522   C     0.60106   0.77136   0.09641   0.00000  Uiso   1.00
C523   C     0.39019   0.88195   0.40477   0.00000  Uiso   1.00
C524   C     0.47481   0.84078   0.46074   0.00000  Uiso   1.00
C525   C     0.43454   0.85513   0.48296   0.00000  Uiso   1.00
C526   C     0.50031   0.82440   0.48012   0.00000  Uiso   1.00
C527   C     0.48682   0.82555   0.02199   0.00000  Uiso   1.00
C528   C     0.44623   0.83916   0.04293   0.00000  Uiso   1.00
C529   C     0.41986   0.85304   0.02412   0.00000  Uiso   1.00
H530   H     0.60915   0.76873   0.01936   0.00000  Uiso   1.00
H531   H     0.65088   0.81799   0.28942   0.00000  Uiso   1.00
H532   H     0.47734   0.83050   0.10218   0.00000  Uiso   1.00
H533   H     0.66052   0.75442   0.08833   0.00000  Uiso   1.00
H534   H     0.34939   0.92311   0.40541   0.00000  Uiso   1.00
H535   H     0.52000   0.83607   0.40185   0.00000  Uiso   1.00
H536   H     0.54168   0.66954   0.21586   0.00000  Uiso   1.00
H537   H     0.45708   0.99889   0.28432   0.00000  Uiso   1.00
H538   H     0.59294   0.77806   0.46048   0.00000  Uiso   1.00
H539   H     0.37998   0.88409   0.47990   0.00000  Uiso   1.00
H540   H     0.43283   0.83733   0.07418   0.00000  Uiso   1.00
H541   H     0.54937   0.80109   0.42722   0.00000  Uiso   1.00
H542   H     0.64537   0.85773   0.05607   0.00000  Uiso   1.00
H543   H     0.41897   0.87947   0.16805   0.00000  Uiso   1.00
O544   O     0.50000   0.83333   0.25000   0.00000  Uiso   1.00
O545   O     0.49027   0.79060   0.16625   0.00000  Uiso   1.00
O546   O     0.46020   0.87313   0.33749   0.00000  Uiso   1.00
O547   O     0.54421   0.84159   0.15877   0.00000  Uiso   1.00
O548   O     0.50532   0.82802   0.33749   0.00000  Uiso   1.00
O549   O     0.37271   0.88470   0.08066   0.00000  Uiso   1.00
O550   O     0.33959   0.84850   0.03653   0.00000  Uiso   1.00
O551   O     0.34729   0.85098   0.16659   0.00000  Uiso   1.00
O552   O     0.40139   0.87139   0.19515   0.00000  Uiso   1.00
O553   O     0.59004   0.76547   0.13125   0.00000  Uiso   1.00
O554   O     0.64269   0.76389   0.07297   0.00000  Uiso   1.00
O555   O     0.51182   0.74768   0.27821   0.00000  Uiso   1.00
O556   O     0.37877   0.85807   0.37916   0.00000  Uiso   1.00
O557   O     0.37126   0.91902   0.41920   0.00000  Uiso   1.00
O558   O     0.47914   0.92803   0.26767   0.00000  Uiso   1.00
O559   O     0.40785   0.79917   0.23607   0.00000  Uiso   1.00
O560   O     0.60119   0.85845   0.21806   0.00000  Uiso   1.00
O561   O     0.40323   0.85627   0.27820   0.00000  Uiso   1.00
O562   O     0.58773   0.81944   0.26768   0.00000  Uiso   1.00
O563   O     0.47133   0.73570   0.23607   0.00000  Uiso   1.00
O564   O     0.53771   0.92193   0.21806   0.00000  Uiso   1.00
Zn565  Zn    0.52577   0.80756   0.28278   0.00000  Uiso   1.00
Zn566  Zn    0.46792   0.79044   0.22258   0.00000  Uiso   1.00
Zn567  Zn    0.54500   0.86331   0.21188   0.00000  Uiso   1.00
Zn568  Zn    0.46131   0.87202   0.28277   0.00000  Uiso   1.00
C569   C     0.71901   0.82643   0.25938   0.00000  Uiso   1.00
C570   C     0.87178   0.80598   0.45890   0.00000  Uiso   1.00
C571   C     0.89719   0.79166   0.47803   0.00000  Uiso   1.00
C572   C     0.94797   0.83949   0.24028   0.00000  Uiso   1.00
C573   C     0.88591   0.79514   0.01898   0.00000  Uiso   1.00
C574   C     0.84730   0.81201   0.04158   0.00000  Uiso   1.00
C575   C     0.91333   0.78191   0.03738   0.00000  Uiso   1.00
C576   C     0.90382   0.78573   0.07852   0.00000  Uiso   1.00
C577   C     0.83805   0.81582   0.08297   0.00000  Uiso   1.00
C578   C     0.99467   0.83983   0.23374   0.00000  Uiso   1.00
C579   C     0.67410   0.82650   0.26194   0.00000  Uiso   1.00
C580   C     0.75537   0.87052   0.42247   0.00000  Uiso   1.00
C581   C     0.84769   0.98890   0.23803   0.00000  Uiso   1.00
C582   C     0.81814   0.67879   0.26211   0.00000  Uiso   1.00
C583   C     0.82259   0.72283   0.25888   0.00000  Uiso   1.00
C584   C     0.84356   0.94441   0.24131   0.00000  Uiso   1.00
C585   C     0.85517   0.81197   0.14399   0.00000  Uiso   1.00
C586   C     0.81074   0.85343   0.35641   0.00000  Uiso   1.00
C587   C     0.79565   0.85675   0.40010   0.00000  Uiso   1.00
C588   C     0.86563   0.80312   0.10123   0.00000  Uiso   1.00
C589   C     0.74322   0.87150   0.46350   0.00000  Uiso   1.00
C590   C     0.70975   0.86378   0.04879   0.00000  Uiso   1.00
C591   C     0.82188   0.84366   0.41969   0.00000  Uiso   1.00
C592   C     0.69240   0.85411   0.19638   0.00000  Uiso   1.00
C593   C     0.93439   0.77136   0.09641   0.00000  Uiso   1.00
C594   C     0.72353   0.88195   0.40477   0.00000  Uiso   1.00
C595   C     0.80814   0.84078   0.46074   0.00000  Uiso   1.00
C596   C     0.76787   0.85513   0.48296   0.00000  Uiso   1.00
C597   C     0.83364   0.82440   0.48012   0.00000  Uiso   1.00
C598   C     0.82016   0.82555   0.02199   0.00000  Uiso   1.00
C599   C     0.77956   0.83916   0.04293   0.00000  Uiso   1.00
C600   C     0.75319   0.85304   0.02412   0.00000  Uiso   1.00
H601   H     0.94248   0.76873   0.01936   0.00000  Uiso   1.00
H602   H     0.98421   0.81799   0.28942   0.00000  Uiso   1.00
H603   H     0.81067   0.83050   0.10218   0.00000  Uiso   1.00
H604   H     0.99386   0.75442   0.08833   0.00000  Uiso   1.00
H605   H     0.68272   0.92311   0.40541   0.00000  Uiso   1.00
H606   H     0.85334   0.83607   0.40185   0.00000  Uiso   1.00
H607   H     0.87501   0.66954   0.21586   0.00000  Uiso   1.00
H608   H     0.79042   0.99889   0.28432   0.00000  Uiso   1.00
H609   H     0.92627   0.77806   0.46048   0.00000  Uiso   1.00
H610   H     0.71332   0.88409   0.47990   0.00000  Uiso   1.00
H611   H     0.76616   0.83733   0.07418   0.00000  Uiso   1.00
H612   H     0.88271   0.80109   0.42722   0.00000  Uiso   1.00
H613   H     0.97871   0.85773   0.05607   0.00000  Uiso   1.00
H614   H     0.75230   0.87947   0.16805   0.00000  Uiso   1.00
O615   O     0.83333   0.83333   0.25000   0.00000  Uiso   1.00
O616   O     0.82360   0.79060   0.16625   0.00000  Uiso   1.00
O617   O     0.79354   0.87313   0.33749   0.00000  Uiso   1.00
O618   O     0.87755   0.84159   0.15877   0.00000  Uiso   1.00
O619   O     0.83865   0.82802   0.33749   0.00000  Uiso   1.00
O620   O     0.70604   0.88470   0.08066   0.00000  Uiso   1.00
O621   O     0.67293   0.84850   0.03653   0.00000  Uiso   1.00
O622   O     0.68062   0.85098   0.16659   0.00000  Uiso   1.00
O623   O     0.73472   0.87139   0.19515   0.00000  Uiso   1.00
O624   O     0.92337   0.76547   0.13125   0.00000  Uiso   1.00
O625   O     0.97602   0.76389   0.07297   0.00000  Uiso   1.00
O626   O     0.84515   0.74768   0.27821   0.00000  Uiso   1.00
O627   O     0.71210   0.85807   0.37916   0.00000  Uiso   1.00
O628   O     0.70460   0.91902   0.41920   0.00000  Uiso   1.00
O629   O     0.81247   0.92803   0.26767   0.00000  Uiso   1.00
O630   O     0.74119   0.79917   0.23607   0.00000  Uiso   1.00
O631   O     0.93452   0.85845   0.21806   0.00000  Uiso   1.00
O632   O     0.73656   0.85627   0.27820   0.00000  Uiso   1.00
O633   O     0.92106   0.81944   0.26768   0.00000  Uiso   1.00
O634   O     0.80467   0.73570   0.23607   0.00000  Uiso   1.00
O635   O     0.87104   0.92193   0.21806   0.00000  Uiso   1.00
Zn636  Zn    0.85910   0.80756   0.28278   0.00000  Uiso   1.00
Zn637  Zn    0.80125   0.79044   0.22258   0.00000  Uiso   1.00
Zn638  Zn    0.87833   0.86331   0.21188   0.00000  Uiso   1.00
Zn639  Zn    0.79465   0.87202   0.28277   0.00000  Uiso   1.00
C640   C     0.05235   0.15976   0.75938   0.00000  Uiso   1.00
C641   C     0.20511   0.13932   0.95890   0.00000  Uiso   1.00
C642   C     0.23052   0.12500   0.97803   0.00000  Uiso   1.00
C643   C     0.28131   0.17282   0.74028   0.00000  Uiso   1.00
C644   C     0.21925   0.12847   0.51898   0.00000  Uiso   1.00
C645   C     0.18063   0.14535   0.54158   0.00000  Uiso   1.00
C646   C     0.24666   0.11524   0.53738   0.00000  Uiso   1.00
C647   C     0.23715   0.11906   0.57852   0.00000  Uiso   1.00
C648   C     0.17138   0.14915   0.58297   0.00000  Uiso   1.00
C649   C     0.32800   0.17317   0.73374   0.00000  Uiso   1.00
C650   C     0.00743   0.15983   0.76194   0.00000  Uiso   1.00
C651   C     0.08870   0.20385   0.92247   0.00000  Uiso   1.00
C652   C     0.18102   0.32223   0.73803   0.00000  Uiso   1.00
C653   C     0.15148   0.01212   0.76211   0.00000  Uiso   1.00
C654   C     0.15592   0.05617   0.75888   0.00000  Uiso   1.00
C655   C     0.17689   0.27774   0.74131   0.00000  Uiso   1.00
C656   C     0.18851   0.14530   0.64399   0.00000  Uiso   1.00
C657   C     0.14407   0.18676   0.85641   0.00000  Uiso   1.00
C658   C     0.12899   0.19008   0.90010   0.00000  Uiso   1.00
C659   C     0.19897   0.13646   0.60123   0.00000  Uiso   1.00
C660   C     0.07655   0.20484   0.96350   0.00000  Uiso   1.00
C661   C     0.04309   0.19712   0.54879   0.00000  Uiso   1.00
C662   C     0.15522   0.17700   0.91969   0.00000  Uiso   1.00
C663   C     0.02574   0.18744   0.69638   0.00000  Uiso   1.00
C664   C     0.26773   0.10470   0.59641   0.00000  Uiso   1.00
C665   C     0.05686   0.21528   0.90477   0.00000  Uiso   1.00
C666   C     0.14147   0.17412   0.96074   0.00000  Uiso   1.00
C667   C     0.10121   0.18847   0.98296   0.00000  Uiso   1.00
C668   C     0.16698   0.15773   0.98012   0.00000  Uiso   1.00
C669   C     0.15349   0.15889   0.52199   0.00000  Uiso   1.00
C670   C     0.11290   0.17249   0.54293   0.00000  Uiso   1.00
C671   C     0.08653   0.18637   0.52412   0.00000  Uiso   1.00
H672   H     0.27581   0.10207   0.51936   0.00000  Uiso   1.00
H673   H     0.31754   0.15133   0.78942   0.00000  Uiso   1.00
H674   H     0.14401   0.16384   0.60218   0.00000  Uiso   1.00
H675   H     0.32719   0.08776   0.58833   0.00000  Uiso   1.00
H676   H     0.01605   0.25644   0.90541   0.00000  Uiso   1.00
H677   H     0.18667   0.16940   0.90185   0.00000  Uiso   1.00
H678   H     0.20835   0.00287   0.71586   0.00000  Uiso   1.00
H679   H     0.12375   0.33222   0.78432   0.00000  Uiso   1.00
H680   H     0.25960   0.11139   0.96048   0.00000  Uiso   1.00
H681   H     0.04665   0.21742   0.97990   0.00000  Uiso   1.00
H682   H     0.09950   0.17066   0.57418   0.00000  Uiso   1.00
H683   H     0.21604   0.13443   0.92722   0.00000  Uiso   1.00
H684   H     0.31204   0.19107   0.55607   0.00000  Uiso   1.00
H685   H     0.08564   0.21280   0.66805   0.00000  Uiso   1.00
O686   O     0.16667   0.16667   0.75000   0.00000  Uiso   1.00
O687   O     0.15693   0.12393   0.66625   0.00000  Uiso   1.00
O688   O     0.12687   0.20646   0.83749   0.00000  Uiso   1.00
O689   O     0.21088   0.17493   0.65877   0.00000  Uiso   1.00
O690   O     0.17198   0.16135   0.83749   0.00000  Uiso   1.00
O691   O     0.03938   0.21803   0.58066   0.00000  Uiso   1.00
O692   O     0.00626   0.18183   0.53653   0.00000  Uiso   1.00
O693   O     0.01395   0.18431   0.66659   0.00000  Uiso   1.00
O694   O     0.06805   0.20472   0.69515   0.00000  Uiso   1.00
O695   O     0.25670   0.09881   0.63125   0.00000  Uiso   1.00
O696   O     0.30936   0.09722   0.57297   0.00000  Uiso   1.00
O697   O     0.17849   0.08101   0.77821   0.00000  Uiso   1.00
O698   O     0.04544   0.19141   0.87916   0.00000  Uiso   1.00
O699   O     0.03793   0.25235   0.91920   0.00000  Uiso   1.00
O700   O     0.14581   0.26136   0.76767   0.00000  Uiso   1.00
O701   O     0.07452   0.13251   0.73607   0.00000  Uiso   1.00
O702   O     0.26785   0.19179   0.71806   0.00000  Uiso   1.00
O703   O     0.06990   0.18960   0.77820   0.00000  Uiso   1.00
O704   O     0.25440   0.15277   0.76768   0.00000  Uiso   1.00
O705   O     0.13800   0.06903   0.73607   0.00000  Uiso   1.00
O706   O     0.20437   0.25527   0.71806   0.00000  Uiso   1.00
Zn707  Zn    0.19244   0.14090   0.78278   0.00000  Uiso   1.00
Zn708  Zn    0.13459   0.12378   0.72258   0.00000  Uiso   1.00
Zn709  Zn    0.21166   0.19664   0.71188   0.00000  Uiso   1.00
Zn710  Zn    0.12798   0.20535   0.78277   0.00000  Uiso   1.00
C711   C     0.38568   0.15976   0.75938   0.00000  Uiso   1.00
C712   C     0.53845   0.13932   0.95890   0.00000  Uiso   1.00
C713   C     0.56386   0.12500   0.97803   0.00000  Uiso   1.00
C714   C     0.61464   0.17282   0.74028   0.00000  Uiso   1.00
C715   C     0.55258   0.12847   0.51898   0.00000  Uiso   1.00
C716   C     0.51397   0.14535   0.54158   0.00000  Uiso   1.00
C717   C     0.58000   0.11524   0.53738   0.00000  Uiso   1.00
C718   C     0.57048   0.11906   0.57852   0.00000  Uiso   1.00
C719   C     0.50471   0.14915   0.58297   0.00000  Uiso   1.00
C720   C     0.66134   0.17317   0.73374   0.00000  Uiso   1.00
C721   C     0.34076   0.15983   0.76194   0.00000  Uiso   1.00
C722   C     0.42204   0.20385   0.92247   0.00000  Uiso   1.00
C723   C     0.51435   0.32223   0.73803   0.00000  Uiso   1.00
C724   C     0.48481   0.01212   0.76211   0.00000  Uiso   1.00
C725   C     0.48926   0.05617   0.75888   0.00000  Uiso   1.00
C726   C     0.51023   0.27774   0.74131   0.00000  Uiso   1.00
C727   C     0.52184   0.14530   0.64399   0.00000  Uiso   1.00
C728   C     0.47741   0.18676   0.85641   0.00000  Uiso   1.00
C729   C     0.46232   0.19008   0.90010   0.00000  Uiso   1.00
C730   C     0.53230   0.13646   0.60123   0.00000  Uiso   1.00
C731   C     0.40988   0.20484   0.96350   0.00000  Uiso   1.00
C732   C     0.37642   0.19712   0.54879   0.00000  Uiso   1.00
C733   C     0.48855   0.17700   0.91969   0.00000  Uiso   1.00
C734   C     0.35907   0.18744   0.69638   0.00000  Uiso   1.00
C735   C     0.60106   0.10470   0.59641   0.00000  Uiso   1.00
C736   C     0.39019   0.21528   0.90477   0.00000  Uiso   1.00
C737   C     0.47481   0.17412   0.96074   0.00000  Uiso   1.00
C738   C     0.43454   0.18847   0.98296   0.00000  Uiso   1.00
C739   C     0.50031   0.15773   0.98012   0.00000  Uiso   1.00
C740   C     0.48682   0.15889   0.52199   0.00000  Uiso   1.00
C741   C     0.44623   0.17249   0.54293   0.00000  Uiso   1.00
C742   C     0.41986   0.18637   0.52412   0.00000  Uiso   1.00
H743   H     0.60915   0.10207   0.51936   0.00000  Uiso   1.00
H744   H     0.65088   0.15133   0.78942   0.00000  Uiso   1.00
H745   H     0.47734   0.16384   0.60218   0.00000  Uiso   1.00
H746   H     0.66052   0.08776   0.58833   0.00000  Uiso   1.00
H747   H     0.34939   0.25644   0.90541   0.00000  Uiso   1.00
H748   H     0.52000   0.16940   0.90185   0.00000  Uiso   1.00
H749   H     0.54168   0.00287   0.71586   0.00000  Uiso   1.00
H750   H     0.45708   0.33222   0.78432   0.00000  Uiso   1.00
H751   H     0.59294   0.11139   0.96048   0.00000  Uiso   1.00
H752   H     0.37998   0.21742   0.97990   0.00000  Uiso   1.00
H753   H     0.43283   0.17066   0.57418   0.00000  Uiso   1.00
H754   H     0.54937   0.13443   0.92722   0.00000  Uiso   1.00
H755   H     0.64537   0.19107   0.55607   0.00000  Uiso   1.00
H756   H     0.41897   0.21280   0.66805   0.00000  Uiso   1.00
O757   O     0.50000   0.16667   0.75000   0.00000  Uiso   1.00
O758   O     0.49027   0.12393   0.66625   0.00000  Uiso   1.00
O759   O     0.46020   0.20646   0.83749   0.00000  Uiso   1.00
O760   O     0.54421   0.17493   0.65877   0.00000  Uiso   1.00
O761   O     0.50532   0.16135   0.83749   0.00000  Uiso   1.00
O762   O     0.37271   0.21803   0.58066   0.00000  Uiso   1.00
O763   O     0.33959   0.18183   0.53653   0.00000  Uiso   1.00
O764   O     0.34729   0.18431   0.66659   0.00000  Uiso   1.00
O765   O     0.40139   0.20472   0.69515   0.00000  Uiso   1.00
O766   O     0.59004   0.09881   0.63125   0.00000  Uiso   1.00
O767   O     0.64269   0.09722   0.57297   0.00000  Uiso   1.00
O768   O     0.51182   0.08101   0.77821   0.00000  Uiso   1.00
O769   O     0.37877   0.19141   0.87916   0.00000  Uiso   1.00
O770   O     0.37126   0.25235   0.91920   0.00000  Uiso   1.00
O771   O     0.47914   0.26136   0.76767   0.00000  Uiso   1.00
O772   O     0.40785   0.13251   0.73607   0.00000  Uiso   1.00
O773   O     0.60119   0.19179   0.71806   0.00000  Uiso   1.00
O774   O     0.40323   0.18960   0.77820   0.00000  Uiso   1.00
O775   O     0.58773   0.15277   0.76768   0.00000  Uiso   1.00
O776   O     0.47133   0.06903   0.73607   0.00000  Uiso   1.00
O777   O     0.53771   0.25527   0.71806   0.00000  Uiso   1.00
Zn778  Zn    0.52577   0.14090   0.78278   0.00000  Uiso   1.00
Zn779  Zn    0.46792   0.12378   0.72258   0.00000  Uiso   1.00
Zn780  Zn    0.54500   0.19664   0.71188   0.00000  Uiso   1.00
Zn781  Zn    0.46131   0.20535   0.78277   0.00000  Uiso   1.00
C782   C     0.71901   0.15976   0.75938   0.00000  Uiso   1.00
C783   C     0.87178   0.13932   0.95890   0.00000  Uiso   1.00
C784   C     0.89719   0.12500   0.97803   0.00000  Uiso   1.00
C785   C     0.94797   0.17282   0.74028   0.00000  Uiso   1.00
C786   C     0.88591   0.12847   0.51898   0.00000  Uiso   1.00
C787   C     0.84730   0.14535   0.54158   0.00000  Uiso   1.00
C788   C     0.91333   0.11524   0.53738   0.00000  Uiso   1.00
C789   C     0.90382   0.11906   0.57852   0.00000  Uiso   1.00
C790   C     0.83805   0.14915   0.58297   0.00000  Uiso   1.00
C791   C     0.99467   0.17317   0.73374   0.00000  Uiso   1.00
C792   C     0.67410   0.15983   0.76194   0.00000  Uiso   1.00
C793   C     0.75537   0.20385   0.92247   0.00000  Uiso   1.00
C794   C     0.84769   0.32223   0.73803   0.00000  Uiso   1.00
C795   C     0.81814   0.01212   0.76211   0.00000  Uiso   1.00
C796   C     0.82259   0.05617   0.75888   0.00000  Uiso   1.00
C797   C     0.84356   0.27774   0.74131   0.00000  Uiso   1.00
C798   C     0.85517   0.14530   0.64399   0.00000  Uiso   1.00
C799   C     0.81074   0.18676   0.85641   0.00000  Uiso   1.00
C800   C     0.79565   0.19008   0.90010   0.00000  Uiso   1.00
C801   C     0.86563   0.13646   0.60123   0.00000  Uiso   1.00
C802   C     0.74322   0.20484   0.96350   0.00000  Uiso   1.00
C803   C     0.70975   0.19712   0.54879   0.00000  Uiso   1.00
C804   C     0.82188   0.17700   0.91969   0.00000  Uiso   1.00
C805   C     0.69240   0.18744   0.69638   0.00000  Uiso   1.00
C806   C     0.93439   0.10470   0.59641   0.00000  Uiso   1.00
C807   C     0.72353   0.21528   0.90477   0.00000  Uiso   1.00
C808   C     0.80814   0.17412   0.96074   0.00000  Uiso   1.00
C809   C     0.76787   0.18847   0.98296   0.00000  Uiso   1.00
C810   C     0.83364   0.15773   0.98012   0.00000  Uiso   1.00
C811   C     0.82016   0.15889   0.52199   0.00000  Uiso   1.00
C812   C     0.77956   0.17249   0.54293   0.00000  Uiso   1.00
C813   C     0.75319   0.18637   0.52412   0.00000  Uiso   1.00
H814   H     0.94248   0.10207   0.51936   0.00000  Uiso   1.00
H815   H     0.98421   0.15133   0.78942   0.00000  Uiso   1.00
H816   H     0.81067   0.16384   0.60218   0.00000  Uiso   1.00
H817   H     0.99386   0.08776   0.58833   0.00000  Uiso   1.00
H818   H     0.68272   0.25644   0.90541   0.00000  Uiso   1.00
H819   H     0.85334   0.16940   0.90185   0.00000  Uiso   1.00
H820   H     0.87501   0.00287   0.71586   0.00000  Uiso   1.00
H821   H     0.79042   0.33222   0.78432   0.00000  Uiso   1.00
H822   H     0.92627   0.11139   0.96048   0.00000  Uiso   1.00
H823   H     0.71332   0.21742   0.97990   0.00000  Uiso   1.00
H824   H     0.76616   0.17066   0.57418   0.00000  Uiso   1.00
H825   H     0.88271   0.13443   0.92722   0.00000  Uiso   1.00
H826   H     0.97871   0.19107   0.55607   0.00000  Uiso   1.00
H827   H     0.75230   0.21280   0.66805   0.00000  Uiso   1.00
O828   O     0.83333   0.16667   0.75000   0.00000  Uiso   1.00
O829   O     0.82360   0.12393   0.66625   0.00000  Uiso   1.00
O830   O     0.79354   0.20646   0.83749   0.00000  Uiso   1.00
O831   O     0.87755   0.17493   0.65877   0.00000  Uiso   1.00
O832   O     0.83865   0.16135   0.83749   0.00000  Uiso   1.00
O833   O     0.70604   0.21803   0.58066   0.00000  Uiso   1.00
O834   O     0.67293   0.18183   0.53653   0.00000  Uiso   1.00
O835   O     0.68062   0.18431   0.66659   0.00000  Uiso   1.00
O836   O     0.73472   0.20472   0.69515   0.00000  Uiso   1.00
O837   O     0.92337   0.09881   0.63125   0.00000  Uiso   1.00
O838   O     0.97602   0.09722   0.57297   0.00000  Uiso   1.00
O839   O     0.84515   0.08101   0.77821   0.00000  Uiso   1.00
O840   O     0.71210   0.19141   0.87916   0.00000  Uiso   1.00
O841   O     0.70460   0.25235   0.91920   0.00000  Uiso   1.00
O842   O     0.81247   0.26136   0.76767   0.00000  Uiso   1.00
O843   O     0.74119   0.13251   0.73607   0.00000  Uiso   1.00
O844   O     0.93452   0.19179   0.71806   0.00000  Uiso   1.00
O845   O     0.73656   0.18960   0.77820   0.00000  Uiso   1.00
O846   O     0.92106   0.15277   0.76768   0.00000  Uiso   1.00
O847   O     0.80467   0.06903   0.73607   0.00000  Uiso   1.00
O848   O     0.87104   0.25527   0.71806   0.00000  Uiso   1.00
Zn849  Zn    0.85910   0.14090   0.78278   0.00000  Uiso   1.00
Zn850  Zn    0.80125   0.12378   0.72258   0.00000  Uiso   1.00
Zn851  Zn    0.87833   0.19664   0.71188   0.00000  Uiso   1.00
Zn852  Zn    0.79465   0.20535   0.78277   0.00000  Uiso   1.00
C853   C     0.05235   0.49309   0.75938   0.00000  Uiso   1.00
C854   C     0.20511   0.47265   0.95890   0.00000  Uiso   1.00
C855   C     0.23052   0.45833   0.97803   0.00000  Uiso   1.00
C856   C     0.28131   0.50616   0.74028   0.00000  Uiso   1.00
C857   C     0.21925   0.46180   0.51898   0.00000  Uiso   1.00
C858   C     0.18063   0.47868   0.54158   0.00000  Uiso   1.00
C859   C     0.24666   0.44858   0.53738   0.00000  Uiso   1.00
C860   C     0.23715   0.45239   0.57852   0.00000  Uiso   1.00
C861   C     0.17138   0.48249   0.58297   0.00000  Uiso   1.00
C862   C     0.32800   0.50650   0.73374   0.00000  Uiso   1.00
C863   C     0.00743   0.49316   0.76194   0.00000  Uiso   1.00
C864   C     0.08870   0.53718   0.92247   0.00000  Uiso   1.00
C865   C     0.18102   0.65557   0.73803   0.00000  Uiso   1.00
C866   C     0.15148   0.34546   0.76211   0.00000  Uiso   1.00
C867   C     0.15592   0.38950   0.75888   0.00000  Uiso   1.00
C868   C     0.17689   0.61108   0.74131   0.00000  Uiso   1.00
C869   C     0.18851   0.47864   0.64399   0.00000  Uiso   1.00
C870   C     0.14407   0.52010   0.85641   0.00000  Uiso   1.00
C871   C     0.12899   0.52341   0.90010   0.00000  Uiso   1.00
C872   C     0.19897   0.46979   0.60123   0.00000  Uiso   1.00
C873   C     0.07655   0.53817   0.96350   0.00000  Uiso   1.00
C874   C     0.04309   0.53045   0.54879   0.00000  Uiso   1.00
C875   C     0.15522   0.51033   0.91969   0.00000  Uiso   1.00
C876   C     0.02574   0.52077   0.69638   0.00000  Uiso   1.00
C877   C     0.26773   0.43803   0.59641   0.00000  Uiso   1.00
C878   C     0.05686   0.54862   0.90477   0.00000  Uiso   1.00
C879   C     0.14147   0.50745   0.96074   0.00000  Uiso   1.00
C880   C     0.10121   0.52180   0.98296   0.00000  Uiso   1.00
C881   C     0.16698   0.49106   0.98012   0.00000  Uiso   1.00
C882   C     0.15349   0.49222   0.52199   0.00000  Uiso   1.00
C883   C     0.11290   0.50582   0.54293   0.00000  Uiso   1.00
C884   C     0.08653   0.51970   0.52412   0.00000  Uiso   1.00
H885   H     0.27581   0.43540   0.51936   0.00000  Uiso   1.00
H886   H     0.31754   0.48466   0.78942   0.00000  Uiso   1.00
H887   H     0.14401   0.49717   0.60218   0.00000  Uiso   1.00
H888   H     0.32719   0.42109   0.58833   0.00000  Uiso   1.00
H889   H     0.01605   0.58977   0.90541   0.00000  Uiso   1.00
H890   H     0.18667   0.50274   0.90185   0.00000  Uiso   1.00
H891   H     0.20835   0.33620   0.71586   0.00000  Uiso   1.00
H892   H     0.12375   0.66556   0.78432   0.00000  Uiso   1.00
H893   H     0.25960   0.44472   0.96048   0.00000  Uiso   1.00
H894   H     0.04665   0.55076   0.97990   0.00000  Uiso   1.00
H895   H     0.09950   0.50400   0.57418   0.00000  Uiso   1.00
H896   H     0.21604   0.46776   0.92722   0.00000  Uiso   1.00
H897   H     0.31204   0.52440   0.55607   0.00000  Uiso   1.00
H898   H     0.08564   0.54614   0.66805   0.00000  Uiso   1.00
O899   O     0.16667   0.50000   0.75000   0.00000  Uiso   1.00
O900   O     0.15693   0.45726   0.66625   0.00000  Uiso   1.00
O901   O     0.12687   0.53979   0.83749   0.00000  Uiso   1.00
O902   O     0.21088   0.50826   0.65877   0.00000  Uiso   1.00
O903   O     0.17198   0.49468   0.83749   0.00000  Uiso   1.00
O904   O     0.03938   0.55137   0.58066   0.00000  Uiso   1.00
O905   O     0.00626   0.51517   0.53653   0.00000  Uiso   1.00
O906   O     0.01395   0.51764   0.66659   0.00000  Uiso   1.00
O907   O     0.06805   0.53806   0.69515   0.00000  Uiso   1.00
O908   O     0.25670   0.43214   0.63125   0.00000  Uiso   1.00
O909   O     0.30936   0.43055   0.57297   0.00000  Uiso   1.00
O910   O     0.17849   0.41434   0.77821   0.00000  Uiso   1.00
O911   O     0.04544   0.52474   0.87916   0.00000  Uiso   1.00
O912   O     0.03793   0.58569   0.91920   0.00000  Uiso   1.00
O913   O     0.14581   0.59469   0.76767   0.00000  Uiso   1.00
O914   O     0.07452   0.46584   0.73607   0.00000  Uiso   1.00
O915   O     0.26785   0.52512   0.71806   0.00000  Uiso   1.00
O916   O     0.06990   0.52293   0.77820   0.00000  Uiso   1.00
O917   O     0.25440   0.48610   0.76768   0.00000  Uiso   1.00
O918   O     0.13800   0.40236   0.73607   0.00000  Uiso   1.00
O919   O     0.20437   0.58860   0.71806   0.00000  Uiso   1.00
Zn920  Zn    0.19244   0.47423   0.78278   0.00000  Uiso   1.00
Zn921  Zn    0.13459   0.45711   0.72258   0.00000  Uiso   1.00
Zn922  Zn    0.21166   0.52997   0.71188   0.00000  Uiso   1.00
Zn923  Zn    0.12798   0.53868   0.78277   0.00000  Uiso   1.00
C924   C     0.38568   0.49309   0.75938   0.00000  Uiso   1.00
C925   C     0.53845   0.47265   0.95890   0.00000  Uiso   1.00
C926   C     0.56386   0.45833   0.97803   0.00000  Uiso   1.00
C927   C     0.61464   0.50616   0.74028   0.00000  Uiso   1.00
C928   C     0.55258   0.46180   0.51898   0.00000  Uiso   1.00
C929   C     0.51397   0.47868   0.54158   0.00000  Uiso   1.00
C930   C     0.58000   0.44858   0.53738   0.00000  Uiso   1.00
C931   C     0.57048   0.45239   0.57852   0.00000  Uiso   1.00
C932   C     0.50471   0.48249   0.58297   0.00000  Uiso   1.00
C933   C     0.66134   0.50650   0.73374   0.00000  Uiso   1.00
C934   C     0.34076   0.49316   0.76194   0.00000  Uiso   1.00
C935   C     0.42204   0.53718   0.92247   0.00000  Uiso   1.00
C936   C     0.51435   0.65557   0.73803   0.00000  Uiso   1.00
C937   C     0.48481   0.34546   0.76211   0.00000  Uiso   1.00
C938   C     0.48926   0.38950   0.75888   0.00000  Uiso   1.00
C939   C     0.51023   0.61108   0.74131   0.00000  Uiso   1.00
C940   C     0.52184   0.47864   0.64399   0.00000  Uiso   1.00
C941   C     0.47741   0.52010   0.85641   0.00000  Uiso   1.00
C942   C     0.46232   0.52341   0.90010   0.00000  Uiso   1.00
C943   C     0.53230   0.46979   0.60123   0.00000  Uiso   1.00
C944   C     0.40988   0.53817   0.96350   0.00000  Uiso   1.00
C945   C     0.37642   0.53045   0.54879   0.00000  Uiso   1.00
C946   C     0.48855   0.51033   0.91969   0.00000  Uiso   1.00
C947   C     0.35907   0.52077   0.69638   0.00000  Uiso   1.00
C948   C     0.60106   0.43803   0.59641   0.00000  Uiso   1.00
C949   C     0.39019   0.54862   0.90477   0.00000  Uiso   1.00
C950   C     0.47481   0.50745   0.96074   0.00000  Uiso   1.00
C951   C     0.43454   0.52180   0.98296   0.00000  Uiso   1.00
C952   C     0.50031   0.49106   0.98012   0.00000  Uiso   1.00
C953   C     0.48682   0.49222   0.52199   0.00000  Uiso   1.00
C954   C     0.44623   0.50582   0.54293   0.00000  Uiso   1.00
C955   C     0.41986   0.51970   0.52412   0.00000  Uiso   1.00
H956   H     0.60915   0.43540   0.51936   0.00000  Uiso   1.00
H957   H     0.65088   0.48466   0.78942   0.00000  Uiso   1.00
H958   H     0.47734   0.49717   0.60218   0.00000  Uiso   1.00
H959   H     0.66052   0.42109   0.58833   0.00000  Uiso   1.00
H960   H     0.34939   0.58977   0.90541   0.00000  Uiso   1.00
H961   H     0.52000   0.50274   0.90185   0.00000  Uiso   1.00
H962   H     0.54168   0.33620   0.71586   0.00000  Uiso   1.00
H963   H     0.45708   0.66556   0.78432   0.00000  Uiso   1.00
H964   H     0.59294   0.44472   0.96048   0.00000  Uiso   1.00
H965   H     0.37998   0.55076   0.97990   0.00000  Uiso   1.00
H966   H     0.43283   0.50400   0.57418   0.00000  Uiso   1.00
H967   H     0.54937   0.46776   0.92722   0.00000  Uiso   1.00
H968   H     0.64537   0.52440   0.55607   0.00000  Uiso   1.00
H969   H     0.41897   0.54614   0.66805   0.00000  Uiso   1.00
O970   O     0.50000   0.50000   0.75000   0.00000  Uiso   1.00
O971   O     0.49027   0.45726   0.66625   0.00000  Uiso   1.00
O972   O     0.46020   0.53979   0.83749   0.00000  Uiso   1.00
O973   O     0.54421   0.50826   0.65877   0.00000  Uiso   1.00
O974   O     0.50532   0.49468   0.83749   0.00000  Uiso   1.00
O975   O     0.37271   0.55137   0.58066   0.00000  Uiso   1.00
O976   O     0.33959   0.51517   0.53653   0.00000  Uiso   1.00
O977   O     0.34729   0.51764   0.66659   0.00000  Uiso   1.00
O978   O     0.40139   0.53806   0.69515   0.00000  Uiso   1.00
O979   O     0.59004   0.43214   0.63125   0.00000  Uiso   1.00
O980   O     0.64269   0.43055   0.57297   0.00000  Uiso   1.00
O981   O     0.51182   0.41434   0.77821   0.00000  Uiso   1.00
O982   O     0.37877   0.52474   0.87916   0.00000  Uiso   1.00
O983   O     0.37126   0.58569   0.91920   0.00000  Uiso   1.00
O984   O     0.47914   0.59469   0.76767   0.00000  Uiso   1.00
O985   O     0.40785   0.46584   0.73607   0.00000  Uiso   1.00
O986   O     0.60119   0.52512   0.71806   0.00000  Uiso   1.00
O987   O     0.40323   0.52293   0.77820   0.00000  Uiso   1.00
O988   O     0.58773   0.48610   0.76768   0.00000  Uiso   1.00
O989   O     0.47133   0.40236   0.73607   0.00000  Uiso   1.00
O990   O     0.53771   0.58860   0.71806   0.00000  Uiso   1.00
Zn991  Zn    0.52577   0.47423   0.78278   0.00000  Uiso   1.00
Zn992  Zn    0.46792   0.45711   0.72258   0.00000  Uiso   1.00
Zn993  Zn    0.54500   0.52997   0.71188   0.00000  Uiso   1.00
Zn994  Zn    0.46131   0.53868   0.78277   0.00000  Uiso   1.00
C995   C     0.71901   0.49309   0.75938   0.00000  Uiso   1.00
C996   C     0.87178   0.47265   0.95890   0.00000  Uiso   1.00
C997   C     0.89719   0.45833   0.97803   0.00000  Uiso   1.00
C998   C     0.94797   0.50616   0.74028   0.00000  Uiso   1.00
C999   C     0.88591   0.46180   0.51898   0.00000  Uiso   1.00
C1000  C     0.84730   0.47868   0.54158   0.00000  Uiso   1.00
C1001  C     0.91333   0.44858   0.53738   0.00000  Uiso   1.00
C1002  C     0.90382   0.45239   0.57852   0.00000  Uiso   1.00
C1003  C     0.83805   0.48249   0.58297   0.00000  Uiso   1.00
C1004  C     0.99467   0.50650   0.73374   0.00000  Uiso   1.00
C1005  C     0.67410   0.49316   0.76194   0.00000  Uiso   1.00
C1006  C     0.75537   0.53718   0.92247   0.00000  Uiso   1.00
C1007  C     0.84769   0.65557   0.73803   0.00000  Uiso   1.00
C1008  C     0.81814   0.34546   0.76211   0.00000  Uiso   1.00
C1009  C     0.82259   0.38950   0.75888   0.00000  Uiso   1.00
C1010  C     0.84356   0.61108   0.74131   0.00000  Uiso   1.00
C1011  C     0.85517   0.47864   0.64399   0.00000  Uiso   1.00
C1012  C     0.81074   0.52010   0.85641   0.00000  Uiso   1.00
C1013  C     0.79565   0.52341   0.90010   0.00000  Uiso   1.00
C1014  C     0.86563   0.46979   0.60123   0.00000  Uiso   1.00
C1015  C     0.74322   0.53817   0.96350   0.00000  Uiso   1.00
C1016  C     0.70975   0.53045   0.54879   0.00000  Uiso   1.00
C1017  C     0.82188   0.51033   0.91969   0.00000  Uiso   1.00
C1018  C     0.69240   0.52077   0.69638   0.00000  Uiso   1.00
C1019  C     0.93439   0.43803   0.59641   0.00000  Uiso   1.00
C1020  C     0.72353   0.54862   0.90477   0.00000  Uiso   1.00
C1021  C     0.80814   0.50745   0.96074   0.00000  Uiso   1.00
C1022  C     0.76787   0.52180   0.98296   0.00000  Uiso   1.00
C1023  C     0.83364   0.49106   0.98012   0.00000  Uiso   1.00
C1024  C     0.82016   0.49222   0.52199   0.00000  Uiso   1.00
C1025  C     0.77956   0.50582   0.54293   0.00000  Uiso   1.00
C1026  C     0.75319   0.51970   0.52412   0.00000  Uiso   1.00
H1027  H     0.94248   0.43540   0.51936   0.00000  Uiso   1.00
H1028  H     0.98421   0.48466   0.78942   0.00000  Uiso   1.00
H1029  H     0.81067   0.49717   0.60218   0.00000  Uiso   1.00
H1030  H     0.99386   0.42109   0.58833   0.00000  Uiso   1.00
H1031  H     0.68272   0.58977   0.90541   0.00000  Uiso   1.00
H1032  H     0.85334   0.50274   0.90185   0.00000  Uiso   1.00
H1033  H     0.87501   0.33620   0.71586   0.00000  Uiso   1.00
H1034  H     0.79042   0.66556   0.78432   0.00000  Uiso   1.00
H1035  H     0.92627   0.44472   0.96048   0.00000  Uiso   1.00
H1036  H     0.71332   0.55076   0.97990   0.00000  Uiso   1.00
H1037  H     0.76616   0.50400   0.57418   0.00000  Uiso   1.00
H1038  H     0.88271   0.46776   0.92722   0.00000  Uiso   1.00
H1039  H     0.97871   0.52440   0.55607   0.00000  Uiso   1.00
H1040  H     0.75230   0.54614   0.66805   0.00000  Uiso   1.00
O1041  O     0.83333   0.50000   0.75000   0.00000  Uiso   1.00
O1042  O     0.82360   0.45726   0.66625   0.00000  Uiso   1.00
O1043  O     0.79354   0.53979   0.83749   0.00000  Uiso   1.00
O1044  O     0.87755   0.50826   0.65877   0.00000  Uiso   1.00
O1045  O     0.83865   0.49468   0.83749   0.00000  Uiso   1.00
O1046  O     0.70604   0.55137   0.58066   0.00000  Uiso   1.00
O1047  O     0.67293   0.51517   0.53653   0.00000  Uiso   1.00
O1048  O     0.68062   0.51764   0.66659   0.00000  Uiso   1.00
O1049  O     0.73472   0.53806   0.69515   0.00000  Uiso   1.00
O1050  O     0.92337   0.43214   0.63125   0.00000  Uiso   1.00
O1051  O     0.97602   0.43055   0.57297   0.00000  Uiso   1.00
O1052  O     0.84515   0.41434   0.77821   0.00000  Uiso   1.00
O1053  O     0.71210   0.52474   0.87916   0.00000  Uiso   1.00
O1054  O     0.70460   0.58569   0.91920   0.00000  Uiso   1.00
O1055  O     0.81247   0.59469   0.76767   0.00000  Uiso   1.00
O1056  O     0.74119   0.46584   0.73607   0.00000  Uiso   1.00
O1057  O     0.93452   0.52512   0.71806   0.00000  Uiso   1.00
O1058  O     0.73656   0.52293   0.77820   0.00000  Uiso   1.00
O1059  O     0.92106   0.48610   0.76768   0.00000  Uiso   1.00
O1060  O     0.80467   0.40236   0.73607   0.00000  Uiso   1.00
O1061  O     0.87104   0.58860   0.71806   0.00000  Uiso   1.00
Zn1062 Zn    0.85910   0.47423   0.78278   0.00000  Uiso   1.00
Zn1063 Zn    0.80125   0.45711   0.72258   0.00000  Uiso   1.00
Zn1064 Zn    0.87833   0.52997   0.71188   0.00000  Uiso   1.00
Zn1065 Zn    0.79465   0.53868   0.78277   0.00000  Uiso   1.00
C1066  C     0.05235   0.82643   0.75938   0.00000  Uiso   1.00
C1067  C     0.20511   0.80598   0.95890   0.00000  Uiso   1.00
C1068  C     0.23052   0.79166   0.97803   0.00000  Uiso   1.00
C1069  C     0.28131   0.83949   0.74028   0.00000  Uiso   1.00
C1070  C     0.21925   0.79514   0.51898   0.00000  Uiso   1.00
C1071  C     0.18063   0.81201   0.54158   0.00000  Uiso   1.00
C1072  C     0.24666   0.78191   0.53738   0.00000  Uiso   1.00
C1073  C     0.23715   0.78573   0.57852   0.00000  Uiso   1.00
C1074  C     0.17138   0.81582   0.58297   0.00000  Uiso   1.00
C1075  C     0.32800   0.83983   0.73374   0.00000  Uiso   1.00
C1076  C     0.00743   0.82650   0.76194   0.00000  Uiso   1.00
C1077  C     0.08870   0.87052   0.92247   0.00000  Uiso   1.00
C1078  C     0.18102   0.98890   0.73803   0.00000  Uiso   1.00
C1079  C     0.15148   0.67879   0.76211   0.00000  Uiso   1.00
C1080  C     0.15592   0.72283   0.75888   0.00000  Uiso   1.00
C1081  C     0.17689   0.94441   0.74131   0.00000  Uiso   1.00
C1082  C     0.18851   0.81197   0.64399   0.00000  Uiso   1.00
C1083  C     0.14407   0.85343   0.85641   0.00000  Uiso   1.00
C1084  C     0.12899   0.85675   0.90010   0.00000  Uiso   1.00
C1085  C     0.19897   0.80312   0.60123   0.00000  Uiso   1.00
C1086  C     0.07655   0.87150   0.96350   0.00000  Uiso   1.00
C1087  C     0.04309   0.86378   0.54879   0.00000  Uiso   1.00
C1088  C     0.15522   0.84366   0.91969   0.00000  Uiso   1.00
C1089  C     0.02574   0.85411   0.69638   0.00000  Uiso   1.00
C1090  C     0.26773   0.77136   0.59641   0.00000  Uiso   1.00
C1091  C     0.05686   0.88195   0.90477   0.00000  Uiso   1.00
C1092  C     0.14147   0.84078   0.96074   0.00000  Uiso   1.00
C1093  C     0.10121   0.85513   0.98296   0.00000  Uiso   1.00
C1094  C     0.16698   0.82440   0.98012   0.00000  Uiso   1.00
C1095  C     0.15349   0.82555   0.52199   0.00000  Uiso   1.00
C1096  C     0.11290   0.83916   0.54293   0.00000  Uiso   1.00
C1097  C     0.08653   0.85304   0.52412   0.00000  Uiso   1.00
H1098  H     0.27581   0.76873   0.51936   0.00000  Uiso   1.00
H1099  H     0.31754   0.81799   0.78942   0.00000  Uiso   1.00
H1100  H     0.14401   0.83050   0.60218   0.00000  Uiso   1.00
H1101  H     0.32719   0.75442   0.58833   0.00000  Uiso   1.00
H1102  H     0.01605   0.92311   0.90541   0.00000  Uiso   1.00
H1103  H     0.18667   0.83607   0.90185   0.00000  Uiso   1.00
H1104  H     0.20835   0.66954   0.71586   0.00000  Uiso   1.00
H1105  H     0.12375   0.99889   0.78432   0.00000  Uiso   1.00
H1106  H     0.25960   0.77806   0.96048   0.00000  Uiso   1.00
H1107  H     0.04665   0.88409   0.97990   0.00000  Uiso   1.00
H1108  H     0.09950   0.83733   0.57418   0.00000  Uiso   1.00
H1109  H     0.21604   0.80109   0.92722   0.00000  Uiso   1.00
H1110  H     0.31204   0.85773   0.55607   0.00000  Uiso   1.00
H1111  H     0.08564   0.87947   0.66805   0.00000  Uiso   1.00
O1112  O     0.16667   0.83333   0.75000   0.00000  Uiso   1.00
O1113  O     0.15693   0.79060   0.66625   0.00000  Uiso   1.00
O1114  O     0.12687   0.87313   0.83749   0.00000  Uiso   1.00
O1115  O     0.21088   0.84159   0.65877   0.00000  Uiso   1.00
O1116  O     0.17198   0.82802   0.83749   0.00000  Uiso   1.00
O1117  O     0.03938   0.88470   0.58066   0.00000  Uiso   1.00
O1118  O     0.00626   0.84850   0.53653   0.00000  Uiso   1.00
O1119  O     0.01395   0.85098   0.66659   0.00000  Uiso   1.00
O1120  O     0.06805   0.87139   0.69515   0.00000  Uiso   1.00
O1121  O     0.25670   0.76547   0.63125   0.00000  Uiso   1.00
O1122  O     0.30936   0.76389   0.57297   0.00000  Uiso   1.00
O1123  O     0.17849   0.74768   0.77821   0.00000  Uiso   1.00
O1124  O     0.04544   0.85807   0.87916   0.00000  Uiso   1.00
O1125  O     0.03793   0.91902   0.91920   0.00000  Uiso   1.00
O1126  O     0.14581   0.92803   0.76767   0.00000  Uiso   1.00
O1127  O     0.07452   0.79917   0.73607   0.00000  Uiso   1.00
O1128  O     0.26785   0.85845   0.71806   0.00000  Uiso   1.00
O1129  O     0.06990   0.85627   0.77820   0.00000  Uiso   1.00
O1130  O     0.25440   0.81944   0.76768   0.00000  Uiso   1.00
O1131  O     0.13800   0.73570   0.73607   0.00000  Uiso   1.00
O1132  O     0.20437   0.92193   0.71806   0.00000  Uiso   1.00
Zn1133 Zn    0.19244   0.80756   0.78278   0.00000  Uiso   1.00
Zn1134 Zn    0.13459   0.79044   0.72258   0.00000  Uiso   1.00
Zn1135 Zn    0.21166   0.86331   0.71188   0.00000  Uiso   1.00
Zn1136 Zn    0.12798   0.87202   0.78277   0.00000  Uiso   1.00
C1137  C     0.38568   0.82643   0.75938   0.00000  Uiso   1.00
C1138  C     0.53845   0.80598   0.95890   0.00000  Uiso   1.00
C1139  C     0.56386   0.79166   0.97803   0.00000  Uiso   1.00
C1140  C     0.61464   0.83949   0.74028   0.00000  Uiso   1.00
C1141  C     0.55258   0.79514   0.51898   0.00000  Uiso   1.00
C1142  C     0.51397   0.81201   0.54158   0.00000  Uiso   1.00
C1143  C     0.58000   0.78191   0.53738   0.00000  Uiso   1.00
C1144  C     0.57048   0.78573   0.57852   0.00000  Uiso   1.00
C1145  C     0.50471   0.81582   0.58297   0.00000  Uiso   1.00
C1146  C     0.66134   0.83983   0.73374   0.00000  Uiso   1.00
C1147  C     0.34076   0.82650   0.76194   0.00000  Uiso   1.00
C1148  C     0.42204   0.87052   0.92247   0.00000  Uiso   1.00
C1149  C     0.51435   0.98890   0.73803   0.00000  Uiso   1.00
C1150  C     0.48481   0.67879   0.76211   0.00000  Uiso   1.00
C1151  C     0.48926   0.72283   0.75888   0.00000  Uiso   1.00
C1152  C     0.51023   0.94441   0.74131   0.00000  Uiso   1.00
C1153  C     0.52184   0.81197   0.64399   0.00000  Uiso   1.00
C1154  C     0.47741   0.85343   0.85641   0.00000  Uiso   1.00
C1155  C     0.46232   0.85675   0.90010   0.00000  Uiso   1.00
C1156  C     0.53230   0.80312   0.60123   0.00000  Uiso   1.00
C1157  C     0.40988   0.87150   0.96350   0.00000  Uiso   1.00
C1158  C     0.37642   0.86378   0.54879   0.00000  Uiso   1.00
C1159  C     0.48855   0.84366   0.91969   0.00000  Uiso   1.00
C1160  C     0.35907   0.85411   0.69638   0.00000  Uiso   1.00
C1161  C     0.60106   0.77136   0.59641   0.00000  Uiso   1.00
C1162  C     0.39019   0.88195   0.90477   0.00000  Uiso   1.00
C1163  C     0.47481   0.84078   0.96074   0.00000  Uiso   1.00
C1164  C     0.43454   0.85513   0.98296   0.00000  Uiso   1.00
C1165  C     0.50031   0.82440   0.98012   0.00000  Uiso   1.00
C1166  C     0.48682   0.82555   0.52199   0.00000  Uiso   1.00
C1167  C     0.44623   0.83916   0.54293   0.00000  Uiso   1.00
C1168  C     0.41986   0.85304   0.52412   0.00000  Uiso   1.00
H1169  H     0.60915   0.76873   0.51936   0.00000  Uiso   1.00
H1170  H     0.65088   0.81799   0.78942   0.00000  Uiso   1.00
H1171  H     0.47734   0.83050   0.60218   0.00000  Uiso   1.00
H1172  H     0.66052   0.75442   0.58833   0.00000  Uiso   1.00
H1173  H     0.34939   0.92311   0.90541   0.00000  Uiso   1.00
H1174  H     0.52000   0.83607   0.90185   0.00000  Uiso   1.00
H1175  H     0.54168   0.66954   0.71586   0.00000  Uiso   1.00
H1176  H     0.45708   0.99889   0.78432   0.00000  Uiso   1.00
H1177  H     0.59294   0.77806   0.96048   0.00000  Uiso   1.00
H1178  H     0.37998   0.88409   0.97990   0.00000  Uiso   1.00
H1179  H     0.43283   0.83733   0.57418   0.00000  Uiso   1.00
H1180  H     0.54937   0.80109   0.92722   0.00000  Uiso   1.00
H1181  H     0.64537   0.85773   0.55607   0.00000  Uiso   1.00
H1182  H     0.41897   0.87947   0.66805   0.00000  Uiso   1.00
O1183  O     0.50000   0.83333   0.75000   0.00000  Uiso   1.00
O1184  O     0.49027   0.79060   0.66625   0.00000  Uiso   1.00
O1185  O     0.46020   0.87313   0.83749   0.00000  Uiso   1.00
O1186  O     0.54421   0.84159   0.65877   0.00000  Uiso   1.00
O1187  O     0.50532   0.82802   0.83749   0.00000  Uiso   1.00
O1188  O     0.37271   0.88470   0.58066   0.00000  Uiso   1.00
O1189  O     0.33959   0.84850   0.53653   0.00000  Uiso   1.00
O1190  O     0.34729   0.85098   0.66659   0.00000  Uiso   1.00
O1191  O     0.40139   0.87139   0.69515   0.00000  Uiso   1.00
O1192  O     0.59004   0.76547   0.63125   0.00000  Uiso   1.00
O1193  O     0.64269   0.76389   0.57297   0.00000  Uiso   1.00
O1194  O     0.51182   0.74768   0.77821   0.00000  Uiso   1.00
O1195  O     0.37877   0.85807   0.87916   0.00000  Uiso   1.00
O1196  O     0.37126   0.91902   0.91920   0.00000  Uiso   1.00
O1197  O     0.47914   0.92803   0.76767   0.00000  Uiso   1.00
O1198  O     0.40785   0.79917   0.73607   0.00000  Uiso   1.00
O1199  O     0.60119   0.85845   0.71806   0.00000  Uiso   1.00
O1200  O     0.40323   0.85627   0.77820   0.00000  Uiso   1.00
O1201  O     0.58773   0.81944   0.76768   0.00000  Uiso   1.00
O1202  O     0.47133   0.73570   0.73607   0.00000  Uiso   1.00
O1203  O     0.53771   0.92193   0.71806   0.00000  Uiso   1.00
Zn1204 Zn    0.52577   0.80756   0.78278   0.00000  Uiso   1.00
Zn1205 Zn    0.46792   0.79044   0.72258   0.00000  Uiso   1.00
Zn1206 Zn    0.54500   0.86331   0.71188   0.00000  Uiso   1.00
Zn1207 Zn    0.46131   0.87202   0.78277   0.00000  Uiso   1.00
C1208  C     0.71901   0.82643   0.75938   0.00000  Uiso   1.00
C1209  C     0.87178   0.80598   0.95890   0.00000  Uiso   1.00
C1210  C     0.89719   0.79166   0.97803   0.00000  Uiso   1.00
C1211  C     0.94797   0.83949   0.74028   0.00000  Uiso   1.00
C1212  C     0.88591   0.79514   0.51898   0.00000  Uiso   1.00
C1213  C     0.84730   0.81201   0.54158   0.00000  Uiso   1.00
C1214  C     0.91333   0.78191   0.53738   0.00000  Uiso   1.00
C1215  C     0.90382   0.78573   0.57852   0.00000  Uiso   1.00
C1216  C     0.83805   0.81582   0.58297   0.00000  Uiso   1.00
C1217  C     0.99467   0.83983   0.73374   0.00000  Uiso   1.00
C1218  C     0.67410   0.82650   0.76194   0.00000  Uiso   1.00
C1219  C     0.75537   0.87052   0.92247   0.00000  Uiso   1.00
C1220  C     0.84769   0.98890   0.73803   0.00000  Uiso   1.00
C1221  C     0.81814   0.67879   0.76211   0.00000  Uiso   1.00
C1222  C     0.82259   0.72283   0.75888   0.00000  Uiso   1.00
C1223  C     0.84356   0.94441   0.74131   0.00000  Uiso   1.00
C1224  C     0.85517   0.81197   0.64399   0.00000  Uiso   1.00
C1225  C     0.81074   0.85343   0.85641   0.00000  Uiso   1.00
C1226  C     0.79565   0.85675   0.90010   0.00000  Uiso   1.00
C1227  C     0.86563   0.80312   0.60123   0.00000  Uiso   1.00
C1228  C     0.74322   0.87150   0.96350   0.00000  Uiso   1.00
C1229  C     0.70975   0.86378   0.54879   0.00000  Uiso   1.00
C1230  C     0.82188   0.84366   0.91969   0.00000  Uiso   1.00
C1231  C     0.69240   0.85411   0.69638   0.00000  Uiso   1.00
C1232  C     0.93439   0.77136   0.59641   0.00000  Uiso   1.00
C1233  C     0.72353   0.88195   0.90477   0.00000  Uiso   1.00
C1234  C     0.80814   0.84078   0.96074   0.00000  Uiso   1.00
C1235  C     0.76787   0.85513   0.98296   0.00000  Uiso   1.00
C1236  C     0.83364   0.82440   0.98012   0.00000  Uiso   1.00
C1237  C     0.82016   0.82555   0.52199   0.00000  Uiso   1.00
C1238  C     0.77956   0.83916   0.54293   0.00000  Uiso   1.00
C1239  C     0.75319   0.85304   0.52412   0.00000  Uiso   1.00
H1240  H     0.94248   0.76873   0.51936   0.00000  Uiso   1.00
H1241  H     0.98421   0.81799   0.78942   0.00000  Uiso   1.00
H1242  H     0.81067   0.83050   0.60218   0.00000  Uiso   1.00
H1243  H     0.99386   0.75442   0.58833   0.00000  Uiso   1.00
H1244  H     0.68272   0.92311   0.90541   0.00000  Uiso   1.00
H1245  H     0.85334   0.83607   0.90185   0.00000  Uiso   1.00
H1246  H     0.87501   0.66954   0.71586   0.00000  Uiso   1.00
H1247  H     0.79042   0.99889   0.78432   0.00000  Uiso   1.00
H1248  H     0.92627   0.77806   0.96048   0.00000  Uiso   1.00
H1249  H     0.71332   0.88409   0.97990   0.00000  Uiso   1.00
H1250  H     0.76616   0.83733   0.57418   0.00000  Uiso   1.00
H1251  H     0.88271   0.80109   0.92722   0.00000  Uiso   1.00
H1252  H     0.97871   0.85773   0.55607   0.00000  Uiso   1.00
H1253  H     0.75230   0.87947   0.66805   0.00000  Uiso   1.00
O1254  O     0.83333   0.83333   0.75000   0.00000  Uiso   1.00
O1255  O     0.82360   0.79060   0.66625   0.00000  Uiso   1.00
O1256  O     0.79354   0.87313   0.83749   0.00000  Uiso   1.00
O1257  O     0.87755   0.84159   0.65877   0.00000  Uiso   1.00
O1258  O     0.83865   0.82802   0.83749   0.00000  Uiso   1.00
O1259  O     0.70604   0.88470   0.58066   0.00000  Uiso   1.00
O1260  O     0.67293   0.84850   0.53653   0.00000  Uiso   1.00
O1261  O     0.68062   0.85098   0.66659   0.00000  Uiso   1.00
O1262  O     0.73472   0.87139   0.69515   0.00000  Uiso   1.00
O1263  O     0.92337   0.76547   0.63125   0.00000  Uiso   1.00
O1264  O     0.97602   0.76389   0.57297   0.00000  Uiso   1.00
O1265  O     0.84515   0.74768   0.77821   0.00000  Uiso   1.00
O1266  O     0.71210   0.85807   0.87916   0.00000  Uiso   1.00
O1267  O     0.70460   0.91902   0.91920   0.00000  Uiso   1.00
O1268  O     0.81247   0.92803   0.76767   0.00000  Uiso   1.00
O1269  O     0.74119   0.79917   0.73607   0.00000  Uiso   1.00
O1270  O     0.93452   0.85845   0.71806   0.00000  Uiso   1.00
O1271  O     0.73656   0.85627   0.77820   0.00000  Uiso   1.00
O1272  O     0.92106   0.81944   0.76768   0.00000  Uiso   1.00
O1273  O     0.80467   0.73570   0.73607   0.00000  Uiso   1.00
O1274  O     0.87104   0.92193   0.71806   0.00000  Uiso   1.00
Zn1275 Zn    0.85910   0.80756   0.78278   0.00000  Uiso   1.00
Zn1276 Zn    0.80125   0.79044   0.72258   0.00000  Uiso   1.00
Zn1277 Zn    0.87833   0.86331   0.71188   0.00000  Uiso   1.00
Zn1278 Zn    0.79465   0.87202   0.78277   0.00000  Uiso   1.00
loop_
_geom_bond_atom_site_label_1
_geom_bond_atom_site_label_2
_geom_bond_distance
_geom_bond_site_symmetry_2
_ccdc_geom_bond_type
C1     C11     1.439   .     S
C1     O62     1.273   .     A
C1     O64     1.265   .     A
C2     C3      1.385   .     A
C2     C29     1.416   .     A
C2     H44     1.076   .     S
C3     H41     1.084   .     S
C3     C644    1.390   .     S
C4     O63     1.278   .     A
C4     O65     1.283   .     A
C4     C10     1.467   .     S
C5     C6      1.416   .     A
C5     C7      1.402   .     A
C5     C642    1.390   1_554 S
C6     C9      1.409   .     A
C6     C30     1.430   .     A
C7     C8      1.400   .     A
C7     H33     1.084   .     S
C8     C25     1.493   .     S
C8     C20     1.414   .     A
C9     C20     1.395   .     A
C9     H35     1.077   .     S
C10    C82     1.345   .     S
C10    C95     1.498   .     S
C11    C152    1.345   1_455 S
C11    H176    1.087   1_455 S
C12    C19     1.416   .     A
C12    C26     1.481   .     S
C12    C21     1.396   .     A
C13    C16     1.451   .     S
C13    C227    1.331   .     S
C13    H252    1.088   .     S
C14    C15     1.435   .     S
C14    C439    1.331   1_545 S
C14    H466    1.086   1_545 S
C15    O58     1.280   .     A
C15    O66     1.280   .     A
C16    O67     1.266   .     A
C16    O61     1.267   .     A
C17    O50     1.271   .     A
C17    C20     1.458   .     S
C17    O48     1.275   .     A
C18    O51     1.290   .     A
C18    O49     1.281   .     A
C18    C19     1.483   .     S
C19    C23     1.399   .     A
C21    C28     1.408   .     A
C21    H42     1.081   .     S
C22    C32     1.488   .     S
C22    O53     1.398   .     S
C22    O52     1.223   .     D
C23    C27     1.412   .     A
C23    H38     1.075   .     S
C24    O54     1.223   .     D
C24    O55     1.399   .     S
C24    C152    1.498   1_455 S
C25    O56     1.223   .     D
C25    O57     1.399   .     S
C26    O59     1.223   .     D
C26    O60     1.398   .     S
C27    C29     1.428   .     A
C27    C28     1.422   .     A
C28    C671    1.412   .     S
C29    C669    1.424   .     S
C30    C31     1.411   .     A
C30    C668    1.424   1_554 S
C31    C32     1.395   .     A
C31    H43     1.077   .     S
C32    C667    1.412   1_554 S
H34    C82     1.087   .     S
H36    O57     1.014   .     S
H37    O60     1.014   .     S
H39    C439    1.088   1_545 S
H40    C227    1.086   .     S
H45    O124    1.014   .     S
H46    O55     1.014   .     S
O47    Zn70    1.924   .     S
O47    Zn71    1.926   .     S
O47    Zn68    1.966   .     S
O47    Zn69    1.947   .     S
O48    Zn69    1.924   .     S
O49    Zn71    1.941   .     S
O50    Zn70    1.936   .     S
O51    Zn68    1.921   .     S
O53    H187    1.014   1_455 S
O58    Zn68    1.927   .     S
O61    Zn71    1.929   .     S
O62    Zn69    1.925   .     S
O63    Zn70    1.941   .     S
O64    Zn71    1.935   .     S
O65    Zn68    1.920   .     S
O66    Zn69    1.937   .     S
O67    Zn70    1.930   .     S
C72    C82     1.439   .     S
C72    O133    1.273   .     A
C72    O135    1.265   .     A
C73    C74     1.385   .     A
C73    C100    1.416   .     A
C73    H115    1.076   .     S
C74    H112    1.084   .     S
C74    C715    1.390   .     S
C75    O134    1.278   .     A
C75    O136    1.283   .     A
C75    C81     1.467   .     S
C76    C77     1.416   .     A
C76    C78     1.402   .     A
C76    C713    1.390   1_554 S
C77    C80     1.409   .     A
C77    C101    1.430   .     A
C78    C79     1.400   .     A
C78    H104    1.084   .     S
C79    C96     1.493   .     S
C79    C91     1.414   .     A
C80    C91     1.395   .     A
C80    H106    1.077   .     S
C81    C153    1.345   .     S
C81    C166    1.498   .     S
C83    C90     1.416   .     A
C83    C97     1.481   .     S
C83    C92     1.396   .     A
C84    C87     1.451   .     S
C84    C298    1.331   .     S
C84    H323    1.088   .     S
C85    C86     1.435   .     S
C85    C510    1.331   1_545 S
C85    H537    1.086   1_545 S
C86    O129    1.280   .     A
C86    O137    1.280   .     A
C87    O138    1.266   .     A
C87    O132    1.267   .     A
C88    O121    1.271   .     A
C88    C91     1.458   .     S
C88    O119    1.275   .     A
C89    O122    1.290   .     A
C89    O120    1.281   .     A
C89    C90     1.483   .     S
C90    C94     1.399   .     A
C92    C99     1.408   .     A
C92    H113    1.081   .     S
C93    C103    1.488   .     S
C93    O124    1.398   .     S
C93    O123    1.223   .     D
C94    C98     1.412   .     A
C94    H109    1.075   .     S
C95    O125    1.223   .     D
C95    O126    1.399   .     S
C96    O127    1.223   .     D
C96    O128    1.399   .     S
C97    O130    1.223   .     D
C97    O131    1.398   .     S
C98    C100    1.428   .     A
C98    C99     1.422   .     A
C99    C742    1.412   .     S
C100   C740    1.424   .     S
C101   C102    1.411   .     A
C101   C739    1.424   1_554 S
C102   C103    1.395   .     A
C102   H114    1.077   .     S
C103   C738    1.412   1_554 S
H105   C153    1.087   .     S
H107   O128    1.014   .     S
H108   O131    1.014   .     S
H110   C510    1.088   1_545 S
H111   C298    1.086   .     S
H116   O195    1.014   .     S
H117   O126    1.014   .     S
O118   Zn141   1.924   .     S
O118   Zn142   1.926   .     S
O118   Zn139   1.966   .     S
O118   Zn140   1.947   .     S
O119   Zn140   1.924   .     S
O120   Zn142   1.941   .     S
O121   Zn141   1.936   .     S
O122   Zn139   1.921   .     S
O129   Zn139   1.927   .     S
O132   Zn142   1.929   .     S
O133   Zn140   1.925   .     S
O134   Zn141   1.941   .     S
O135   Zn142   1.935   .     S
O136   Zn139   1.920   .     S
O137   Zn140   1.937   .     S
O138   Zn141   1.930   .     S
C143   C153    1.439   .     S
C143   O204    1.273   .     A
C143   O206    1.265   .     A
C144   C145    1.385   .     A
C144   C171    1.416   .     A
C144   H186    1.076   .     S
C145   H183    1.084   .     S
C145   C786    1.390   .     S
C146   O205    1.278   .     A
C146   O207    1.283   .     A
C146   C152    1.467   .     S
C147   C148    1.416   .     A
C147   C149    1.402   .     A
C147   C784    1.390   1_554 S
C148   C151    1.409   .     A
C148   C172    1.430   .     A
C149   C150    1.400   .     A
C149   H175    1.084   .     S
C150   C167    1.493   .     S
C150   C162    1.414   .     A
C151   C162    1.395   .     A
C151   H177    1.077   .     S
C152   C11     1.345   1_655 S
C152   C24     1.498   1_655 S
C154   C161    1.416   .     A
C154   C168    1.481   .     S
C154   C163    1.396   .     A
C155   C158    1.451   .     S
C155   C369    1.331   .     S
C155   H394    1.088   .     S
C156   C157    1.435   .     S
C156   C581    1.331   1_545 S
C156   H608    1.086   1_545 S
C157   O200    1.280   .     A
C157   O208    1.280   .     A
C158   O209    1.266   .     A
C158   O203    1.267   .     A
C159   O192    1.271   .     A
C159   C162    1.458   .     S
C159   O190    1.275   .     A
C160   O193    1.290   .     A
C160   O191    1.281   .     A
C160   C161    1.483   .     S
C161   C165    1.399   .     A
C163   C170    1.408   .     A
C163   H184    1.081   .     S
C164   C174    1.488   .     S
C164   O195    1.398   .     S
C164   O194    1.223   .     D
C165   C169    1.412   .     A
C165   H180    1.075   .     S
C166   O196    1.223   .     D
C166   O197    1.399   .     S
C167   O198    1.223   .     D
C167   O199    1.399   .     S
C168   O201    1.223   .     D
C168   O202    1.398   .     S
C169   C171    1.428   .     A
C169   C170    1.422   .     A
C170   C813    1.412   .     S
C171   C811    1.424   .     S
C172   C173    1.411   .     A
C172   C810    1.424   1_554 S
C173   C174    1.395   .     A
C173   H185    1.077   .     S
C174   C809    1.412   1_554 S
H176   C11     1.087   1_655 S
H178   O199    1.014   .     S
H179   O202    1.014   .     S
H181   C581    1.088   1_545 S
H182   C369    1.086   .     S
H187   O53     1.014   1_655 S
H188   O197    1.014   .     S
O189   Zn212   1.924   .     S
O189   Zn213   1.926   .     S
O189   Zn210   1.966   .     S
O189   Zn211   1.947   .     S
O190   Zn211   1.924   .     S
O191   Zn213   1.941   .     S
O192   Zn212   1.936   .     S
O193   Zn210   1.921   .     S
O200   Zn210   1.927   .     S
O203   Zn213   1.929   .     S
O204   Zn211   1.925   .     S
O205   Zn212   1.941   .     S
O206   Zn213   1.935   .     S
O207   Zn210   1.920   .     S
O208   Zn211   1.937   .     S
O209   Zn212   1.930   .     S
C214   C224    1.439   .     S
C214   O275    1.273   .     A
C214   O277    1.265   .     A
C215   C216    1.385   .     A
C215   C242    1.416   .     A
C215   H257    1.076   .     S
C216   H254    1.084   .     S
C216   C857    1.390   .     S
C217   O276    1.278   .     A
C217   O278    1.283   .     A
C217   C223    1.467   .     S
C218   C219    1.416   .     A
C218   C220    1.402   .     A
C218   C855    1.390   1_554 S
C219   C222    1.409   .     A
C219   C243    1.430   .     A
C220   C221    1.400   .     A
C220   H246    1.084   .     S
C221   C238    1.493   .     S
C221   C233    1.414   .     A
C222   C233    1.395   .     A
C222   H248    1.077   .     S
C223   C295    1.345   .     S
C223   C308    1.498   .     S
C224   C365    1.345   1_455 S
C224   H389    1.087   1_455 S
C225   C232    1.416   .     A
C225   C239    1.481   .     S
C225   C234    1.396   .     A
C226   C229    1.451   .     S
C226   C440    1.331   .     S
C226   H465    1.088   .     S
C227   C228    1.435   .     S
C228   O271    1.280   .     A
C228   O279    1.280   .     A
C229   O280    1.266   .     A
C229   O274    1.267   .     A
C230   O263    1.271   .     A
C230   C233    1.458   .     S
C230   O261    1.275   .     A
C231   O264    1.290   .     A
C231   O262    1.281   .     A
C231   C232    1.483   .     S
C232   C236    1.399   .     A
C234   C241    1.408   .     A
C234   H255    1.081   .     S
C235   C245    1.488   .     S
C235   O266    1.398   .     S
C235   O265    1.223   .     D
C236   C240    1.412   .     A
C236   H251    1.075   .     S
C237   O267    1.223   .     D
C237   O268    1.399   .     S
C237   C365    1.498   1_455 S
C238   O269    1.223   .     D
C238   O270    1.399   .     S
C239   O272    1.223   .     D
C239   O273    1.398   .     S
C240   C242    1.428   .     A
C240   C241    1.422   .     A
C241   C884    1.412   .     S
C242   C882    1.424   .     S
C243   C244    1.411   .     A
C243   C881    1.424   1_554 S
C244   C245    1.395   .     A
C244   H256    1.077   .     S
C245   C880    1.412   1_554 S
H247   C295    1.087   .     S
H249   O270    1.014   .     S
H250   O273    1.014   .     S
H253   C440    1.086   .     S
H258   O337    1.014   .     S
H259   O268    1.014   .     S
O260   Zn283   1.924   .     S
O260   Zn284   1.926   .     S
O260   Zn281   1.966   .     S
O260   Zn282   1.947   .     S
O261   Zn282   1.924   .     S
O262   Zn284   1.941   .     S
O263   Zn283   1.936   .     S
O264   Zn281   1.921   .     S
O266   H400    1.014   1_455 S
O271   Zn281   1.927   .     S
O274   Zn284   1.929   .     S
O275   Zn282   1.925   .     S
O276   Zn283   1.941   .     S
O277   Zn284   1.935   .     S
O278   Zn281   1.920   .     S
O279   Zn282   1.937   .     S
O280   Zn283   1.930   .     S
C285   C295    1.439   .     S
C285   O346    1.273   .     A
C285   O348    1.265   .     A
C286   C287    1.385   .     A
C286   C313    1.416   .     A
C286   H328    1.076   .     S
C287   H325    1.084   .     S
C287   C928    1.390   .     S
C288   O347    1.278   .     A
C288   O349    1.283   .     A
C288   C294    1.467   .     S
C289   C290    1.416   .     A
C289   C291    1.402   .     A
C289   C926    1.390   1_554 S
C290   C293    1.409   .     A
C290   C314    1.430   .     A
C291   C292    1.400   .     A
C291   H317    1.084   .     S
C292   C309    1.493   .     S
C292   C304    1.414   .     A
C293   C304    1.395   .     A
C293   H319    1.077   .     S
C294   C366    1.345   .     S
C294   C379    1.498   .     S
C296   C303    1.416   .     A
C296   C310    1.481   .     S
C296   C305    1.396   .     A
C297   C300    1.451   .     S
C297   C511    1.331   .     S
C297   H536    1.088   .     S
C298   C299    1.435   .     S
C299   O342    1.280   .     A
C299   O350    1.280   .     A
C300   O351    1.266   .     A
C300   O345    1.267   .     A
C301   O334    1.271   .     A
C301   C304    1.458   .     S
C301   O332    1.275   .     A
C302   O335    1.290   .     A
C302   O333    1.281   .     A
C302   C303    1.483   .     S
C303   C307    1.399   .     A
C305   C312    1.408   .     A
C305   H326    1.081   .     S
C306   C316    1.488   .     S
C306   O337    1.398   .     S
C306   O336    1.223   .     D
C307   C311    1.412   .     A
C307   H322    1.075   .     S
C308   O338    1.223   .     D
C308   O339    1.399   .     S
C309   O340    1.223   .     D
C309   O341    1.399   .     S
C310   O343    1.223   .     D
C310   O344    1.398   .     S
C311   C313    1.428   .     A
C311   C312    1.422   .     A
C312   C955    1.412   .     S
C313   C953    1.424   .     S
C314   C315    1.411   .     A
C314   C952    1.424   1_554 S
C315   C316    1.395   .     A
C315   H327    1.077   .     S
C316   C951    1.412   1_554 S
H318   C366    1.087   .     S
H320   O341    1.014   .     S
H321   O344    1.014   .     S
H324   C511    1.086   .     S
H329   O408    1.014   .     S
H330   O339    1.014   .     S
O331   Zn354   1.924   .     S
O331   Zn355   1.926   .     S
O331   Zn352   1.966   .     S
O331   Zn353   1.947   .     S
O332   Zn353   1.924   .     S
O333   Zn355   1.941   .     S
O334   Zn354   1.936   .     S
O335   Zn352   1.921   .     S
O342   Zn352   1.927   .     S
O345   Zn355   1.929   .     S
O346   Zn353   1.925   .     S
O347   Zn354   1.941   .     S
O348   Zn355   1.935   .     S
O349   Zn352   1.920   .     S
O350   Zn353   1.937   .     S
O351   Zn354   1.930   .     S
C356   C366    1.439   .     S
C356   O417    1.273   .     A
C356   O419    1.265   .     A
C357   C358    1.385   .     A
C357   C384    1.416   .     A
C357   H399    1.076   .     S
C358   H396    1.084   .     S
C358   C999    1.390   .     S
C359   O418    1.278   .     A
C359   O420    1.283   .     A
C359   C365    1.467   .     S
C360   C361    1.416   .     A
C360   C362    1.402   .     A
C360   C997    1.390   1_554 S
C361   C364    1.409   .     A
C361   C385    1.430   .     A
C362   C363    1.400   .     A
C362   H388    1.084   .     S
C363   C380    1.493   .     S
C363   C375    1.414   .     A
C364   C375    1.395   .     A
C364   H390    1.077   .     S
C365   C224    1.345   1_655 S
C365   C237    1.498   1_655 S
C367   C374    1.416   .     A
C367   C381    1.481   .     S
C367   C376    1.396   .     A
C368   C371    1.451   .     S
C368   C582    1.331   .     S
C368   H607    1.088   .     S
C369   C370    1.435   .     S
C370   O413    1.280   .     A
C370   O421    1.280   .     A
C371   O422    1.266   .     A
C371   O416    1.267   .     A
C372   O405    1.271   .     A
C372   C375    1.458   .     S
C372   O403    1.275   .     A
C373   O406    1.290   .     A
C373   O404    1.281   .     A
C373   C374    1.483   .     S
C374   C378    1.399   .     A
C376   C383    1.408   .     A
C376   H397    1.081   .     S
C377   C387    1.488   .     S
C377   O408    1.398   .     S
C377   O407    1.223   .     D
C378   C382    1.412   .     A
C378   H393    1.075   .     S
C379   O409    1.223   .     D
C379   O410    1.399   .     S
C380   O411    1.223   .     D
C380   O412    1.399   .     S
C381   O414    1.223   .     D
C381   O415    1.398   .     S
C382   C384    1.428   .     A
C382   C383    1.422   .     A
C383   C1026   1.412   .     S
C384   C1024   1.424   .     S
C385   C386    1.411   .     A
C385   C1023   1.424   1_554 S
C386   C387    1.395   .     A
C386   H398    1.077   .     S
C387   C1022   1.412   1_554 S
H389   C224    1.087   1_655 S
H391   O412    1.014   .     S
H392   O415    1.014   .     S
H395   C582    1.086   .     S
H400   O266    1.014   1_655 S
H401   O410    1.014   .     S
O402   Zn425   1.924   .     S
O402   Zn426   1.926   .     S
O402   Zn423   1.966   .     S
O402   Zn424   1.947   .     S
O403   Zn424   1.924   .     S
O404   Zn426   1.941   .     S
O405   Zn425   1.936   .     S
O406   Zn423   1.921   .     S
O413   Zn423   1.927   .     S
O416   Zn426   1.929   .     S
O417   Zn424   1.925   .     S
O418   Zn425   1.941   .     S
O419   Zn426   1.935   .     S
O420   Zn423   1.920   .     S
O421   Zn424   1.937   .     S
O422   Zn425   1.930   .     S
C427   C437    1.439   .     S
C427   O488    1.273   .     A
C427   O490    1.265   .     A
C428   C429    1.385   .     A
C428   C455    1.416   .     A
C428   H470    1.076   .     S
C429   H467    1.084   .     S
C429   C1070   1.390   .     S
C430   O489    1.278   .     A
C430   O491    1.283   .     A
C430   C436    1.467   .     S
C431   C432    1.416   .     A
C431   C433    1.402   .     A
C431   C1068   1.390   1_554 S
C432   C435    1.409   .     A
C432   C456    1.430   .     A
C433   C434    1.400   .     A
C433   H459    1.084   .     S
C434   C451    1.493   .     S
C434   C446    1.414   .     A
C435   C446    1.395   .     A
C435   H461    1.077   .     S
C436   C508    1.345   .     S
C436   C521    1.498   .     S
C437   C578    1.345   1_455 S
C437   H602    1.087   1_455 S
C438   C445    1.416   .     A
C438   C452    1.481   .     S
C438   C447    1.396   .     A
C439   C442    1.451   .     S
C439   C14     1.331   1_565 S
C439   H39     1.088   1_565 S
C440   C441    1.435   .     S
C441   O484    1.280   .     A
C441   O492    1.280   .     A
C442   O493    1.266   .     A
C442   O487    1.267   .     A
C443   O476    1.271   .     A
C443   C446    1.458   .     S
C443   O474    1.275   .     A
C444   O477    1.290   .     A
C444   O475    1.281   .     A
C444   C445    1.483   .     S
C445   C449    1.399   .     A
C447   C454    1.408   .     A
C447   H468    1.081   .     S
C448   C458    1.488   .     S
C448   O479    1.398   .     S
C448   O478    1.223   .     D
C449   C453    1.412   .     A
C449   H464    1.075   .     S
C450   O480    1.223   .     D
C450   O481    1.399   .     S
C450   C578    1.498   1_455 S
C451   O482    1.223   .     D
C451   O483    1.399   .     S
C452   O485    1.223   .     D
C452   O486    1.398   .     S
C453   C455    1.428   .     A
C453   C454    1.422   .     A
C454   C1097   1.412   .     S
C455   C1095   1.424   .     S
C456   C457    1.411   .     A
C456   C1094   1.424   1_554 S
C457   C458    1.395   .     A
C457   H469    1.077   .     S
C458   C1093   1.412   1_554 S
H460   C508    1.087   .     S
H462   O483    1.014   .     S
H463   O486    1.014   .     S
H466   C14     1.086   1_565 S
H471   O550    1.014   .     S
H472   O481    1.014   .     S
O473   Zn496   1.924   .     S
O473   Zn497   1.926   .     S
O473   Zn494   1.966   .     S
O473   Zn495   1.947   .     S
O474   Zn495   1.924   .     S
O475   Zn497   1.941   .     S
O476   Zn496   1.936   .     S
O477   Zn494   1.921   .     S
O479   H613    1.014   1_455 S
O484   Zn494   1.927   .     S
O487   Zn497   1.929   .     S
O488   Zn495   1.925   .     S
O489   Zn496   1.941   .     S
O490   Zn497   1.935   .     S
O491   Zn494   1.920   .     S
O492   Zn495   1.937   .     S
O493   Zn496   1.930   .     S
C498   C508    1.439   .     S
C498   O559    1.273   .     A
C498   O561    1.265   .     A
C499   C500    1.385   .     A
C499   C526    1.416   .     A
C499   H541    1.076   .     S
C500   H538    1.084   .     S
C500   C1141   1.390   .     S
C501   O560    1.278   .     A
C501   O562    1.283   .     A
C501   C507    1.467   .     S
C502   C503    1.416   .     A
C502   C504    1.402   .     A
C502   C1139   1.390   1_554 S
C503   C506    1.409   .     A
C503   C527    1.430   .     A
C504   C505    1.400   .     A
C504   H530    1.084   .     S
C505   C522    1.493   .     S
C505   C517    1.414   .     A
C506   C517    1.395   .     A
C506   H532    1.077   .     S
C507   C579    1.345   .     S
C507   C592    1.498   .     S
C509   C516    1.416   .     A
C509   C523    1.481   .     S
C509   C518    1.396   .     A
C510   C513    1.451   .     S
C510   C85     1.331   1_565 S
C510   H110    1.088   1_565 S
C511   C512    1.435   .     S
C512   O555    1.280   .     A
C512   O563    1.280   .     A
C513   O564    1.266   .     A
C513   O558    1.267   .     A
C514   O547    1.271   .     A
C514   C517    1.458   .     S
C514   O545    1.275   .     A
C515   O548    1.290   .     A
C515   O546    1.281   .     A
C515   C516    1.483   .     S
C516   C520    1.399   .     A
C518   C525    1.408   .     A
C518   H539    1.081   .     S
C519   C529    1.488   .     S
C519   O550    1.398   .     S
C519   O549    1.223   .     D
C520   C524    1.412   .     A
C520   H535    1.075   .     S
C521   O551    1.223   .     D
C521   O552    1.399   .     S
C522   O553    1.223   .     D
C522   O554    1.399   .     S
C523   O556    1.223   .     D
C523   O557    1.398   .     S
C524   C526    1.428   .     A
C524   C525    1.422   .     A
C525   C1168   1.412   .     S
C526   C1166   1.424   .     S
C527   C528    1.411   .     A
C527   C1165   1.424   1_554 S
C528   C529    1.395   .     A
C528   H540    1.077   .     S
C529   C1164   1.412   1_554 S
H531   C579    1.087   .     S
H533   O554    1.014   .     S
H534   O557    1.014   .     S
H537   C85     1.086   1_565 S
H542   O621    1.014   .     S
H543   O552    1.014   .     S
O544   Zn567   1.924   .     S
O544   Zn568   1.926   .     S
O544   Zn565   1.966   .     S
O544   Zn566   1.947   .     S
O545   Zn566   1.924   .     S
O546   Zn568   1.941   .     S
O547   Zn567   1.936   .     S
O548   Zn565   1.921   .     S
O555   Zn565   1.927   .     S
O558   Zn568   1.929   .     S
O559   Zn566   1.925   .     S
O560   Zn567   1.941   .     S
O561   Zn568   1.935   .     S
O562   Zn565   1.920   .     S
O563   Zn566   1.937   .     S
O564   Zn567   1.930   .     S
C569   C579    1.439   .     S
C569   O630    1.273   .     A
C569   O632    1.265   .     A
C570   C571    1.385   .     A
C570   C597    1.416   .     A
C570   H612    1.076   .     S
C571   H609    1.084   .     S
C571   C1212   1.390   .     S
C572   O631    1.278   .     A
C572   O633    1.283   .     A
C572   C578    1.467   .     S
C573   C574    1.416   .     A
C573   C575    1.402   .     A
C573   C1210   1.390   1_554 S
C574   C577    1.409   .     A
C574   C598    1.430   .     A
C575   C576    1.400   .     A
C575   H601    1.084   .     S
C576   C593    1.493   .     S
C576   C588    1.414   .     A
C577   C588    1.395   .     A
C577   H603    1.077   .     S
C578   C437    1.345   1_655 S
C578   C450    1.498   1_655 S
C580   C587    1.416   .     A
C580   C594    1.481   .     S
C580   C589    1.396   .     A
C581   C584    1.451   .     S
C581   C156    1.331   1_565 S
C581   H181    1.088   1_565 S
C582   C583    1.435   .     S
C583   O626    1.280   .     A
C583   O634    1.280   .     A
C584   O635    1.266   .     A
C584   O629    1.267   .     A
C585   O618    1.271   .     A
C585   C588    1.458   .     S
C585   O616    1.275   .     A
C586   O619    1.290   .     A
C586   O617    1.281   .     A
C586   C587    1.483   .     S
C587   C591    1.399   .     A
C589   C596    1.408   .     A
C589   H610    1.081   .     S
C590   C600    1.488   .     S
C590   O621    1.398   .     S
C590   O620    1.223   .     D
C591   C595    1.412   .     A
C591   H606    1.075   .     S
C592   O622    1.223   .     D
C592   O623    1.399   .     S
C593   O624    1.223   .     D
C593   O625    1.399   .     S
C594   O627    1.223   .     D
C594   O628    1.398   .     S
C595   C597    1.428   .     A
C595   C596    1.422   .     A
C596   C1239   1.412   .     S
C597   C1237   1.424   .     S
C598   C599    1.411   .     A
C598   C1236   1.424   1_554 S
C599   C600    1.395   .     A
C599   H611    1.077   .     S
C600   C1235   1.412   1_554 S
H602   C437    1.087   1_655 S
H604   O625    1.014   .     S
H605   O628    1.014   .     S
H608   C156    1.086   1_565 S
H613   O479    1.014   1_655 S
H614   O623    1.014   .     S
O615   Zn638   1.924   .     S
O615   Zn639   1.926   .     S
O615   Zn636   1.966   .     S
O615   Zn637   1.947   .     S
O616   Zn637   1.924   .     S
O617   Zn639   1.941   .     S
O618   Zn638   1.936   .     S
O619   Zn636   1.921   .     S
O626   Zn636   1.927   .     S
O629   Zn639   1.929   .     S
O630   Zn637   1.925   .     S
O631   Zn638   1.941   .     S
O632   Zn639   1.935   .     S
O633   Zn636   1.920   .     S
O634   Zn637   1.937   .     S
O635   Zn638   1.930   .     S
C640   C650    1.439   .     S
C640   O701    1.273   .     A
C640   O703    1.265   .     A
C641   C642    1.385   .     A
C641   C668    1.416   .     A
C641   H683    1.076   .     S
C642   H680    1.084   .     S
C642   C5      1.390   1_556 S
C643   O702    1.278   .     A
C643   O704    1.283   .     A
C643   C649    1.467   .     S
C644   C645    1.416   .     A
C644   C646    1.402   .     A
C645   C648    1.409   .     A
C645   C669    1.430   .     A
C646   C647    1.400   .     A
C646   H672    1.084   .     S
C647   C664    1.493   .     S
C647   C659    1.414   .     A
C648   C659    1.395   .     A
C648   H674    1.077   .     S
C649   C721    1.345   .     S
C649   C734    1.498   .     S
C650   C791    1.345   1_455 S
C650   H815    1.087   1_455 S
C651   C658    1.416   .     A
C651   C665    1.481   .     S
C651   C660    1.396   .     A
C652   C655    1.451   .     S
C652   C866    1.331   .     S
C652   H891    1.088   .     S
C653   C654    1.435   .     S
C653   C1078   1.331   1_545 S
C653   H1105   1.086   1_545 S
C654   O697    1.280   .     A
C654   O705    1.280   .     A
C655   O706    1.266   .     A
C655   O700    1.267   .     A
C656   O689    1.271   .     A
C656   C659    1.458   .     S
C656   O687    1.275   .     A
C657   O690    1.290   .     A
C657   O688    1.281   .     A
C657   C658    1.483   .     S
C658   C662    1.399   .     A
C660   C667    1.408   .     A
C660   H681    1.081   .     S
C661   C671    1.488   .     S
C661   O692    1.398   .     S
C661   O691    1.223   .     D
C662   C666    1.412   .     A
C662   H677    1.075   .     S
C663   O693    1.223   .     D
C663   O694    1.399   .     S
C663   C791    1.498   1_455 S
C664   O695    1.223   .     D
C664   O696    1.399   .     S
C665   O698    1.223   .     D
C665   O699    1.398   .     S
C666   C668    1.428   .     A
C666   C667    1.422   .     A
C667   C32     1.412   1_556 S
C668   C30     1.424   1_556 S
C669   C670    1.411   .     A
C670   C671    1.395   .     A
C670   H682    1.077   .     S
H673   C721    1.087   .     S
H675   O696    1.014   .     S
H676   O699    1.014   .     S
H678   C1078   1.088   1_545 S
H679   C866    1.086   .     S
H684   O763    1.014   .     S
H685   O694    1.014   .     S
O686   Zn709   1.924   .     S
O686   Zn710   1.926   .     S
O686   Zn707   1.966   .     S
O686   Zn708   1.947   .     S
O687   Zn708   1.924   .     S
O688   Zn710   1.941   .     S
O689   Zn709   1.936   .     S
O690   Zn707   1.921   .     S
O692   H826    1.014   1_455 S
O697   Zn707   1.927   .     S
O700   Zn710   1.929   .     S
O701   Zn708   1.925   .     S
O702   Zn709   1.941   .     S
O703   Zn710   1.935   .     S
O704   Zn707   1.920   .     S
O705   Zn708   1.937   .     S
O706   Zn709   1.930   .     S
C711   C721    1.439   .     S
C711   O772    1.273   .     A
C711   O774    1.265   .     A
C712   C713    1.385   .     A
C712   C739    1.416   .     A
C712   H754    1.076   .     S
C713   H751    1.084   .     S
C713   C76     1.390   1_556 S
C714   O773    1.278   .     A
C714   O775    1.283   .     A
C714   C720    1.467   .     S
C715   C716    1.416   .     A
C715   C717    1.402   .     A
C716   C719    1.409   .     A
C716   C740    1.430   .     A
C717   C718    1.400   .     A
C717   H743    1.084   .     S
C718   C735    1.493   .     S
C718   C730    1.414   .     A
C719   C730    1.395   .     A
C719   H745    1.077   .     S
C720   C792    1.345   .     S
C720   C805    1.498   .     S
C722   C729    1.416   .     A
C722   C736    1.481   .     S
C722   C731    1.396   .     A
C723   C726    1.451   .     S
C723   C937    1.331   .     S
C723   H962    1.088   .     S
C724   C725    1.435   .     S
C724   C1149   1.331   1_545 S
C724   H1176   1.086   1_545 S
C725   O768    1.280   .     A
C725   O776    1.280   .     A
C726   O777    1.266   .     A
C726   O771    1.267   .     A
C727   O760    1.271   .     A
C727   C730    1.458   .     S
C727   O758    1.275   .     A
C728   O761    1.290   .     A
C728   O759    1.281   .     A
C728   C729    1.483   .     S
C729   C733    1.399   .     A
C731   C738    1.408   .     A
C731   H752    1.081   .     S
C732   C742    1.488   .     S
C732   O763    1.398   .     S
C732   O762    1.223   .     D
C733   C737    1.412   .     A
C733   H748    1.075   .     S
C734   O764    1.223   .     D
C734   O765    1.399   .     S
C735   O766    1.223   .     D
C735   O767    1.399   .     S
C736   O769    1.223   .     D
C736   O770    1.398   .     S
C737   C739    1.428   .     A
C737   C738    1.422   .     A
C738   C103    1.412   1_556 S
C739   C101    1.424   1_556 S
C740   C741    1.411   .     A
C741   C742    1.395   .     A
C741   H753    1.077   .     S
H744   C792    1.087   .     S
H746   O767    1.014   .     S
H747   O770    1.014   .     S
H749   C1149   1.088   1_545 S
H750   C937    1.086   .     S
H755   O834    1.014   .     S
H756   O765    1.014   .     S
O757   Zn780   1.924   .     S
O757   Zn781   1.926   .     S
O757   Zn778   1.966   .     S
O757   Zn779   1.947   .     S
O758   Zn779   1.924   .     S
O759   Zn781   1.941   .     S
O760   Zn780   1.936   .     S
O761   Zn778   1.921   .     S
O768   Zn778   1.927   .     S
O771   Zn781   1.929   .     S
O772   Zn779   1.925   .     S
O773   Zn780   1.941   .     S
O774   Zn781   1.935   .     S
O775   Zn778   1.920   .     S
O776   Zn779   1.937   .     S
O777   Zn780   1.930   .     S
C782   C792    1.439   .     S
C782   O843    1.273   .     A
C782   O845    1.265   .     A
C783   C784    1.385   .     A
C783   C810    1.416   .     A
C783   H825    1.076   .     S
C784   H822    1.084   .     S
C784   C147    1.390   1_556 S
C785   O844    1.278   .     A
C785   O846    1.283   .     A
C785   C791    1.467   .     S
C786   C787    1.416   .     A
C786   C788    1.402   .     A
C787   C790    1.409   .     A
C787   C811    1.430   .     A
C788   C789    1.400   .     A
C788   H814    1.084   .     S
C789   C806    1.493   .     S
C789   C801    1.414   .     A
C790   C801    1.395   .     A
C790   H816    1.077   .     S
C791   C650    1.345   1_655 S
C791   C663    1.498   1_655 S
C793   C800    1.416   .     A
C793   C807    1.481   .     S
C793   C802    1.396   .     A
C794   C797    1.451   .     S
C794   C1008   1.331   .     S
C794   H1033   1.088   .     S
C795   C796    1.435   .     S
C795   C1220   1.331   1_545 S
C795   H1247   1.086   1_545 S
C796   O839    1.280   .     A
C796   O847    1.280   .     A
C797   O848    1.266   .     A
C797   O842    1.267   .     A
C798   O831    1.271   .     A
C798   C801    1.458   .     S
C798   O829    1.275   .     A
C799   O832    1.290   .     A
C799   O830    1.281   .     A
C799   C800    1.483   .     S
C800   C804    1.399   .     A
C802   C809    1.408   .     A
C802   H823    1.081   .     S
C803   C813    1.488   .     S
C803   O834    1.398   .     S
C803   O833    1.223   .     D
C804   C808    1.412   .     A
C804   H819    1.075   .     S
C805   O835    1.223   .     D
C805   O836    1.399   .     S
C806   O837    1.223   .     D
C806   O838    1.399   .     S
C807   O840    1.223   .     D
C807   O841    1.398   .     S
C808   C810    1.428   .     A
C808   C809    1.422   .     A
C809   C174    1.412   1_556 S
C810   C172    1.424   1_556 S
C811   C812    1.411   .     A
C812   C813    1.395   .     A
C812   H824    1.077   .     S
H815   C650    1.087   1_655 S
H817   O838    1.014   .     S
H818   O841    1.014   .     S
H820   C1220   1.088   1_545 S
H821   C1008   1.086   .     S
H826   O692    1.014   1_655 S
H827   O836    1.014   .     S
O828   Zn851   1.924   .     S
O828   Zn852   1.926   .     S
O828   Zn849   1.966   .     S
O828   Zn850   1.947   .     S
O829   Zn850   1.924   .     S
O830   Zn852   1.941   .     S
O831   Zn851   1.936   .     S
O832   Zn849   1.921   .     S
O839   Zn849   1.927   .     S
O842   Zn852   1.929   .     S
O843   Zn850   1.925   .     S
O844   Zn851   1.941   .     S
O845   Zn852   1.935   .     S
O846   Zn849   1.920   .     S
O847   Zn850   1.937   .     S
O848   Zn851   1.930   .     S
C853   C863    1.439   .     S
C853   O914    1.273   .     A
C853   O916    1.265   .     A
C854   C855    1.385   .     A
C854   C881    1.416   .     A
C854   H896    1.076   .     S
C855   H893    1.084   .     S
C855   C218    1.390   1_556 S
C856   O915    1.278   .     A
C856   O917    1.283   .     A
C856   C862    1.467   .     S
C857   C858    1.416   .     A
C857   C859    1.402   .     A
C858   C861    1.409   .     A
C858   C882    1.430   .     A
C859   C860    1.400   .     A
C859   H885    1.084   .     S
C860   C877    1.493   .     S
C860   C872    1.414   .     A
C861   C872    1.395   .     A
C861   H887    1.077   .     S
C862   C934    1.345   .     S
C862   C947    1.498   .     S
C863   C1004   1.345   1_455 S
C863   H1028   1.087   1_455 S
C864   C871    1.416   .     A
C864   C878    1.481   .     S
C864   C873    1.396   .     A
C865   C868    1.451   .     S
C865   C1079   1.331   .     S
C865   H1104   1.088   .     S
C866   C867    1.435   .     S
C867   O910    1.280   .     A
C867   O918    1.280   .     A
C868   O919    1.266   .     A
C868   O913    1.267   .     A
C869   O902    1.271   .     A
C869   C872    1.458   .     S
C869   O900    1.275   .     A
C870   O903    1.290   .     A
C870   O901    1.281   .     A
C870   C871    1.483   .     S
C871   C875    1.399   .     A
C873   C880    1.408   .     A
C873   H894    1.081   .     S
C874   C884    1.488   .     S
C874   O905    1.398   .     S
C874   O904    1.223   .     D
C875   C879    1.412   .     A
C875   H890    1.075   .     S
C876   O906    1.223   .     D
C876   O907    1.399   .     S
C876   C1004   1.498   1_455 S
C877   O908    1.223   .     D
C877   O909    1.399   .     S
C878   O911    1.223   .     D
C878   O912    1.398   .     S
C879   C881    1.428   .     A
C879   C880    1.422   .     A
C880   C245    1.412   1_556 S
C881   C243    1.424   1_556 S
C882   C883    1.411   .     A
C883   C884    1.395   .     A
C883   H895    1.077   .     S
H886   C934    1.087   .     S
H888   O909    1.014   .     S
H889   O912    1.014   .     S
H892   C1079   1.086   .     S
H897   O976    1.014   .     S
H898   O907    1.014   .     S
O899   Zn922   1.924   .     S
O899   Zn923   1.926   .     S
O899   Zn920   1.966   .     S
O899   Zn921   1.947   .     S
O900   Zn921   1.924   .     S
O901   Zn923   1.941   .     S
O902   Zn922   1.936   .     S
O903   Zn920   1.921   .     S
O905   H1039   1.014   1_455 S
O910   Zn920   1.927   .     S
O913   Zn923   1.929   .     S
O914   Zn921   1.925   .     S
O915   Zn922   1.941   .     S
O916   Zn923   1.935   .     S
O917   Zn920   1.920   .     S
O918   Zn921   1.937   .     S
O919   Zn922   1.930   .     S
C924   C934    1.439   .     S
C924   O985    1.273   .     A
C924   O987    1.265   .     A
C925   C926    1.385   .     A
C925   C952    1.416   .     A
C925   H967    1.076   .     S
C926   H964    1.084   .     S
C926   C289    1.390   1_556 S
C927   O986    1.278   .     A
C927   O988    1.283   .     A
C927   C933    1.467   .     S
C928   C929    1.416   .     A
C928   C930    1.402   .     A
C929   C932    1.409   .     A
C929   C953    1.430   .     A
C930   C931    1.400   .     A
C930   H956    1.084   .     S
C931   C948    1.493   .     S
C931   C943    1.414   .     A
C932   C943    1.395   .     A
C932   H958    1.077   .     S
C933   C1005   1.345   .     S
C933   C1018   1.498   .     S
C935   C942    1.416   .     A
C935   C949    1.481   .     S
C935   C944    1.396   .     A
C936   C939    1.451   .     S
C936   C1150   1.331   .     S
C936   H1175   1.088   .     S
C937   C938    1.435   .     S
C938   O981    1.280   .     A
C938   O989    1.280   .     A
C939   O990    1.266   .     A
C939   O984    1.267   .     A
C940   O973    1.271   .     A
C940   C943    1.458   .     S
C940   O971    1.275   .     A
C941   O974    1.290   .     A
C941   O972    1.281   .     A
C941   C942    1.483   .     S
C942   C946    1.399   .     A
C944   C951    1.408   .     A
C944   H965    1.081   .     S
C945   C955    1.488   .     S
C945   O976    1.398   .     S
C945   O975    1.223   .     D
C946   C950    1.412   .     A
C946   H961    1.075   .     S
C947   O977    1.223   .     D
C947   O978    1.399   .     S
C948   O979    1.223   .     D
C948   O980    1.399   .     S
C949   O982    1.223   .     D
C949   O983    1.398   .     S
C950   C952    1.428   .     A
C950   C951    1.422   .     A
C951   C316    1.412   1_556 S
C952   C314    1.424   1_556 S
C953   C954    1.411   .     A
C954   C955    1.395   .     A
C954   H966    1.077   .     S
H957   C1005   1.087   .     S
H959   O980    1.014   .     S
H960   O983    1.014   .     S
H963   C1150   1.086   .     S
H968   O1047   1.014   .     S
H969   O978    1.014   .     S
O970   Zn993   1.924   .     S
O970   Zn994   1.926   .     S
O970   Zn991   1.966   .     S
O970   Zn992   1.947   .     S
O971   Zn992   1.924   .     S
O972   Zn994   1.941   .     S
O973   Zn993   1.936   .     S
O974   Zn991   1.921   .     S
O981   Zn991   1.927   .     S
O984   Zn994   1.929   .     S
O985   Zn992   1.925   .     S
O986   Zn993   1.941   .     S
O987   Zn994   1.935   .     S
O988   Zn991   1.920   .     S
O989   Zn992   1.937   .     S
O990   Zn993   1.930   .     S
C995   C1005   1.439   .     S
C995   O1056   1.273   .     A
C995   O1058   1.265   .     A
C996   C997    1.385   .     A
C996   C1023   1.416   .     A
C996   H1038   1.076   .     S
C997   H1035   1.084   .     S
C997   C360    1.390   1_556 S
C998   O1057   1.278   .     A
C998   O1059   1.283   .     A
C998   C1004   1.467   .     S
C999   C1000   1.416   .     A
C999   C1001   1.402   .     A
C1000  C1003   1.409   .     A
C1000  C1024   1.430   .     A
C1001  C1002   1.400   .     A
C1001  H1027   1.084   .     S
C1002  C1019   1.493   .     S
C1002  C1014   1.414   .     A
C1003  C1014   1.395   .     A
C1003  H1029   1.077   .     S
C1004  C863    1.345   1_655 S
C1004  C876    1.498   1_655 S
C1006  C1013   1.416   .     A
C1006  C1020   1.481   .     S
C1006  C1015   1.396   .     A
C1007  C1010   1.451   .     S
C1007  C1221   1.331   .     S
C1007  H1246   1.088   .     S
C1008  C1009   1.435   .     S
C1009  O1052   1.280   .     A
C1009  O1060   1.280   .     A
C1010  O1061   1.266   .     A
C1010  O1055   1.267   .     A
C1011  O1044   1.271   .     A
C1011  C1014   1.458   .     S
C1011  O1042   1.275   .     A
C1012  O1045   1.290   .     A
C1012  O1043   1.281   .     A
C1012  C1013   1.483   .     S
C1013  C1017   1.399   .     A
C1015  C1022   1.408   .     A
C1015  H1036   1.081   .     S
C1016  C1026   1.488   .     S
C1016  O1047   1.398   .     S
C1016  O1046   1.223   .     D
C1017  C1021   1.412   .     A
C1017  H1032   1.075   .     S
C1018  O1048   1.223   .     D
C1018  O1049   1.399   .     S
C1019  O1050   1.223   .     D
C1019  O1051   1.399   .     S
C1020  O1053   1.223   .     D
C1020  O1054   1.398   .     S
C1021  C1023   1.428   .     A
C1021  C1022   1.422   .     A
C1022  C387    1.412   1_556 S
C1023  C385    1.424   1_556 S
C1024  C1025   1.411   .     A
C1025  C1026   1.395   .     A
C1025  H1037   1.077   .     S
H1028  C863    1.087   1_655 S
H1030  O1051   1.014   .     S
H1031  O1054   1.014   .     S
H1034  C1221   1.086   .     S
H1039  O905    1.014   1_655 S
H1040  O1049   1.014   .     S
O1041  Zn1064  1.924   .     S
O1041  Zn1065  1.926   .     S
O1041  Zn1062  1.966   .     S
O1041  Zn1063  1.947   .     S
O1042  Zn1063  1.924   .     S
O1043  Zn1065  1.941   .     S
O1044  Zn1064  1.936   .     S
O1045  Zn1062  1.921   .     S
O1052  Zn1062  1.927   .     S
O1055  Zn1065  1.929   .     S
O1056  Zn1063  1.925   .     S
O1057  Zn1064  1.941   .     S
O1058  Zn1065  1.935   .     S
O1059  Zn1062  1.920   .     S
O1060  Zn1063  1.937   .     S
O1061  Zn1064  1.930   .     S
C1066  C1076   1.439   .     S
C1066  O1127   1.273   .     A
C1066  O1129   1.265   .     A
C1067  C1068   1.385   .     A
C1067  C1094   1.416   .     A
C1067  H1109   1.076   .     S
C1068  H1106   1.084   .     S
C1068  C431    1.390   1_556 S
C1069  O1128   1.278   .     A
C1069  O1130   1.283   .     A
C1069  C1075   1.467   .     S
C1070  C1071   1.416   .     A
C1070  C1072   1.402   .     A
C1071  C1074   1.409   .     A
C1071  C1095   1.430   .     A
C1072  C1073   1.400   .     A
C1072  H1098   1.084   .     S
C1073  C1090   1.493   .     S
C1073  C1085   1.414   .     A
C1074  C1085   1.395   .     A
C1074  H1100   1.077   .     S
C1075  C1147   1.345   .     S
C1075  C1160   1.498   .     S
C1076  C1217   1.345   1_455 S
C1076  H1241   1.087   1_455 S
C1077  C1084   1.416   .     A
C1077  C1091   1.481   .     S
C1077  C1086   1.396   .     A
C1078  C1081   1.451   .     S
C1078  C653    1.331   1_565 S
C1078  H678    1.088   1_565 S
C1079  C1080   1.435   .     S
C1080  O1123   1.280   .     A
C1080  O1131   1.280   .     A
C1081  O1132   1.266   .     A
C1081  O1126   1.267   .     A
C1082  O1115   1.271   .     A
C1082  C1085   1.458   .     S
C1082  O1113   1.275   .     A
C1083  O1116   1.290   .     A
C1083  O1114   1.281   .     A
C1083  C1084   1.483   .     S
C1084  C1088   1.399   .     A
C1086  C1093   1.408   .     A
C1086  H1107   1.081   .     S
C1087  C1097   1.488   .     S
C1087  O1118   1.398   .     S
C1087  O1117   1.223   .     D
C1088  C1092   1.412   .     A
C1088  H1103   1.075   .     S
C1089  O1119   1.223   .     D
C1089  O1120   1.399   .     S
C1089  C1217   1.498   1_455 S
C1090  O1121   1.223   .     D
C1090  O1122   1.399   .     S
C1091  O1124   1.223   .     D
C1091  O1125   1.398   .     S
C1092  C1094   1.428   .     A
C1092  C1093   1.422   .     A
C1093  C458    1.412   1_556 S
C1094  C456    1.424   1_556 S
C1095  C1096   1.411   .     A
C1096  C1097   1.395   .     A
C1096  H1108   1.077   .     S
H1099  C1147   1.087   .     S
H1101  O1122   1.014   .     S
H1102  O1125   1.014   .     S
H1105  C653    1.086   1_565 S
H1110  O1189   1.014   .     S
H1111  O1120   1.014   .     S
O1112  Zn1135  1.924   .     S
O1112  Zn1136  1.926   .     S
O1112  Zn1133  1.966   .     S
O1112  Zn1134  1.947   .     S
O1113  Zn1134  1.924   .     S
O1114  Zn1136  1.941   .     S
O1115  Zn1135  1.936   .     S
O1116  Zn1133  1.921   .     S
O1118  H1252   1.014   1_455 S
O1123  Zn1133  1.927   .     S
O1126  Zn1136  1.929   .     S
O1127  Zn1134  1.925   .     S
O1128  Zn1135  1.941   .     S
O1129  Zn1136  1.935   .     S
O1130  Zn1133  1.920   .     S
O1131  Zn1134  1.937   .     S
O1132  Zn1135  1.930   .     S
C1137  C1147   1.439   .     S
C1137  O1198   1.273   .     A
C1137  O1200   1.265   .     A
C1138  C1139   1.385   .     A
C1138  C1165   1.416   .     A
C1138  H1180   1.076   .     S
C1139  H1177   1.084   .     S
C1139  C502    1.390   1_556 S
C1140  O1199   1.278   .     A
C1140  O1201   1.283   .     A
C1140  C1146   1.467   .     S
C1141  C1142   1.416   .     A
C1141  C1143   1.402   .     A
C1142  C1145   1.409   .     A
C1142  C1166   1.430   .     A
C1143  C1144   1.400   .     A
C1143  H1169   1.084   .     S
C1144  C1161   1.493   .     S
C1144  C1156   1.414   .     A
C1145  C1156   1.395   .     A
C1145  H1171   1.077   .     S
C1146  C1218   1.345   .     S
C1146  C1231   1.498   .     S
C1148  C1155   1.416   .     A
C1148  C1162   1.481   .     S
C1148  C1157   1.396   .     A
C1149  C1152   1.451   .     S
C1149  C724    1.331   1_565 S
C1149  H749    1.088   1_565 S
C1150  C1151   1.435   .     S
C1151  O1194   1.280   .     A
C1151  O1202   1.280   .     A
C1152  O1203   1.266   .     A
C1152  O1197   1.267   .     A
C1153  O1186   1.271   .     A
C1153  C1156   1.458   .     S
C1153  O1184   1.275   .     A
C1154  O1187   1.290   .     A
C1154  O1185   1.281   .     A
C1154  C1155   1.483   .     S
C1155  C1159   1.399   .     A
C1157  C1164   1.408   .     A
C1157  H1178   1.081   .     S
C1158  C1168   1.488   .     S
C1158  O1189   1.398   .     S
C1158  O1188   1.223   .     D
C1159  C1163   1.412   .     A
C1159  H1174   1.075   .     S
C1160  O1190   1.223   .     D
C1160  O1191   1.399   .     S
C1161  O1192   1.223   .     D
C1161  O1193   1.399   .     S
C1162  O1195   1.223   .     D
C1162  O1196   1.398   .     S
C1163  C1165   1.428   .     A
C1163  C1164   1.422   .     A
C1164  C529    1.412   1_556 S
C1165  C527    1.424   1_556 S
C1166  C1167   1.411   .     A
C1167  C1168   1.395   .     A
C1167  H1179   1.077   .     S
H1170  C1218   1.087   .     S
H1172  O1193   1.014   .     S
H1173  O1196   1.014   .     S
H1176  C724    1.086   1_565 S
H1181  O1260   1.014   .     S
H1182  O1191   1.014   .     S
O1183  Zn1206  1.924   .     S
O1183  Zn1207  1.926   .     S
O1183  Zn1204  1.966   .     S
O1183  Zn1205  1.947   .     S
O1184  Zn1205  1.924   .     S
O1185  Zn1207  1.941   .     S
O1186  Zn1206  1.936   .     S
O1187  Zn1204  1.921   .     S
O1194  Zn1204  1.927   .     S
O1197  Zn1207  1.929   .     S
O1198  Zn1205  1.925   .     S
O1199  Zn1206  1.941   .     S
O1200  Zn1207  1.935   .     S
O1201  Zn1204  1.920   .     S
O1202  Zn1205  1.937   .     S
O1203  Zn1206  1.930   .     S
C1208  C1218   1.439   .     S
C1208  O1269   1.273   .     A
C1208  O1271   1.265   .     A
C1209  C1210   1.385   .     A
C1209  C1236   1.416   .     A
C1209  H1251   1.076   .     S
C1210  H1248   1.084   .     S
C1210  C573    1.390   1_556 S
C1211  O1270   1.278   .     A
C1211  O1272   1.283   .     A
C1211  C1217   1.467   .     S
C1212  C1213   1.416   .     A
C1212  C1214   1.402   .     A
C1213  C1216   1.409   .     A
C1213  C1237   1.430   .     A
C1214  C1215   1.400   .     A
C1214  H1240   1.084   .     S
C1215  C1232   1.493   .     S
C1215  C1227   1.414   .     A
C1216  C1227   1.395   .     A
C1216  H1242   1.077   .     S
C1217  C1076   1.345   1_655 S
C1217  C1089   1.498   1_655 S
C1219  C1226   1.416   .     A
C1219  C1233   1.481   .     S
C1219  C1228   1.396   .     A
C1220  C1223   1.451   .     S
C1220  C795    1.331   1_565 S
C1220  H820    1.088   1_565 S
C1221  C1222   1.435   .     S
C1222  O1265   1.280   .     A
C1222  O1273   1.280   .     A
C1223  O1274   1.266   .     A
C1223  O1268   1.267   .     A
C1224  O1257   1.271   .     A
C1224  C1227   1.458   .     S
C1224  O1255   1.275   .     A
C1225  O1258   1.290   .     A
C1225  O1256   1.281   .     A
C1225  C1226   1.483   .     S
C1226  C1230   1.399   .     A
C1228  C1235   1.408   .     A
C1228  H1249   1.081   .     S
C1229  C1239   1.488   .     S
C1229  O1260   1.398   .     S
C1229  O1259   1.223   .     D
C1230  C1234   1.412   .     A
C1230  H1245   1.075   .     S
C1231  O1261   1.223   .     D
C1231  O1262   1.399   .     S
C1232  O1263   1.223   .     D
C1232  O1264   1.399   .     S
C1233  O1266   1.223   .     D
C1233  O1267   1.398   .     S
C1234  C1236   1.428   .     A
C1234  C1235   1.422   .     A
C1235  C600    1.412   1_556 S
C1236  C598    1.424   1_556 S
C1237  C1238   1.411   .     A
C1238  C1239   1.395   .     A
C1238  H1250   1.077   .     S
H1241  C1076   1.087   1_655 S
H1243  O1264   1.014   .     S
H1244  O1267   1.014   .     S
H1247  C795    1.086   1_565 S
H1252  O1118   1.014   1_655 S
H1253  O1262   1.014   .     S
O1254  Zn1277  1.924   .     S
O1254  Zn1278  1.926   .     S
O1254  Zn1275  1.966   .     S
O1254  Zn1276  1.947   .     S
O1255  Zn1276  1.924   .     S
O1256  Zn1278  1.941   .     S
O1257  Zn1277  1.936   .     S
O1258  Zn1275  1.921   .     S
O1265  Zn1275  1.927   .     S
O1268  Zn1278  1.929   .     S
O1269  Zn1276  1.925   .     S
O1270  Zn1277  1.941   .     S
O1271  Zn1278  1.935   .     S
O1272  Zn1275  1.920   .     S
O1273  Zn1276  1.937   .     S
O1274  Zn1277  1.930   .     S
