data_str_m2_o1_o16_pcu_sym.210
_audit_creation_date              2020-01-03
_audit_creation_method            'Materials Studio'
_symmetry_space_group_name_H-M    'P1'
_symmetry_Int_Tables_number       1
_symmetry_cell_setting            triclinic
loop_
_symmetry_equiv_pos_as_xyz
  x,y,z
_cell_length_a                    28.5413
_cell_length_b                    32.5003
_cell_length_c                    27.0317
_cell_angle_alpha                 90.2852
_cell_angle_beta                  73.1378
_cell_angle_gamma                 90.0822
loop_
_atom_site_label
_atom_site_type_symbol
_atom_site_fract_x
_atom_site_fract_y
_atom_site_fract_z
_atom_site_U_iso_or_equiv
_atom_site_adp_type
_atom_site_occupancy
C1     C     0.16667   0.24598   0.25009   0.00000  Uiso   1.00
C2     C     0.14687   0.15948   0.48851   0.00000  Uiso   1.00
C3     C     0.15991   0.15192   0.43454   0.00000  Uiso   1.00
C4     C     0.18229   0.15288   0.01524   0.00000  Uiso   1.00
C5     C     0.23168   0.14563   0.48709   0.00000  Uiso   1.00
C6     C     0.24313   0.13504   0.43505   0.00000  Uiso   1.00
C7     C     0.20677   0.13505   0.41025   0.00000  Uiso   1.00
C8     C     0.16987   0.15123   0.06921   0.00000  Uiso   1.00
C9     C     0.25601   0.15508   0.06502   0.00000  Uiso   1.00
C10    C     0.12617   0.16242   0.40668   0.00000  Uiso   1.00
C11    C     0.20895   0.31212   0.25113   0.00000  Uiso   1.00
C12    C     0.14087   0.16425   0.34982   0.00000  Uiso   1.00
C13    C     0.20894   0.02135   0.25106   0.00000  Uiso   1.00
C14    C     0.16663   0.04274   0.25006   0.00000  Uiso   1.00
C15    C     0.12432   0.02122   0.24916   0.00000  Uiso   1.00
C16    C     0.12432   0.31199   0.24924   0.00000  Uiso   1.00
C17    C     0.16665   0.29060   0.25017   0.00000  Uiso   1.00
C18    C     0.29971   0.19297   0.28176   0.00000  Uiso   1.00
C19    C     0.01642   0.19281   0.28147   0.00000  Uiso   1.00
C20    C     0.03321   0.14025   0.21895   0.00000  Uiso   1.00
C21    C     0.31703   0.14037   0.21878   0.00000  Uiso   1.00
C22    C     0.16664   0.08735   0.24999   0.00000  Uiso   1.00
C23    C     0.19250   0.16384   0.15031   0.00000  Uiso   1.00
C24    C     0.26833   0.14691   0.01212   0.00000  Uiso   1.00
C25    C     0.20661   0.15699   0.09415   0.00000  Uiso   1.00
C26    C     0.07910   0.17638   0.43356   0.00000  Uiso   1.00
C27    C     0.06651   0.18351   0.48638   0.00000  Uiso   1.00
C28    C     0.10030   0.17646   0.01337   0.00000  Uiso   1.00
Cu29   Cu    0.11978   0.16666   0.25000   0.00000  Uiso   1.00
Cu30   Cu    0.21355   0.16667   0.25000   0.00000  Uiso   1.00
H31    H     0.28491   0.15789   0.08342   0.00000  Uiso   1.00
H32    H     0.24201   0.03742   0.25182   0.00000  Uiso   1.00
H33    H     0.09125   0.29592   0.24850   0.00000  Uiso   1.00
H34    H     0.02889   0.21355   0.30645   0.00000  Uiso   1.00
H35    H     0.05850   0.11878   0.19444   0.00000  Uiso   1.00
H36    H     0.30515   0.11928   0.19375   0.00000  Uiso   1.00
H37    H     0.27987   0.12545   0.41389   0.00000  Uiso   1.00
H38    H     0.30635   0.14217   0.49065   0.00000  Uiso   1.00
H39    H     0.09001   0.18639   0.05324   0.00000  Uiso   1.00
H40    H     0.03107   0.19646   0.00618   0.00000  Uiso   1.00
H41    H     0.21663   0.12201   0.37188   0.00000  Uiso   1.00
H42    H     0.24201   0.29616   0.25193   0.00000  Uiso   1.00
N43    N     0.04931   0.16666   0.24998   0.00000  Uiso   1.00
N44    N     0.28402   0.16669   0.24999   0.00000  Uiso   1.00
O45    O     0.12708   0.22678   0.25000   0.00000  Uiso   1.00
O46    O     0.20627   0.22679   0.25000   0.00000  Uiso   1.00
O47    O     0.10775   0.16665   0.32549   0.00000  Uiso   1.00
O48    O     0.18694   0.16666   0.32549   0.00000  Uiso   1.00
O49    O     0.12706   0.10654   0.24999   0.00000  Uiso   1.00
O50    O     0.20625   0.10655   0.24999   0.00000  Uiso   1.00
O51    O     0.14640   0.16667   0.17451   0.00000  Uiso   1.00
O52    O     0.22559   0.16668   0.17451   0.00000  Uiso   1.00
H53    H     0.09125   0.03718   0.24835   0.00000  Uiso   1.00
O54    O     0.26636   0.21924   0.31373   0.00000  Uiso   1.00
H55    H     0.28327   0.23591   0.33418   0.00000  Uiso   1.00
O56    O     0.12357   0.13798   0.09596   0.00000  Uiso   1.00
H57    H     0.12764   0.11550   0.11906   0.00000  Uiso   1.00
H58    H     0.05275   0.18427   0.41326   0.00000  Uiso   1.00
C59    C     0.50001   0.24598   0.25009   0.00000  Uiso   1.00
C60    C     0.48020   0.15948   0.48851   0.00000  Uiso   1.00
C61    C     0.49324   0.15192   0.43454   0.00000  Uiso   1.00
C62    C     0.51562   0.15288   0.01524   0.00000  Uiso   1.00
C63    C     0.56501   0.14563   0.48709   0.00000  Uiso   1.00
C64    C     0.57646   0.13504   0.43505   0.00000  Uiso   1.00
C65    C     0.54011   0.13505   0.41025   0.00000  Uiso   1.00
C66    C     0.50321   0.15123   0.06921   0.00000  Uiso   1.00
C67    C     0.58935   0.15508   0.06502   0.00000  Uiso   1.00
C68    C     0.45951   0.16242   0.40668   0.00000  Uiso   1.00
C69    C     0.54228   0.31212   0.25113   0.00000  Uiso   1.00
C70    C     0.47420   0.16425   0.34982   0.00000  Uiso   1.00
C71    C     0.54227   0.02135   0.25106   0.00000  Uiso   1.00
C72    C     0.49996   0.04274   0.25006   0.00000  Uiso   1.00
C73    C     0.45765   0.02122   0.24916   0.00000  Uiso   1.00
C74    C     0.45766   0.31199   0.24924   0.00000  Uiso   1.00
C75    C     0.49999   0.29060   0.25017   0.00000  Uiso   1.00
C76    C     0.63304   0.19297   0.28176   0.00000  Uiso   1.00
C77    C     0.34975   0.19281   0.28147   0.00000  Uiso   1.00
C78    C     0.36655   0.14025   0.21895   0.00000  Uiso   1.00
C79    C     0.65036   0.14037   0.21878   0.00000  Uiso   1.00
C80    C     0.49997   0.08735   0.24999   0.00000  Uiso   1.00
C81    C     0.52584   0.16384   0.15031   0.00000  Uiso   1.00
C82    C     0.60166   0.14691   0.01212   0.00000  Uiso   1.00
C83    C     0.53994   0.15699   0.09415   0.00000  Uiso   1.00
C84    C     0.41243   0.17638   0.43356   0.00000  Uiso   1.00
C85    C     0.39985   0.18351   0.48638   0.00000  Uiso   1.00
C86    C     0.43364   0.17646   0.01337   0.00000  Uiso   1.00
Cu87   Cu    0.45311   0.16666   0.25000   0.00000  Uiso   1.00
Cu88   Cu    0.54689   0.16667   0.25000   0.00000  Uiso   1.00
H89    H     0.61825   0.15789   0.08342   0.00000  Uiso   1.00
H90    H     0.57534   0.03742   0.25182   0.00000  Uiso   1.00
H91    H     0.42458   0.29592   0.24850   0.00000  Uiso   1.00
H92    H     0.36222   0.21355   0.30645   0.00000  Uiso   1.00
H93    H     0.39184   0.11878   0.19444   0.00000  Uiso   1.00
H94    H     0.63848   0.11928   0.19375   0.00000  Uiso   1.00
H95    H     0.61321   0.12545   0.41389   0.00000  Uiso   1.00
H96    H     0.63968   0.14217   0.49065   0.00000  Uiso   1.00
H97    H     0.42334   0.18639   0.05324   0.00000  Uiso   1.00
H98    H     0.36440   0.19646   0.00618   0.00000  Uiso   1.00
H99    H     0.54997   0.12201   0.37188   0.00000  Uiso   1.00
H100   H     0.57534   0.29616   0.25193   0.00000  Uiso   1.00
N101   N     0.38265   0.16666   0.24998   0.00000  Uiso   1.00
N102   N     0.61735   0.16669   0.24999   0.00000  Uiso   1.00
O103   O     0.46042   0.22678   0.25000   0.00000  Uiso   1.00
O104   O     0.53961   0.22679   0.25000   0.00000  Uiso   1.00
O105   O     0.44108   0.16665   0.32549   0.00000  Uiso   1.00
O106   O     0.52027   0.16666   0.32549   0.00000  Uiso   1.00
O107   O     0.46039   0.10654   0.24999   0.00000  Uiso   1.00
O108   O     0.53958   0.10655   0.24999   0.00000  Uiso   1.00
O109   O     0.47973   0.16667   0.17451   0.00000  Uiso   1.00
O110   O     0.55892   0.16668   0.17451   0.00000  Uiso   1.00
H111   H     0.42459   0.03718   0.24835   0.00000  Uiso   1.00
O112   O     0.59969   0.21924   0.31373   0.00000  Uiso   1.00
H113   H     0.61660   0.23591   0.33418   0.00000  Uiso   1.00
O114   O     0.45691   0.13798   0.09596   0.00000  Uiso   1.00
H115   H     0.46097   0.11550   0.11906   0.00000  Uiso   1.00
H116   H     0.38608   0.18427   0.41326   0.00000  Uiso   1.00
C117   C     0.83334   0.24598   0.25009   0.00000  Uiso   1.00
C118   C     0.81353   0.15948   0.48851   0.00000  Uiso   1.00
C119   C     0.82658   0.15192   0.43454   0.00000  Uiso   1.00
C120   C     0.84896   0.15288   0.01524   0.00000  Uiso   1.00
C121   C     0.89835   0.14563   0.48709   0.00000  Uiso   1.00
C122   C     0.90979   0.13504   0.43505   0.00000  Uiso   1.00
C123   C     0.87344   0.13505   0.41025   0.00000  Uiso   1.00
C124   C     0.83654   0.15123   0.06921   0.00000  Uiso   1.00
C125   C     0.92268   0.15508   0.06502   0.00000  Uiso   1.00
C126   C     0.79284   0.16242   0.40668   0.00000  Uiso   1.00
C127   C     0.87561   0.31212   0.25113   0.00000  Uiso   1.00
C128   C     0.80753   0.16425   0.34982   0.00000  Uiso   1.00
C129   C     0.87560   0.02135   0.25106   0.00000  Uiso   1.00
C130   C     0.83329   0.04274   0.25006   0.00000  Uiso   1.00
C131   C     0.79098   0.02122   0.24916   0.00000  Uiso   1.00
C132   C     0.79099   0.31199   0.24924   0.00000  Uiso   1.00
C133   C     0.83332   0.29060   0.25017   0.00000  Uiso   1.00
C134   C     0.96638   0.19297   0.28176   0.00000  Uiso   1.00
C135   C     0.68308   0.19281   0.28147   0.00000  Uiso   1.00
C136   C     0.69988   0.14025   0.21895   0.00000  Uiso   1.00
C137   C     0.98370   0.14037   0.21878   0.00000  Uiso   1.00
C138   C     0.83331   0.08735   0.24999   0.00000  Uiso   1.00
C139   C     0.85917   0.16384   0.15031   0.00000  Uiso   1.00
C140   C     0.93499   0.14691   0.01212   0.00000  Uiso   1.00
C141   C     0.87327   0.15699   0.09415   0.00000  Uiso   1.00
C142   C     0.74577   0.17638   0.43356   0.00000  Uiso   1.00
C143   C     0.73318   0.18351   0.48638   0.00000  Uiso   1.00
C144   C     0.76697   0.17646   0.01337   0.00000  Uiso   1.00
Cu145  Cu    0.78645   0.16666   0.25000   0.00000  Uiso   1.00
Cu146  Cu    0.88022   0.16667   0.25000   0.00000  Uiso   1.00
H147   H     0.95158   0.15789   0.08342   0.00000  Uiso   1.00
H148   H     0.90867   0.03742   0.25182   0.00000  Uiso   1.00
H149   H     0.75791   0.29592   0.24850   0.00000  Uiso   1.00
H150   H     0.69555   0.21355   0.30645   0.00000  Uiso   1.00
H151   H     0.72517   0.11878   0.19444   0.00000  Uiso   1.00
H152   H     0.97182   0.11928   0.19375   0.00000  Uiso   1.00
H153   H     0.94654   0.12545   0.41389   0.00000  Uiso   1.00
H154   H     0.97302   0.14217   0.49065   0.00000  Uiso   1.00
H155   H     0.75668   0.18639   0.05324   0.00000  Uiso   1.00
H156   H     0.69774   0.19646   0.00618   0.00000  Uiso   1.00
H157   H     0.88330   0.12201   0.37188   0.00000  Uiso   1.00
H158   H     0.90868   0.29616   0.25193   0.00000  Uiso   1.00
N159   N     0.71598   0.16666   0.24998   0.00000  Uiso   1.00
N160   N     0.95069   0.16669   0.24999   0.00000  Uiso   1.00
O161   O     0.79375   0.22678   0.25000   0.00000  Uiso   1.00
O162   O     0.87294   0.22679   0.25000   0.00000  Uiso   1.00
O163   O     0.77441   0.16665   0.32549   0.00000  Uiso   1.00
O164   O     0.85360   0.16666   0.32549   0.00000  Uiso   1.00
O165   O     0.79373   0.10654   0.24999   0.00000  Uiso   1.00
O166   O     0.87292   0.10655   0.24999   0.00000  Uiso   1.00
O167   O     0.81306   0.16667   0.17451   0.00000  Uiso   1.00
O168   O     0.89225   0.16668   0.17451   0.00000  Uiso   1.00
H169   H     0.75792   0.03718   0.24835   0.00000  Uiso   1.00
O170   O     0.93303   0.21924   0.31373   0.00000  Uiso   1.00
H171   H     0.94993   0.23591   0.33418   0.00000  Uiso   1.00
O172   O     0.79024   0.13798   0.09596   0.00000  Uiso   1.00
H173   H     0.79431   0.11550   0.11906   0.00000  Uiso   1.00
H174   H     0.71942   0.18427   0.41326   0.00000  Uiso   1.00
C175   C     0.16667   0.57931   0.25009   0.00000  Uiso   1.00
C176   C     0.14687   0.49281   0.48851   0.00000  Uiso   1.00
C177   C     0.15991   0.48526   0.43454   0.00000  Uiso   1.00
C178   C     0.18229   0.48621   0.01524   0.00000  Uiso   1.00
C179   C     0.23168   0.47897   0.48709   0.00000  Uiso   1.00
C180   C     0.24313   0.46837   0.43505   0.00000  Uiso   1.00
C181   C     0.20677   0.46839   0.41025   0.00000  Uiso   1.00
C182   C     0.16987   0.48456   0.06921   0.00000  Uiso   1.00
C183   C     0.25601   0.48841   0.06502   0.00000  Uiso   1.00
C184   C     0.12617   0.49575   0.40668   0.00000  Uiso   1.00
C185   C     0.20895   0.64545   0.25113   0.00000  Uiso   1.00
C186   C     0.14087   0.49759   0.34982   0.00000  Uiso   1.00
C187   C     0.20894   0.35469   0.25106   0.00000  Uiso   1.00
C188   C     0.16663   0.37607   0.25006   0.00000  Uiso   1.00
C189   C     0.12432   0.35455   0.24916   0.00000  Uiso   1.00
C190   C     0.12432   0.64532   0.24924   0.00000  Uiso   1.00
C191   C     0.16665   0.62393   0.25017   0.00000  Uiso   1.00
C192   C     0.29971   0.52630   0.28176   0.00000  Uiso   1.00
C193   C     0.01642   0.52615   0.28147   0.00000  Uiso   1.00
C194   C     0.03321   0.47358   0.21895   0.00000  Uiso   1.00
C195   C     0.31703   0.47371   0.21878   0.00000  Uiso   1.00
C196   C     0.16664   0.42069   0.24999   0.00000  Uiso   1.00
C197   C     0.19250   0.49717   0.15031   0.00000  Uiso   1.00
C198   C     0.26833   0.48024   0.01212   0.00000  Uiso   1.00
C199   C     0.20661   0.49033   0.09415   0.00000  Uiso   1.00
C200   C     0.07910   0.50971   0.43356   0.00000  Uiso   1.00
C201   C     0.06651   0.51684   0.48638   0.00000  Uiso   1.00
C202   C     0.10030   0.50979   0.01337   0.00000  Uiso   1.00
Cu203  Cu    0.11978   0.49999   0.25000   0.00000  Uiso   1.00
Cu204  Cu    0.21355   0.50001   0.25000   0.00000  Uiso   1.00
H205   H     0.28491   0.49122   0.08342   0.00000  Uiso   1.00
H206   H     0.24201   0.37075   0.25182   0.00000  Uiso   1.00
H207   H     0.09125   0.62926   0.24850   0.00000  Uiso   1.00
H208   H     0.02889   0.54688   0.30645   0.00000  Uiso   1.00
H209   H     0.05850   0.45211   0.19444   0.00000  Uiso   1.00
H210   H     0.30515   0.45261   0.19375   0.00000  Uiso   1.00
H211   H     0.27987   0.45879   0.41389   0.00000  Uiso   1.00
H212   H     0.30635   0.47551   0.49065   0.00000  Uiso   1.00
H213   H     0.09001   0.51973   0.05324   0.00000  Uiso   1.00
H214   H     0.03107   0.52979   0.00618   0.00000  Uiso   1.00
H215   H     0.21663   0.45534   0.37188   0.00000  Uiso   1.00
H216   H     0.24201   0.62949   0.25193   0.00000  Uiso   1.00
N217   N     0.04931   0.49999   0.24998   0.00000  Uiso   1.00
N218   N     0.28402   0.50002   0.24999   0.00000  Uiso   1.00
O219   O     0.12708   0.56011   0.25000   0.00000  Uiso   1.00
O220   O     0.20627   0.56012   0.25000   0.00000  Uiso   1.00
O221   O     0.10775   0.49998   0.32549   0.00000  Uiso   1.00
O222   O     0.18694   0.49999   0.32549   0.00000  Uiso   1.00
O223   O     0.12706   0.43988   0.24999   0.00000  Uiso   1.00
O224   O     0.20625   0.43989   0.24999   0.00000  Uiso   1.00
O225   O     0.14640   0.50001   0.17451   0.00000  Uiso   1.00
O226   O     0.22559   0.50002   0.17451   0.00000  Uiso   1.00
H227   H     0.09125   0.37051   0.24835   0.00000  Uiso   1.00
O228   O     0.26636   0.55257   0.31373   0.00000  Uiso   1.00
H229   H     0.28327   0.56924   0.33418   0.00000  Uiso   1.00
O230   O     0.12357   0.47131   0.09596   0.00000  Uiso   1.00
H231   H     0.12764   0.44883   0.11906   0.00000  Uiso   1.00
H232   H     0.05275   0.51761   0.41326   0.00000  Uiso   1.00
C233   C     0.50001   0.57931   0.25009   0.00000  Uiso   1.00
C234   C     0.48020   0.49281   0.48851   0.00000  Uiso   1.00
C235   C     0.49324   0.48526   0.43454   0.00000  Uiso   1.00
C236   C     0.51562   0.48621   0.01524   0.00000  Uiso   1.00
C237   C     0.56501   0.47897   0.48709   0.00000  Uiso   1.00
C238   C     0.57646   0.46837   0.43505   0.00000  Uiso   1.00
C239   C     0.54011   0.46839   0.41025   0.00000  Uiso   1.00
C240   C     0.50321   0.48456   0.06921   0.00000  Uiso   1.00
C241   C     0.58935   0.48841   0.06502   0.00000  Uiso   1.00
C242   C     0.45951   0.49575   0.40668   0.00000  Uiso   1.00
C243   C     0.54228   0.64545   0.25113   0.00000  Uiso   1.00
C244   C     0.47420   0.49759   0.34982   0.00000  Uiso   1.00
C245   C     0.54227   0.35469   0.25106   0.00000  Uiso   1.00
C246   C     0.49996   0.37607   0.25006   0.00000  Uiso   1.00
C247   C     0.45765   0.35455   0.24916   0.00000  Uiso   1.00
C248   C     0.45766   0.64532   0.24924   0.00000  Uiso   1.00
C249   C     0.49999   0.62393   0.25017   0.00000  Uiso   1.00
C250   C     0.63304   0.52630   0.28176   0.00000  Uiso   1.00
C251   C     0.34975   0.52615   0.28147   0.00000  Uiso   1.00
C252   C     0.36655   0.47358   0.21895   0.00000  Uiso   1.00
C253   C     0.65036   0.47371   0.21878   0.00000  Uiso   1.00
C254   C     0.49997   0.42069   0.24999   0.00000  Uiso   1.00
C255   C     0.52584   0.49717   0.15031   0.00000  Uiso   1.00
C256   C     0.60166   0.48024   0.01212   0.00000  Uiso   1.00
C257   C     0.53994   0.49033   0.09415   0.00000  Uiso   1.00
C258   C     0.41243   0.50971   0.43356   0.00000  Uiso   1.00
C259   C     0.39985   0.51684   0.48638   0.00000  Uiso   1.00
C260   C     0.43364   0.50979   0.01337   0.00000  Uiso   1.00
Cu261  Cu    0.45311   0.49999   0.25000   0.00000  Uiso   1.00
Cu262  Cu    0.54689   0.50001   0.25000   0.00000  Uiso   1.00
H263   H     0.61825   0.49122   0.08342   0.00000  Uiso   1.00
H264   H     0.57534   0.37075   0.25182   0.00000  Uiso   1.00
H265   H     0.42458   0.62926   0.24850   0.00000  Uiso   1.00
H266   H     0.36222   0.54688   0.30645   0.00000  Uiso   1.00
H267   H     0.39184   0.45211   0.19444   0.00000  Uiso   1.00
H268   H     0.63848   0.45261   0.19375   0.00000  Uiso   1.00
H269   H     0.61321   0.45879   0.41389   0.00000  Uiso   1.00
H270   H     0.63968   0.47551   0.49065   0.00000  Uiso   1.00
H271   H     0.42334   0.51973   0.05324   0.00000  Uiso   1.00
H272   H     0.36440   0.52979   0.00618   0.00000  Uiso   1.00
H273   H     0.54997   0.45534   0.37188   0.00000  Uiso   1.00
H274   H     0.57534   0.62949   0.25193   0.00000  Uiso   1.00
N275   N     0.38265   0.49999   0.24998   0.00000  Uiso   1.00
N276   N     0.61735   0.50002   0.24999   0.00000  Uiso   1.00
O277   O     0.46042   0.56011   0.25000   0.00000  Uiso   1.00
O278   O     0.53961   0.56012   0.25000   0.00000  Uiso   1.00
O279   O     0.44108   0.49998   0.32549   0.00000  Uiso   1.00
O280   O     0.52027   0.49999   0.32549   0.00000  Uiso   1.00
O281   O     0.46039   0.43988   0.24999   0.00000  Uiso   1.00
O282   O     0.53958   0.43989   0.24999   0.00000  Uiso   1.00
O283   O     0.47973   0.50001   0.17451   0.00000  Uiso   1.00
O284   O     0.55892   0.50002   0.17451   0.00000  Uiso   1.00
H285   H     0.42459   0.37051   0.24835   0.00000  Uiso   1.00
O286   O     0.59969   0.55257   0.31373   0.00000  Uiso   1.00
H287   H     0.61660   0.56924   0.33418   0.00000  Uiso   1.00
O288   O     0.45691   0.47131   0.09596   0.00000  Uiso   1.00
H289   H     0.46097   0.44883   0.11906   0.00000  Uiso   1.00
H290   H     0.38608   0.51761   0.41326   0.00000  Uiso   1.00
C291   C     0.83334   0.57931   0.25009   0.00000  Uiso   1.00
C292   C     0.81353   0.49281   0.48851   0.00000  Uiso   1.00
C293   C     0.82658   0.48526   0.43454   0.00000  Uiso   1.00
C294   C     0.84896   0.48621   0.01524   0.00000  Uiso   1.00
C295   C     0.89835   0.47897   0.48709   0.00000  Uiso   1.00
C296   C     0.90979   0.46837   0.43505   0.00000  Uiso   1.00
C297   C     0.87344   0.46839   0.41025   0.00000  Uiso   1.00
C298   C     0.83654   0.48456   0.06921   0.00000  Uiso   1.00
C299   C     0.92268   0.48841   0.06502   0.00000  Uiso   1.00
C300   C     0.79284   0.49575   0.40668   0.00000  Uiso   1.00
C301   C     0.87561   0.64545   0.25113   0.00000  Uiso   1.00
C302   C     0.80753   0.49759   0.34982   0.00000  Uiso   1.00
C303   C     0.87560   0.35469   0.25106   0.00000  Uiso   1.00
C304   C     0.83329   0.37607   0.25006   0.00000  Uiso   1.00
C305   C     0.79098   0.35455   0.24916   0.00000  Uiso   1.00
C306   C     0.79099   0.64532   0.24924   0.00000  Uiso   1.00
C307   C     0.83332   0.62393   0.25017   0.00000  Uiso   1.00
C308   C     0.96638   0.52630   0.28176   0.00000  Uiso   1.00
C309   C     0.68308   0.52615   0.28147   0.00000  Uiso   1.00
C310   C     0.69988   0.47358   0.21895   0.00000  Uiso   1.00
C311   C     0.98370   0.47371   0.21878   0.00000  Uiso   1.00
C312   C     0.83331   0.42069   0.24999   0.00000  Uiso   1.00
C313   C     0.85917   0.49717   0.15031   0.00000  Uiso   1.00
C314   C     0.93499   0.48024   0.01212   0.00000  Uiso   1.00
C315   C     0.87327   0.49033   0.09415   0.00000  Uiso   1.00
C316   C     0.74577   0.50971   0.43356   0.00000  Uiso   1.00
C317   C     0.73318   0.51684   0.48638   0.00000  Uiso   1.00
C318   C     0.76697   0.50979   0.01337   0.00000  Uiso   1.00
Cu319  Cu    0.78645   0.49999   0.25000   0.00000  Uiso   1.00
Cu320  Cu    0.88022   0.50001   0.25000   0.00000  Uiso   1.00
H321   H     0.95158   0.49122   0.08342   0.00000  Uiso   1.00
H322   H     0.90867   0.37075   0.25182   0.00000  Uiso   1.00
H323   H     0.75791   0.62926   0.24850   0.00000  Uiso   1.00
H324   H     0.69555   0.54688   0.30645   0.00000  Uiso   1.00
H325   H     0.72517   0.45211   0.19444   0.00000  Uiso   1.00
H326   H     0.97182   0.45261   0.19375   0.00000  Uiso   1.00
H327   H     0.94654   0.45879   0.41389   0.00000  Uiso   1.00
H328   H     0.97302   0.47551   0.49065   0.00000  Uiso   1.00
H329   H     0.75668   0.51973   0.05324   0.00000  Uiso   1.00
H330   H     0.69774   0.52979   0.00618   0.00000  Uiso   1.00
H331   H     0.88330   0.45534   0.37188   0.00000  Uiso   1.00
H332   H     0.90868   0.62949   0.25193   0.00000  Uiso   1.00
N333   N     0.71598   0.49999   0.24998   0.00000  Uiso   1.00
N334   N     0.95069   0.50002   0.24999   0.00000  Uiso   1.00
O335   O     0.79375   0.56011   0.25000   0.00000  Uiso   1.00
O336   O     0.87294   0.56012   0.25000   0.00000  Uiso   1.00
O337   O     0.77441   0.49998   0.32549   0.00000  Uiso   1.00
O338   O     0.85360   0.49999   0.32549   0.00000  Uiso   1.00
O339   O     0.79373   0.43988   0.24999   0.00000  Uiso   1.00
O340   O     0.87292   0.43989   0.24999   0.00000  Uiso   1.00
O341   O     0.81306   0.50001   0.17451   0.00000  Uiso   1.00
O342   O     0.89225   0.50002   0.17451   0.00000  Uiso   1.00
H343   H     0.75792   0.37051   0.24835   0.00000  Uiso   1.00
O344   O     0.93303   0.55257   0.31373   0.00000  Uiso   1.00
H345   H     0.94993   0.56924   0.33418   0.00000  Uiso   1.00
O346   O     0.79024   0.47131   0.09596   0.00000  Uiso   1.00
H347   H     0.79431   0.44883   0.11906   0.00000  Uiso   1.00
H348   H     0.71942   0.51761   0.41326   0.00000  Uiso   1.00
C349   C     0.16667   0.91265   0.25009   0.00000  Uiso   1.00
C350   C     0.14687   0.82615   0.48851   0.00000  Uiso   1.00
C351   C     0.15991   0.81859   0.43454   0.00000  Uiso   1.00
C352   C     0.18229   0.81954   0.01524   0.00000  Uiso   1.00
C353   C     0.23168   0.81230   0.48709   0.00000  Uiso   1.00
C354   C     0.24313   0.80170   0.43505   0.00000  Uiso   1.00
C355   C     0.20677   0.80172   0.41025   0.00000  Uiso   1.00
C356   C     0.16987   0.81789   0.06921   0.00000  Uiso   1.00
C357   C     0.25601   0.82175   0.06502   0.00000  Uiso   1.00
C358   C     0.12617   0.82909   0.40668   0.00000  Uiso   1.00
C359   C     0.20895   0.97878   0.25113   0.00000  Uiso   1.00
C360   C     0.14087   0.83092   0.34982   0.00000  Uiso   1.00
C361   C     0.20894   0.68802   0.25106   0.00000  Uiso   1.00
C362   C     0.16663   0.70941   0.25006   0.00000  Uiso   1.00
C363   C     0.12432   0.68789   0.24916   0.00000  Uiso   1.00
C364   C     0.12432   0.97865   0.24924   0.00000  Uiso   1.00
C365   C     0.16665   0.95726   0.25017   0.00000  Uiso   1.00
C366   C     0.29971   0.85964   0.28176   0.00000  Uiso   1.00
C367   C     0.01642   0.85948   0.28147   0.00000  Uiso   1.00
C368   C     0.03321   0.80691   0.21895   0.00000  Uiso   1.00
C369   C     0.31703   0.80704   0.21878   0.00000  Uiso   1.00
C370   C     0.16664   0.75402   0.24999   0.00000  Uiso   1.00
C371   C     0.19250   0.83050   0.15031   0.00000  Uiso   1.00
C372   C     0.26833   0.81357   0.01212   0.00000  Uiso   1.00
C373   C     0.20661   0.82366   0.09415   0.00000  Uiso   1.00
C374   C     0.07910   0.84304   0.43356   0.00000  Uiso   1.00
C375   C     0.06651   0.85017   0.48638   0.00000  Uiso   1.00
C376   C     0.10030   0.84313   0.01337   0.00000  Uiso   1.00
Cu377  Cu    0.11978   0.83333   0.25000   0.00000  Uiso   1.00
Cu378  Cu    0.21355   0.83334   0.25000   0.00000  Uiso   1.00
H379   H     0.28491   0.82455   0.08342   0.00000  Uiso   1.00
H380   H     0.24201   0.70409   0.25182   0.00000  Uiso   1.00
H381   H     0.09125   0.96259   0.24850   0.00000  Uiso   1.00
H382   H     0.02889   0.88022   0.30645   0.00000  Uiso   1.00
H383   H     0.05850   0.78545   0.19444   0.00000  Uiso   1.00
H384   H     0.30515   0.78595   0.19375   0.00000  Uiso   1.00
H385   H     0.27987   0.79212   0.41389   0.00000  Uiso   1.00
H386   H     0.30635   0.80884   0.49065   0.00000  Uiso   1.00
H387   H     0.09001   0.85306   0.05324   0.00000  Uiso   1.00
H388   H     0.03107   0.86313   0.00618   0.00000  Uiso   1.00
H389   H     0.21663   0.78867   0.37188   0.00000  Uiso   1.00
H390   H     0.24201   0.96283   0.25193   0.00000  Uiso   1.00
N391   N     0.04931   0.83332   0.24998   0.00000  Uiso   1.00
N392   N     0.28402   0.83335   0.24999   0.00000  Uiso   1.00
O393   O     0.12708   0.89345   0.25000   0.00000  Uiso   1.00
O394   O     0.20627   0.89346   0.25000   0.00000  Uiso   1.00
O395   O     0.10775   0.83332   0.32549   0.00000  Uiso   1.00
O396   O     0.18694   0.83333   0.32549   0.00000  Uiso   1.00
O397   O     0.12706   0.77321   0.24999   0.00000  Uiso   1.00
O398   O     0.20625   0.77322   0.24999   0.00000  Uiso   1.00
O399   O     0.14640   0.83334   0.17451   0.00000  Uiso   1.00
O400   O     0.22559   0.83335   0.17451   0.00000  Uiso   1.00
H401   H     0.09125   0.70385   0.24835   0.00000  Uiso   1.00
O402   O     0.26636   0.88591   0.31373   0.00000  Uiso   1.00
H403   H     0.28327   0.90258   0.33418   0.00000  Uiso   1.00
O404   O     0.12357   0.80464   0.09596   0.00000  Uiso   1.00
H405   H     0.12764   0.78216   0.11906   0.00000  Uiso   1.00
H406   H     0.05275   0.85094   0.41326   0.00000  Uiso   1.00
C407   C     0.50001   0.91265   0.25009   0.00000  Uiso   1.00
C408   C     0.48020   0.82615   0.48851   0.00000  Uiso   1.00
C409   C     0.49324   0.81859   0.43454   0.00000  Uiso   1.00
C410   C     0.51562   0.81954   0.01524   0.00000  Uiso   1.00
C411   C     0.56501   0.81230   0.48709   0.00000  Uiso   1.00
C412   C     0.57646   0.80170   0.43505   0.00000  Uiso   1.00
C413   C     0.54011   0.80172   0.41025   0.00000  Uiso   1.00
C414   C     0.50321   0.81789   0.06921   0.00000  Uiso   1.00
C415   C     0.58935   0.82175   0.06502   0.00000  Uiso   1.00
C416   C     0.45951   0.82909   0.40668   0.00000  Uiso   1.00
C417   C     0.54228   0.97878   0.25113   0.00000  Uiso   1.00
C418   C     0.47420   0.83092   0.34982   0.00000  Uiso   1.00
C419   C     0.54227   0.68802   0.25106   0.00000  Uiso   1.00
C420   C     0.49996   0.70941   0.25006   0.00000  Uiso   1.00
C421   C     0.45765   0.68789   0.24916   0.00000  Uiso   1.00
C422   C     0.45766   0.97865   0.24924   0.00000  Uiso   1.00
C423   C     0.49999   0.95726   0.25017   0.00000  Uiso   1.00
C424   C     0.63304   0.85964   0.28176   0.00000  Uiso   1.00
C425   C     0.34975   0.85948   0.28147   0.00000  Uiso   1.00
C426   C     0.36655   0.80691   0.21895   0.00000  Uiso   1.00
C427   C     0.65036   0.80704   0.21878   0.00000  Uiso   1.00
C428   C     0.49997   0.75402   0.24999   0.00000  Uiso   1.00
C429   C     0.52584   0.83050   0.15031   0.00000  Uiso   1.00
C430   C     0.60166   0.81357   0.01212   0.00000  Uiso   1.00
C431   C     0.53994   0.82366   0.09415   0.00000  Uiso   1.00
C432   C     0.41243   0.84304   0.43356   0.00000  Uiso   1.00
C433   C     0.39985   0.85017   0.48638   0.00000  Uiso   1.00
C434   C     0.43364   0.84313   0.01337   0.00000  Uiso   1.00
Cu435  Cu    0.45311   0.83333   0.25000   0.00000  Uiso   1.00
Cu436  Cu    0.54689   0.83334   0.25000   0.00000  Uiso   1.00
H437   H     0.61825   0.82455   0.08342   0.00000  Uiso   1.00
H438   H     0.57534   0.70409   0.25182   0.00000  Uiso   1.00
H439   H     0.42458   0.96259   0.24850   0.00000  Uiso   1.00
H440   H     0.36222   0.88022   0.30645   0.00000  Uiso   1.00
H441   H     0.39184   0.78545   0.19444   0.00000  Uiso   1.00
H442   H     0.63848   0.78595   0.19375   0.00000  Uiso   1.00
H443   H     0.61321   0.79212   0.41389   0.00000  Uiso   1.00
H444   H     0.63968   0.80884   0.49065   0.00000  Uiso   1.00
H445   H     0.42334   0.85306   0.05324   0.00000  Uiso   1.00
H446   H     0.36440   0.86313   0.00618   0.00000  Uiso   1.00
H447   H     0.54997   0.78867   0.37188   0.00000  Uiso   1.00
H448   H     0.57534   0.96283   0.25193   0.00000  Uiso   1.00
N449   N     0.38265   0.83332   0.24998   0.00000  Uiso   1.00
N450   N     0.61735   0.83335   0.24999   0.00000  Uiso   1.00
O451   O     0.46042   0.89345   0.25000   0.00000  Uiso   1.00
O452   O     0.53961   0.89346   0.25000   0.00000  Uiso   1.00
O453   O     0.44108   0.83332   0.32549   0.00000  Uiso   1.00
O454   O     0.52027   0.83333   0.32549   0.00000  Uiso   1.00
O455   O     0.46039   0.77321   0.24999   0.00000  Uiso   1.00
O456   O     0.53958   0.77322   0.24999   0.00000  Uiso   1.00
O457   O     0.47973   0.83334   0.17451   0.00000  Uiso   1.00
O458   O     0.55892   0.83335   0.17451   0.00000  Uiso   1.00
H459   H     0.42459   0.70385   0.24835   0.00000  Uiso   1.00
O460   O     0.59969   0.88591   0.31373   0.00000  Uiso   1.00
H461   H     0.61660   0.90258   0.33418   0.00000  Uiso   1.00
O462   O     0.45691   0.80464   0.09596   0.00000  Uiso   1.00
H463   H     0.46097   0.78216   0.11906   0.00000  Uiso   1.00
H464   H     0.38608   0.85094   0.41326   0.00000  Uiso   1.00
C465   C     0.83334   0.91265   0.25009   0.00000  Uiso   1.00
C466   C     0.81353   0.82615   0.48851   0.00000  Uiso   1.00
C467   C     0.82658   0.81859   0.43454   0.00000  Uiso   1.00
C468   C     0.84896   0.81954   0.01524   0.00000  Uiso   1.00
C469   C     0.89835   0.81230   0.48709   0.00000  Uiso   1.00
C470   C     0.90979   0.80170   0.43505   0.00000  Uiso   1.00
C471   C     0.87344   0.80172   0.41025   0.00000  Uiso   1.00
C472   C     0.83654   0.81789   0.06921   0.00000  Uiso   1.00
C473   C     0.92268   0.82175   0.06502   0.00000  Uiso   1.00
C474   C     0.79284   0.82909   0.40668   0.00000  Uiso   1.00
C475   C     0.87561   0.97878   0.25113   0.00000  Uiso   1.00
C476   C     0.80753   0.83092   0.34982   0.00000  Uiso   1.00
C477   C     0.87560   0.68802   0.25106   0.00000  Uiso   1.00
C478   C     0.83329   0.70941   0.25006   0.00000  Uiso   1.00
C479   C     0.79098   0.68789   0.24916   0.00000  Uiso   1.00
C480   C     0.79099   0.97865   0.24924   0.00000  Uiso   1.00
C481   C     0.83332   0.95726   0.25017   0.00000  Uiso   1.00
C482   C     0.96638   0.85964   0.28176   0.00000  Uiso   1.00
C483   C     0.68308   0.85948   0.28147   0.00000  Uiso   1.00
C484   C     0.69988   0.80691   0.21895   0.00000  Uiso   1.00
C485   C     0.98370   0.80704   0.21878   0.00000  Uiso   1.00
C486   C     0.83331   0.75402   0.24999   0.00000  Uiso   1.00
C487   C     0.85917   0.83050   0.15031   0.00000  Uiso   1.00
C488   C     0.93499   0.81357   0.01212   0.00000  Uiso   1.00
C489   C     0.87327   0.82366   0.09415   0.00000  Uiso   1.00
C490   C     0.74577   0.84304   0.43356   0.00000  Uiso   1.00
C491   C     0.73318   0.85017   0.48638   0.00000  Uiso   1.00
C492   C     0.76697   0.84313   0.01337   0.00000  Uiso   1.00
Cu493  Cu    0.78645   0.83333   0.25000   0.00000  Uiso   1.00
Cu494  Cu    0.88022   0.83334   0.25000   0.00000  Uiso   1.00
H495   H     0.95158   0.82455   0.08342   0.00000  Uiso   1.00
H496   H     0.90867   0.70409   0.25182   0.00000  Uiso   1.00
H497   H     0.75791   0.96259   0.24850   0.00000  Uiso   1.00
H498   H     0.69555   0.88022   0.30645   0.00000  Uiso   1.00
H499   H     0.72517   0.78545   0.19444   0.00000  Uiso   1.00
H500   H     0.97182   0.78595   0.19375   0.00000  Uiso   1.00
H501   H     0.94654   0.79212   0.41389   0.00000  Uiso   1.00
H502   H     0.97302   0.80884   0.49065   0.00000  Uiso   1.00
H503   H     0.75668   0.85306   0.05324   0.00000  Uiso   1.00
H504   H     0.69774   0.86313   0.00618   0.00000  Uiso   1.00
H505   H     0.88330   0.78867   0.37188   0.00000  Uiso   1.00
H506   H     0.90868   0.96283   0.25193   0.00000  Uiso   1.00
N507   N     0.71598   0.83332   0.24998   0.00000  Uiso   1.00
N508   N     0.95069   0.83335   0.24999   0.00000  Uiso   1.00
O509   O     0.79375   0.89345   0.25000   0.00000  Uiso   1.00
O510   O     0.87294   0.89346   0.25000   0.00000  Uiso   1.00
O511   O     0.77441   0.83332   0.32549   0.00000  Uiso   1.00
O512   O     0.85360   0.83333   0.32549   0.00000  Uiso   1.00
O513   O     0.79373   0.77321   0.24999   0.00000  Uiso   1.00
O514   O     0.87292   0.77322   0.24999   0.00000  Uiso   1.00
O515   O     0.81306   0.83334   0.17451   0.00000  Uiso   1.00
O516   O     0.89225   0.83335   0.17451   0.00000  Uiso   1.00
H517   H     0.75792   0.70385   0.24835   0.00000  Uiso   1.00
O518   O     0.93303   0.88591   0.31373   0.00000  Uiso   1.00
H519   H     0.94993   0.90258   0.33418   0.00000  Uiso   1.00
O520   O     0.79024   0.80464   0.09596   0.00000  Uiso   1.00
H521   H     0.79431   0.78216   0.11906   0.00000  Uiso   1.00
H522   H     0.71942   0.85094   0.41326   0.00000  Uiso   1.00
C523   C     0.16667   0.24598   0.75009   0.00000  Uiso   1.00
C524   C     0.14687   0.15948   0.98851   0.00000  Uiso   1.00
C525   C     0.15991   0.15192   0.93454   0.00000  Uiso   1.00
C526   C     0.18229   0.15288   0.51524   0.00000  Uiso   1.00
C527   C     0.23168   0.14563   0.98709   0.00000  Uiso   1.00
C528   C     0.24313   0.13504   0.93505   0.00000  Uiso   1.00
C529   C     0.20677   0.13505   0.91025   0.00000  Uiso   1.00
C530   C     0.16987   0.15123   0.56921   0.00000  Uiso   1.00
C531   C     0.25601   0.15508   0.56502   0.00000  Uiso   1.00
C532   C     0.12617   0.16242   0.90668   0.00000  Uiso   1.00
C533   C     0.20895   0.31212   0.75113   0.00000  Uiso   1.00
C534   C     0.14087   0.16425   0.84982   0.00000  Uiso   1.00
C535   C     0.20894   0.02135   0.75106   0.00000  Uiso   1.00
C536   C     0.16663   0.04274   0.75006   0.00000  Uiso   1.00
C537   C     0.12432   0.02122   0.74916   0.00000  Uiso   1.00
C538   C     0.12432   0.31199   0.74924   0.00000  Uiso   1.00
C539   C     0.16665   0.29060   0.75017   0.00000  Uiso   1.00
C540   C     0.29971   0.19297   0.78176   0.00000  Uiso   1.00
C541   C     0.01642   0.19281   0.78147   0.00000  Uiso   1.00
C542   C     0.03321   0.14025   0.71895   0.00000  Uiso   1.00
C543   C     0.31703   0.14037   0.71878   0.00000  Uiso   1.00
C544   C     0.16664   0.08735   0.74999   0.00000  Uiso   1.00
C545   C     0.19250   0.16384   0.65031   0.00000  Uiso   1.00
C546   C     0.26833   0.14691   0.51212   0.00000  Uiso   1.00
C547   C     0.20661   0.15699   0.59415   0.00000  Uiso   1.00
C548   C     0.07910   0.17638   0.93356   0.00000  Uiso   1.00
C549   C     0.06651   0.18351   0.98638   0.00000  Uiso   1.00
C550   C     0.10030   0.17646   0.51337   0.00000  Uiso   1.00
Cu551  Cu    0.11978   0.16666   0.75000   0.00000  Uiso   1.00
Cu552  Cu    0.21355   0.16667   0.75000   0.00000  Uiso   1.00
H553   H     0.28491   0.15789   0.58342   0.00000  Uiso   1.00
H554   H     0.24201   0.03742   0.75182   0.00000  Uiso   1.00
H555   H     0.09125   0.29592   0.74850   0.00000  Uiso   1.00
H556   H     0.02889   0.21355   0.80645   0.00000  Uiso   1.00
H557   H     0.05850   0.11878   0.69444   0.00000  Uiso   1.00
H558   H     0.30515   0.11928   0.69375   0.00000  Uiso   1.00
H559   H     0.27987   0.12545   0.91389   0.00000  Uiso   1.00
H560   H     0.30635   0.14217   0.99065   0.00000  Uiso   1.00
H561   H     0.09001   0.18639   0.55324   0.00000  Uiso   1.00
H562   H     0.03107   0.19646   0.50618   0.00000  Uiso   1.00
H563   H     0.21663   0.12201   0.87188   0.00000  Uiso   1.00
H564   H     0.24201   0.29616   0.75193   0.00000  Uiso   1.00
N565   N     0.04931   0.16666   0.74998   0.00000  Uiso   1.00
N566   N     0.28402   0.16669   0.74999   0.00000  Uiso   1.00
O567   O     0.12708   0.22678   0.75000   0.00000  Uiso   1.00
O568   O     0.20627   0.22679   0.75000   0.00000  Uiso   1.00
O569   O     0.10775   0.16665   0.82549   0.00000  Uiso   1.00
O570   O     0.18694   0.16666   0.82549   0.00000  Uiso   1.00
O571   O     0.12706   0.10654   0.74999   0.00000  Uiso   1.00
O572   O     0.20625   0.10655   0.74999   0.00000  Uiso   1.00
O573   O     0.14640   0.16667   0.67451   0.00000  Uiso   1.00
O574   O     0.22559   0.16668   0.67451   0.00000  Uiso   1.00
H575   H     0.09125   0.03718   0.74835   0.00000  Uiso   1.00
O576   O     0.26636   0.21924   0.81373   0.00000  Uiso   1.00
H577   H     0.28327   0.23591   0.83418   0.00000  Uiso   1.00
O578   O     0.12357   0.13798   0.59596   0.00000  Uiso   1.00
H579   H     0.12764   0.11550   0.61906   0.00000  Uiso   1.00
H580   H     0.05275   0.18427   0.91326   0.00000  Uiso   1.00
C581   C     0.50001   0.24598   0.75009   0.00000  Uiso   1.00
C582   C     0.48020   0.15948   0.98851   0.00000  Uiso   1.00
C583   C     0.49324   0.15192   0.93454   0.00000  Uiso   1.00
C584   C     0.51562   0.15288   0.51524   0.00000  Uiso   1.00
C585   C     0.56501   0.14563   0.98709   0.00000  Uiso   1.00
C586   C     0.57646   0.13504   0.93505   0.00000  Uiso   1.00
C587   C     0.54011   0.13505   0.91025   0.00000  Uiso   1.00
C588   C     0.50321   0.15123   0.56921   0.00000  Uiso   1.00
C589   C     0.58935   0.15508   0.56502   0.00000  Uiso   1.00
C590   C     0.45951   0.16242   0.90668   0.00000  Uiso   1.00
C591   C     0.54228   0.31212   0.75113   0.00000  Uiso   1.00
C592   C     0.47420   0.16425   0.84982   0.00000  Uiso   1.00
C593   C     0.54227   0.02135   0.75106   0.00000  Uiso   1.00
C594   C     0.49996   0.04274   0.75006   0.00000  Uiso   1.00
C595   C     0.45765   0.02122   0.74916   0.00000  Uiso   1.00
C596   C     0.45766   0.31199   0.74924   0.00000  Uiso   1.00
C597   C     0.49999   0.29060   0.75017   0.00000  Uiso   1.00
C598   C     0.63304   0.19297   0.78176   0.00000  Uiso   1.00
C599   C     0.34975   0.19281   0.78147   0.00000  Uiso   1.00
C600   C     0.36655   0.14025   0.71895   0.00000  Uiso   1.00
C601   C     0.65036   0.14037   0.71878   0.00000  Uiso   1.00
C602   C     0.49997   0.08735   0.74999   0.00000  Uiso   1.00
C603   C     0.52584   0.16384   0.65031   0.00000  Uiso   1.00
C604   C     0.60166   0.14691   0.51212   0.00000  Uiso   1.00
C605   C     0.53994   0.15699   0.59415   0.00000  Uiso   1.00
C606   C     0.41243   0.17638   0.93356   0.00000  Uiso   1.00
C607   C     0.39985   0.18351   0.98638   0.00000  Uiso   1.00
C608   C     0.43364   0.17646   0.51337   0.00000  Uiso   1.00
Cu609  Cu    0.45311   0.16666   0.75000   0.00000  Uiso   1.00
Cu610  Cu    0.54689   0.16667   0.75000   0.00000  Uiso   1.00
H611   H     0.61825   0.15789   0.58342   0.00000  Uiso   1.00
H612   H     0.57534   0.03742   0.75182   0.00000  Uiso   1.00
H613   H     0.42458   0.29592   0.74850   0.00000  Uiso   1.00
H614   H     0.36222   0.21355   0.80645   0.00000  Uiso   1.00
H615   H     0.39184   0.11878   0.69444   0.00000  Uiso   1.00
H616   H     0.63848   0.11928   0.69375   0.00000  Uiso   1.00
H617   H     0.61321   0.12545   0.91389   0.00000  Uiso   1.00
H618   H     0.63968   0.14217   0.99065   0.00000  Uiso   1.00
H619   H     0.42334   0.18639   0.55324   0.00000  Uiso   1.00
H620   H     0.36440   0.19646   0.50618   0.00000  Uiso   1.00
H621   H     0.54997   0.12201   0.87188   0.00000  Uiso   1.00
H622   H     0.57534   0.29616   0.75193   0.00000  Uiso   1.00
N623   N     0.38265   0.16666   0.74998   0.00000  Uiso   1.00
N624   N     0.61735   0.16669   0.74999   0.00000  Uiso   1.00
O625   O     0.46042   0.22678   0.75000   0.00000  Uiso   1.00
O626   O     0.53961   0.22679   0.75000   0.00000  Uiso   1.00
O627   O     0.44108   0.16665   0.82549   0.00000  Uiso   1.00
O628   O     0.52027   0.16666   0.82549   0.00000  Uiso   1.00
O629   O     0.46039   0.10654   0.74999   0.00000  Uiso   1.00
O630   O     0.53958   0.10655   0.74999   0.00000  Uiso   1.00
O631   O     0.47973   0.16667   0.67451   0.00000  Uiso   1.00
O632   O     0.55892   0.16668   0.67451   0.00000  Uiso   1.00
H633   H     0.42459   0.03718   0.74835   0.00000  Uiso   1.00
O634   O     0.59969   0.21924   0.81373   0.00000  Uiso   1.00
H635   H     0.61660   0.23591   0.83418   0.00000  Uiso   1.00
O636   O     0.45691   0.13798   0.59596   0.00000  Uiso   1.00
H637   H     0.46097   0.11550   0.61906   0.00000  Uiso   1.00
H638   H     0.38608   0.18427   0.91326   0.00000  Uiso   1.00
C639   C     0.83334   0.24598   0.75009   0.00000  Uiso   1.00
C640   C     0.81353   0.15948   0.98851   0.00000  Uiso   1.00
C641   C     0.82658   0.15192   0.93454   0.00000  Uiso   1.00
C642   C     0.84896   0.15288   0.51524   0.00000  Uiso   1.00
C643   C     0.89835   0.14563   0.98709   0.00000  Uiso   1.00
C644   C     0.90979   0.13504   0.93505   0.00000  Uiso   1.00
C645   C     0.87344   0.13505   0.91025   0.00000  Uiso   1.00
C646   C     0.83654   0.15123   0.56921   0.00000  Uiso   1.00
C647   C     0.92268   0.15508   0.56502   0.00000  Uiso   1.00
C648   C     0.79284   0.16242   0.90668   0.00000  Uiso   1.00
C649   C     0.87561   0.31212   0.75113   0.00000  Uiso   1.00
C650   C     0.80753   0.16425   0.84982   0.00000  Uiso   1.00
C651   C     0.87560   0.02135   0.75106   0.00000  Uiso   1.00
C652   C     0.83329   0.04274   0.75006   0.00000  Uiso   1.00
C653   C     0.79098   0.02122   0.74916   0.00000  Uiso   1.00
C654   C     0.79099   0.31199   0.74924   0.00000  Uiso   1.00
C655   C     0.83332   0.29060   0.75017   0.00000  Uiso   1.00
C656   C     0.96638   0.19297   0.78176   0.00000  Uiso   1.00
C657   C     0.68308   0.19281   0.78147   0.00000  Uiso   1.00
C658   C     0.69988   0.14025   0.71895   0.00000  Uiso   1.00
C659   C     0.98370   0.14037   0.71878   0.00000  Uiso   1.00
C660   C     0.83331   0.08735   0.74999   0.00000  Uiso   1.00
C661   C     0.85917   0.16384   0.65031   0.00000  Uiso   1.00
C662   C     0.93499   0.14691   0.51212   0.00000  Uiso   1.00
C663   C     0.87327   0.15699   0.59415   0.00000  Uiso   1.00
C664   C     0.74577   0.17638   0.93356   0.00000  Uiso   1.00
C665   C     0.73318   0.18351   0.98638   0.00000  Uiso   1.00
C666   C     0.76697   0.17646   0.51337   0.00000  Uiso   1.00
Cu667  Cu    0.78645   0.16666   0.75000   0.00000  Uiso   1.00
Cu668  Cu    0.88022   0.16667   0.75000   0.00000  Uiso   1.00
H669   H     0.95158   0.15789   0.58342   0.00000  Uiso   1.00
H670   H     0.90867   0.03742   0.75182   0.00000  Uiso   1.00
H671   H     0.75791   0.29592   0.74850   0.00000  Uiso   1.00
H672   H     0.69555   0.21355   0.80645   0.00000  Uiso   1.00
H673   H     0.72517   0.11878   0.69444   0.00000  Uiso   1.00
H674   H     0.97182   0.11928   0.69375   0.00000  Uiso   1.00
H675   H     0.94654   0.12545   0.91389   0.00000  Uiso   1.00
H676   H     0.97302   0.14217   0.99065   0.00000  Uiso   1.00
H677   H     0.75668   0.18639   0.55324   0.00000  Uiso   1.00
H678   H     0.69774   0.19646   0.50618   0.00000  Uiso   1.00
H679   H     0.88330   0.12201   0.87188   0.00000  Uiso   1.00
H680   H     0.90868   0.29616   0.75193   0.00000  Uiso   1.00
N681   N     0.71598   0.16666   0.74998   0.00000  Uiso   1.00
N682   N     0.95069   0.16669   0.74999   0.00000  Uiso   1.00
O683   O     0.79375   0.22678   0.75000   0.00000  Uiso   1.00
O684   O     0.87294   0.22679   0.75000   0.00000  Uiso   1.00
O685   O     0.77441   0.16665   0.82549   0.00000  Uiso   1.00
O686   O     0.85360   0.16666   0.82549   0.00000  Uiso   1.00
O687   O     0.79373   0.10654   0.74999   0.00000  Uiso   1.00
O688   O     0.87292   0.10655   0.74999   0.00000  Uiso   1.00
O689   O     0.81306   0.16667   0.67451   0.00000  Uiso   1.00
O690   O     0.89225   0.16668   0.67451   0.00000  Uiso   1.00
H691   H     0.75792   0.03718   0.74835   0.00000  Uiso   1.00
O692   O     0.93303   0.21924   0.81373   0.00000  Uiso   1.00
H693   H     0.94993   0.23591   0.83418   0.00000  Uiso   1.00
O694   O     0.79024   0.13798   0.59596   0.00000  Uiso   1.00
H695   H     0.79431   0.11550   0.61906   0.00000  Uiso   1.00
H696   H     0.71942   0.18427   0.91326   0.00000  Uiso   1.00
C697   C     0.16667   0.57931   0.75009   0.00000  Uiso   1.00
C698   C     0.14687   0.49281   0.98851   0.00000  Uiso   1.00
C699   C     0.15991   0.48526   0.93454   0.00000  Uiso   1.00
C700   C     0.18229   0.48621   0.51524   0.00000  Uiso   1.00
C701   C     0.23168   0.47897   0.98709   0.00000  Uiso   1.00
C702   C     0.24313   0.46837   0.93505   0.00000  Uiso   1.00
C703   C     0.20677   0.46839   0.91025   0.00000  Uiso   1.00
C704   C     0.16987   0.48456   0.56921   0.00000  Uiso   1.00
C705   C     0.25601   0.48841   0.56502   0.00000  Uiso   1.00
C706   C     0.12617   0.49575   0.90668   0.00000  Uiso   1.00
C707   C     0.20895   0.64545   0.75113   0.00000  Uiso   1.00
C708   C     0.14087   0.49759   0.84982   0.00000  Uiso   1.00
C709   C     0.20894   0.35469   0.75106   0.00000  Uiso   1.00
C710   C     0.16663   0.37607   0.75006   0.00000  Uiso   1.00
C711   C     0.12432   0.35455   0.74916   0.00000  Uiso   1.00
C712   C     0.12432   0.64532   0.74924   0.00000  Uiso   1.00
C713   C     0.16665   0.62393   0.75017   0.00000  Uiso   1.00
C714   C     0.29971   0.52630   0.78176   0.00000  Uiso   1.00
C715   C     0.01642   0.52615   0.78147   0.00000  Uiso   1.00
C716   C     0.03321   0.47358   0.71895   0.00000  Uiso   1.00
C717   C     0.31703   0.47371   0.71878   0.00000  Uiso   1.00
C718   C     0.16664   0.42069   0.74999   0.00000  Uiso   1.00
C719   C     0.19250   0.49717   0.65031   0.00000  Uiso   1.00
C720   C     0.26833   0.48024   0.51212   0.00000  Uiso   1.00
C721   C     0.20661   0.49033   0.59415   0.00000  Uiso   1.00
C722   C     0.07910   0.50971   0.93356   0.00000  Uiso   1.00
C723   C     0.06651   0.51684   0.98638   0.00000  Uiso   1.00
C724   C     0.10030   0.50979   0.51337   0.00000  Uiso   1.00
Cu725  Cu    0.11978   0.49999   0.75000   0.00000  Uiso   1.00
Cu726  Cu    0.21355   0.50001   0.75000   0.00000  Uiso   1.00
H727   H     0.28491   0.49122   0.58342   0.00000  Uiso   1.00
H728   H     0.24201   0.37075   0.75182   0.00000  Uiso   1.00
H729   H     0.09125   0.62926   0.74850   0.00000  Uiso   1.00
H730   H     0.02889   0.54688   0.80645   0.00000  Uiso   1.00
H731   H     0.05850   0.45211   0.69444   0.00000  Uiso   1.00
H732   H     0.30515   0.45261   0.69375   0.00000  Uiso   1.00
H733   H     0.27987   0.45879   0.91389   0.00000  Uiso   1.00
H734   H     0.30635   0.47551   0.99065   0.00000  Uiso   1.00
H735   H     0.09001   0.51973   0.55324   0.00000  Uiso   1.00
H736   H     0.03107   0.52979   0.50618   0.00000  Uiso   1.00
H737   H     0.21663   0.45534   0.87188   0.00000  Uiso   1.00
H738   H     0.24201   0.62949   0.75193   0.00000  Uiso   1.00
N739   N     0.04931   0.49999   0.74998   0.00000  Uiso   1.00
N740   N     0.28402   0.50002   0.74999   0.00000  Uiso   1.00
O741   O     0.12708   0.56011   0.75000   0.00000  Uiso   1.00
O742   O     0.20627   0.56012   0.75000   0.00000  Uiso   1.00
O743   O     0.10775   0.49998   0.82549   0.00000  Uiso   1.00
O744   O     0.18694   0.49999   0.82549   0.00000  Uiso   1.00
O745   O     0.12706   0.43988   0.74999   0.00000  Uiso   1.00
O746   O     0.20625   0.43989   0.74999   0.00000  Uiso   1.00
O747   O     0.14640   0.50001   0.67451   0.00000  Uiso   1.00
O748   O     0.22559   0.50002   0.67451   0.00000  Uiso   1.00
H749   H     0.09125   0.37051   0.74835   0.00000  Uiso   1.00
O750   O     0.26636   0.55257   0.81373   0.00000  Uiso   1.00
H751   H     0.28327   0.56924   0.83418   0.00000  Uiso   1.00
O752   O     0.12357   0.47131   0.59596   0.00000  Uiso   1.00
H753   H     0.12764   0.44883   0.61906   0.00000  Uiso   1.00
H754   H     0.05275   0.51761   0.91326   0.00000  Uiso   1.00
C755   C     0.50001   0.57931   0.75009   0.00000  Uiso   1.00
C756   C     0.48020   0.49281   0.98851   0.00000  Uiso   1.00
C757   C     0.49324   0.48526   0.93454   0.00000  Uiso   1.00
C758   C     0.51562   0.48621   0.51524   0.00000  Uiso   1.00
C759   C     0.56501   0.47897   0.98709   0.00000  Uiso   1.00
C760   C     0.57646   0.46837   0.93505   0.00000  Uiso   1.00
C761   C     0.54011   0.46839   0.91025   0.00000  Uiso   1.00
C762   C     0.50321   0.48456   0.56921   0.00000  Uiso   1.00
C763   C     0.58935   0.48841   0.56502   0.00000  Uiso   1.00
C764   C     0.45951   0.49575   0.90668   0.00000  Uiso   1.00
C765   C     0.54228   0.64545   0.75113   0.00000  Uiso   1.00
C766   C     0.47420   0.49759   0.84982   0.00000  Uiso   1.00
C767   C     0.54227   0.35469   0.75106   0.00000  Uiso   1.00
C768   C     0.49996   0.37607   0.75006   0.00000  Uiso   1.00
C769   C     0.45765   0.35455   0.74916   0.00000  Uiso   1.00
C770   C     0.45766   0.64532   0.74924   0.00000  Uiso   1.00
C771   C     0.49999   0.62393   0.75017   0.00000  Uiso   1.00
C772   C     0.63304   0.52630   0.78176   0.00000  Uiso   1.00
C773   C     0.34975   0.52615   0.78147   0.00000  Uiso   1.00
C774   C     0.36655   0.47358   0.71895   0.00000  Uiso   1.00
C775   C     0.65036   0.47371   0.71878   0.00000  Uiso   1.00
C776   C     0.49997   0.42069   0.74999   0.00000  Uiso   1.00
C777   C     0.52584   0.49717   0.65031   0.00000  Uiso   1.00
C778   C     0.60166   0.48024   0.51212   0.00000  Uiso   1.00
C779   C     0.53994   0.49033   0.59415   0.00000  Uiso   1.00
C780   C     0.41243   0.50971   0.93356   0.00000  Uiso   1.00
C781   C     0.39985   0.51684   0.98638   0.00000  Uiso   1.00
C782   C     0.43364   0.50979   0.51337   0.00000  Uiso   1.00
Cu783  Cu    0.45311   0.49999   0.75000   0.00000  Uiso   1.00
Cu784  Cu    0.54689   0.50001   0.75000   0.00000  Uiso   1.00
H785   H     0.61825   0.49122   0.58342   0.00000  Uiso   1.00
H786   H     0.57534   0.37075   0.75182   0.00000  Uiso   1.00
H787   H     0.42458   0.62926   0.74850   0.00000  Uiso   1.00
H788   H     0.36222   0.54688   0.80645   0.00000  Uiso   1.00
H789   H     0.39184   0.45211   0.69444   0.00000  Uiso   1.00
H790   H     0.63848   0.45261   0.69375   0.00000  Uiso   1.00
H791   H     0.61321   0.45879   0.91389   0.00000  Uiso   1.00
H792   H     0.63968   0.47551   0.99065   0.00000  Uiso   1.00
H793   H     0.42334   0.51973   0.55324   0.00000  Uiso   1.00
H794   H     0.36440   0.52979   0.50618   0.00000  Uiso   1.00
H795   H     0.54997   0.45534   0.87188   0.00000  Uiso   1.00
H796   H     0.57534   0.62949   0.75193   0.00000  Uiso   1.00
N797   N     0.38265   0.49999   0.74998   0.00000  Uiso   1.00
N798   N     0.61735   0.50002   0.74999   0.00000  Uiso   1.00
O799   O     0.46042   0.56011   0.75000   0.00000  Uiso   1.00
O800   O     0.53961   0.56012   0.75000   0.00000  Uiso   1.00
O801   O     0.44108   0.49998   0.82549   0.00000  Uiso   1.00
O802   O     0.52027   0.49999   0.82549   0.00000  Uiso   1.00
O803   O     0.46039   0.43988   0.74999   0.00000  Uiso   1.00
O804   O     0.53958   0.43989   0.74999   0.00000  Uiso   1.00
O805   O     0.47973   0.50001   0.67451   0.00000  Uiso   1.00
O806   O     0.55892   0.50002   0.67451   0.00000  Uiso   1.00
H807   H     0.42459   0.37051   0.74835   0.00000  Uiso   1.00
O808   O     0.59969   0.55257   0.81373   0.00000  Uiso   1.00
H809   H     0.61660   0.56924   0.83418   0.00000  Uiso   1.00
O810   O     0.45691   0.47131   0.59596   0.00000  Uiso   1.00
H811   H     0.46097   0.44883   0.61906   0.00000  Uiso   1.00
H812   H     0.38608   0.51761   0.91326   0.00000  Uiso   1.00
C813   C     0.83334   0.57931   0.75009   0.00000  Uiso   1.00
C814   C     0.81353   0.49281   0.98851   0.00000  Uiso   1.00
C815   C     0.82658   0.48526   0.93454   0.00000  Uiso   1.00
C816   C     0.84896   0.48621   0.51524   0.00000  Uiso   1.00
C817   C     0.89835   0.47897   0.98709   0.00000  Uiso   1.00
C818   C     0.90979   0.46837   0.93505   0.00000  Uiso   1.00
C819   C     0.87344   0.46839   0.91025   0.00000  Uiso   1.00
C820   C     0.83654   0.48456   0.56921   0.00000  Uiso   1.00
C821   C     0.92268   0.48841   0.56502   0.00000  Uiso   1.00
C822   C     0.79284   0.49575   0.90668   0.00000  Uiso   1.00
C823   C     0.87561   0.64545   0.75113   0.00000  Uiso   1.00
C824   C     0.80753   0.49759   0.84982   0.00000  Uiso   1.00
C825   C     0.87560   0.35469   0.75106   0.00000  Uiso   1.00
C826   C     0.83329   0.37607   0.75006   0.00000  Uiso   1.00
C827   C     0.79098   0.35455   0.74916   0.00000  Uiso   1.00
C828   C     0.79099   0.64532   0.74924   0.00000  Uiso   1.00
C829   C     0.83332   0.62393   0.75017   0.00000  Uiso   1.00
C830   C     0.96638   0.52630   0.78176   0.00000  Uiso   1.00
C831   C     0.68308   0.52615   0.78147   0.00000  Uiso   1.00
C832   C     0.69988   0.47358   0.71895   0.00000  Uiso   1.00
C833   C     0.98370   0.47371   0.71878   0.00000  Uiso   1.00
C834   C     0.83331   0.42069   0.74999   0.00000  Uiso   1.00
C835   C     0.85917   0.49717   0.65031   0.00000  Uiso   1.00
C836   C     0.93499   0.48024   0.51212   0.00000  Uiso   1.00
C837   C     0.87327   0.49033   0.59415   0.00000  Uiso   1.00
C838   C     0.74577   0.50971   0.93356   0.00000  Uiso   1.00
C839   C     0.73318   0.51684   0.98638   0.00000  Uiso   1.00
C840   C     0.76697   0.50979   0.51337   0.00000  Uiso   1.00
Cu841  Cu    0.78645   0.49999   0.75000   0.00000  Uiso   1.00
Cu842  Cu    0.88022   0.50001   0.75000   0.00000  Uiso   1.00
H843   H     0.95158   0.49122   0.58342   0.00000  Uiso   1.00
H844   H     0.90867   0.37075   0.75182   0.00000  Uiso   1.00
H845   H     0.75791   0.62926   0.74850   0.00000  Uiso   1.00
H846   H     0.69555   0.54688   0.80645   0.00000  Uiso   1.00
H847   H     0.72517   0.45211   0.69444   0.00000  Uiso   1.00
H848   H     0.97182   0.45261   0.69375   0.00000  Uiso   1.00
H849   H     0.94654   0.45879   0.91389   0.00000  Uiso   1.00
H850   H     0.97302   0.47551   0.99065   0.00000  Uiso   1.00
H851   H     0.75668   0.51973   0.55324   0.00000  Uiso   1.00
H852   H     0.69774   0.52979   0.50618   0.00000  Uiso   1.00
H853   H     0.88330   0.45534   0.87188   0.00000  Uiso   1.00
H854   H     0.90868   0.62949   0.75193   0.00000  Uiso   1.00
N855   N     0.71598   0.49999   0.74998   0.00000  Uiso   1.00
N856   N     0.95069   0.50002   0.74999   0.00000  Uiso   1.00
O857   O     0.79375   0.56011   0.75000   0.00000  Uiso   1.00
O858   O     0.87294   0.56012   0.75000   0.00000  Uiso   1.00
O859   O     0.77441   0.49998   0.82549   0.00000  Uiso   1.00
O860   O     0.85360   0.49999   0.82549   0.00000  Uiso   1.00
O861   O     0.79373   0.43988   0.74999   0.00000  Uiso   1.00
O862   O     0.87292   0.43989   0.74999   0.00000  Uiso   1.00
O863   O     0.81306   0.50001   0.67451   0.00000  Uiso   1.00
O864   O     0.89225   0.50002   0.67451   0.00000  Uiso   1.00
H865   H     0.75792   0.37051   0.74835   0.00000  Uiso   1.00
O866   O     0.93303   0.55257   0.81373   0.00000  Uiso   1.00
H867   H     0.94993   0.56924   0.83418   0.00000  Uiso   1.00
O868   O     0.79024   0.47131   0.59596   0.00000  Uiso   1.00
H869   H     0.79431   0.44883   0.61906   0.00000  Uiso   1.00
H870   H     0.71942   0.51761   0.91326   0.00000  Uiso   1.00
C871   C     0.16667   0.91265   0.75009   0.00000  Uiso   1.00
C872   C     0.14687   0.82615   0.98851   0.00000  Uiso   1.00
C873   C     0.15991   0.81859   0.93454   0.00000  Uiso   1.00
C874   C     0.18229   0.81954   0.51524   0.00000  Uiso   1.00
C875   C     0.23168   0.81230   0.98709   0.00000  Uiso   1.00
C876   C     0.24313   0.80170   0.93505   0.00000  Uiso   1.00
C877   C     0.20677   0.80172   0.91025   0.00000  Uiso   1.00
C878   C     0.16987   0.81789   0.56921   0.00000  Uiso   1.00
C879   C     0.25601   0.82175   0.56502   0.00000  Uiso   1.00
C880   C     0.12617   0.82909   0.90668   0.00000  Uiso   1.00
C881   C     0.20895   0.97878   0.75113   0.00000  Uiso   1.00
C882   C     0.14087   0.83092   0.84982   0.00000  Uiso   1.00
C883   C     0.20894   0.68802   0.75106   0.00000  Uiso   1.00
C884   C     0.16663   0.70941   0.75006   0.00000  Uiso   1.00
C885   C     0.12432   0.68789   0.74916   0.00000  Uiso   1.00
C886   C     0.12432   0.97865   0.74924   0.00000  Uiso   1.00
C887   C     0.16665   0.95726   0.75017   0.00000  Uiso   1.00
C888   C     0.29971   0.85964   0.78176   0.00000  Uiso   1.00
C889   C     0.01642   0.85948   0.78147   0.00000  Uiso   1.00
C890   C     0.03321   0.80691   0.71895   0.00000  Uiso   1.00
C891   C     0.31703   0.80704   0.71878   0.00000  Uiso   1.00
C892   C     0.16664   0.75402   0.74999   0.00000  Uiso   1.00
C893   C     0.19250   0.83050   0.65031   0.00000  Uiso   1.00
C894   C     0.26833   0.81357   0.51212   0.00000  Uiso   1.00
C895   C     0.20661   0.82366   0.59415   0.00000  Uiso   1.00
C896   C     0.07910   0.84304   0.93356   0.00000  Uiso   1.00
C897   C     0.06651   0.85017   0.98638   0.00000  Uiso   1.00
C898   C     0.10030   0.84313   0.51337   0.00000  Uiso   1.00
Cu899  Cu    0.11978   0.83333   0.75000   0.00000  Uiso   1.00
Cu900  Cu    0.21355   0.83334   0.75000   0.00000  Uiso   1.00
H901   H     0.28491   0.82455   0.58342   0.00000  Uiso   1.00
H902   H     0.24201   0.70409   0.75182   0.00000  Uiso   1.00
H903   H     0.09125   0.96259   0.74850   0.00000  Uiso   1.00
H904   H     0.02889   0.88022   0.80645   0.00000  Uiso   1.00
H905   H     0.05850   0.78545   0.69444   0.00000  Uiso   1.00
H906   H     0.30515   0.78595   0.69375   0.00000  Uiso   1.00
H907   H     0.27987   0.79212   0.91389   0.00000  Uiso   1.00
H908   H     0.30635   0.80884   0.99065   0.00000  Uiso   1.00
H909   H     0.09001   0.85306   0.55324   0.00000  Uiso   1.00
H910   H     0.03107   0.86313   0.50618   0.00000  Uiso   1.00
H911   H     0.21663   0.78867   0.87188   0.00000  Uiso   1.00
H912   H     0.24201   0.96283   0.75193   0.00000  Uiso   1.00
N913   N     0.04931   0.83332   0.74998   0.00000  Uiso   1.00
N914   N     0.28402   0.83335   0.74999   0.00000  Uiso   1.00
O915   O     0.12708   0.89345   0.75000   0.00000  Uiso   1.00
O916   O     0.20627   0.89346   0.75000   0.00000  Uiso   1.00
O917   O     0.10775   0.83332   0.82549   0.00000  Uiso   1.00
O918   O     0.18694   0.83333   0.82549   0.00000  Uiso   1.00
O919   O     0.12706   0.77321   0.74999   0.00000  Uiso   1.00
O920   O     0.20625   0.77322   0.74999   0.00000  Uiso   1.00
O921   O     0.14640   0.83334   0.67451   0.00000  Uiso   1.00
O922   O     0.22559   0.83335   0.67451   0.00000  Uiso   1.00
H923   H     0.09125   0.70385   0.74835   0.00000  Uiso   1.00
O924   O     0.26636   0.88591   0.81373   0.00000  Uiso   1.00
H925   H     0.28327   0.90258   0.83418   0.00000  Uiso   1.00
O926   O     0.12357   0.80464   0.59596   0.00000  Uiso   1.00
H927   H     0.12764   0.78216   0.61906   0.00000  Uiso   1.00
H928   H     0.05275   0.85094   0.91326   0.00000  Uiso   1.00
C929   C     0.50001   0.91265   0.75009   0.00000  Uiso   1.00
C930   C     0.48020   0.82615   0.98851   0.00000  Uiso   1.00
C931   C     0.49324   0.81859   0.93454   0.00000  Uiso   1.00
C932   C     0.51562   0.81954   0.51524   0.00000  Uiso   1.00
C933   C     0.56501   0.81230   0.98709   0.00000  Uiso   1.00
C934   C     0.57646   0.80170   0.93505   0.00000  Uiso   1.00
C935   C     0.54011   0.80172   0.91025   0.00000  Uiso   1.00
C936   C     0.50321   0.81789   0.56921   0.00000  Uiso   1.00
C937   C     0.58935   0.82175   0.56502   0.00000  Uiso   1.00
C938   C     0.45951   0.82909   0.90668   0.00000  Uiso   1.00
C939   C     0.54228   0.97878   0.75113   0.00000  Uiso   1.00
C940   C     0.47420   0.83092   0.84982   0.00000  Uiso   1.00
C941   C     0.54227   0.68802   0.75106   0.00000  Uiso   1.00
C942   C     0.49996   0.70941   0.75006   0.00000  Uiso   1.00
C943   C     0.45765   0.68789   0.74916   0.00000  Uiso   1.00
C944   C     0.45766   0.97865   0.74924   0.00000  Uiso   1.00
C945   C     0.49999   0.95726   0.75017   0.00000  Uiso   1.00
C946   C     0.63304   0.85964   0.78176   0.00000  Uiso   1.00
C947   C     0.34975   0.85948   0.78147   0.00000  Uiso   1.00
C948   C     0.36655   0.80691   0.71895   0.00000  Uiso   1.00
C949   C     0.65036   0.80704   0.71878   0.00000  Uiso   1.00
C950   C     0.49997   0.75402   0.74999   0.00000  Uiso   1.00
C951   C     0.52584   0.83050   0.65031   0.00000  Uiso   1.00
C952   C     0.60166   0.81357   0.51212   0.00000  Uiso   1.00
C953   C     0.53994   0.82366   0.59415   0.00000  Uiso   1.00
C954   C     0.41243   0.84304   0.93356   0.00000  Uiso   1.00
C955   C     0.39985   0.85017   0.98638   0.00000  Uiso   1.00
C956   C     0.43364   0.84313   0.51337   0.00000  Uiso   1.00
Cu957  Cu    0.45311   0.83333   0.75000   0.00000  Uiso   1.00
Cu958  Cu    0.54689   0.83334   0.75000   0.00000  Uiso   1.00
H959   H     0.61825   0.82455   0.58342   0.00000  Uiso   1.00
H960   H     0.57534   0.70409   0.75182   0.00000  Uiso   1.00
H961   H     0.42458   0.96259   0.74850   0.00000  Uiso   1.00
H962   H     0.36222   0.88022   0.80645   0.00000  Uiso   1.00
H963   H     0.39184   0.78545   0.69444   0.00000  Uiso   1.00
H964   H     0.63848   0.78595   0.69375   0.00000  Uiso   1.00
H965   H     0.61321   0.79212   0.91389   0.00000  Uiso   1.00
H966   H     0.63968   0.80884   0.99065   0.00000  Uiso   1.00
H967   H     0.42334   0.85306   0.55324   0.00000  Uiso   1.00
H968   H     0.36440   0.86313   0.50618   0.00000  Uiso   1.00
H969   H     0.54997   0.78867   0.87188   0.00000  Uiso   1.00
H970   H     0.57534   0.96283   0.75193   0.00000  Uiso   1.00
N971   N     0.38265   0.83332   0.74998   0.00000  Uiso   1.00
N972   N     0.61735   0.83335   0.74999   0.00000  Uiso   1.00
O973   O     0.46042   0.89345   0.75000   0.00000  Uiso   1.00
O974   O     0.53961   0.89346   0.75000   0.00000  Uiso   1.00
O975   O     0.44108   0.83332   0.82549   0.00000  Uiso   1.00
O976   O     0.52027   0.83333   0.82549   0.00000  Uiso   1.00
O977   O     0.46039   0.77321   0.74999   0.00000  Uiso   1.00
O978   O     0.53958   0.77322   0.74999   0.00000  Uiso   1.00
O979   O     0.47973   0.83334   0.67451   0.00000  Uiso   1.00
O980   O     0.55892   0.83335   0.67451   0.00000  Uiso   1.00
H981   H     0.42459   0.70385   0.74835   0.00000  Uiso   1.00
O982   O     0.59969   0.88591   0.81373   0.00000  Uiso   1.00
H983   H     0.61660   0.90258   0.83418   0.00000  Uiso   1.00
O984   O     0.45691   0.80464   0.59596   0.00000  Uiso   1.00
H985   H     0.46097   0.78216   0.61906   0.00000  Uiso   1.00
H986   H     0.38608   0.85094   0.91326   0.00000  Uiso   1.00
C987   C     0.83334   0.91265   0.75009   0.00000  Uiso   1.00
C988   C     0.81353   0.82615   0.98851   0.00000  Uiso   1.00
C989   C     0.82658   0.81859   0.93454   0.00000  Uiso   1.00
C990   C     0.84896   0.81954   0.51524   0.00000  Uiso   1.00
C991   C     0.89835   0.81230   0.98709   0.00000  Uiso   1.00
C992   C     0.90979   0.80170   0.93505   0.00000  Uiso   1.00
C993   C     0.87344   0.80172   0.91025   0.00000  Uiso   1.00
C994   C     0.83654   0.81789   0.56921   0.00000  Uiso   1.00
C995   C     0.92268   0.82175   0.56502   0.00000  Uiso   1.00
C996   C     0.79284   0.82909   0.90668   0.00000  Uiso   1.00
C997   C     0.87561   0.97878   0.75113   0.00000  Uiso   1.00
C998   C     0.80753   0.83092   0.84982   0.00000  Uiso   1.00
C999   C     0.87560   0.68802   0.75106   0.00000  Uiso   1.00
C1000  C     0.83329   0.70941   0.75006   0.00000  Uiso   1.00
C1001  C     0.79098   0.68789   0.74916   0.00000  Uiso   1.00
C1002  C     0.79099   0.97865   0.74924   0.00000  Uiso   1.00
C1003  C     0.83332   0.95726   0.75017   0.00000  Uiso   1.00
C1004  C     0.96638   0.85964   0.78176   0.00000  Uiso   1.00
C1005  C     0.68308   0.85948   0.78147   0.00000  Uiso   1.00
C1006  C     0.69988   0.80691   0.71895   0.00000  Uiso   1.00
C1007  C     0.98370   0.80704   0.71878   0.00000  Uiso   1.00
C1008  C     0.83331   0.75402   0.74999   0.00000  Uiso   1.00
C1009  C     0.85917   0.83050   0.65031   0.00000  Uiso   1.00
C1010  C     0.93499   0.81357   0.51212   0.00000  Uiso   1.00
C1011  C     0.87327   0.82366   0.59415   0.00000  Uiso   1.00
C1012  C     0.74577   0.84304   0.93356   0.00000  Uiso   1.00
C1013  C     0.73318   0.85017   0.98638   0.00000  Uiso   1.00
C1014  C     0.76697   0.84313   0.51337   0.00000  Uiso   1.00
Cu1015 Cu    0.78645   0.83333   0.75000   0.00000  Uiso   1.00
Cu1016 Cu    0.88022   0.83334   0.75000   0.00000  Uiso   1.00
H1017  H     0.95158   0.82455   0.58342   0.00000  Uiso   1.00
H1018  H     0.90867   0.70409   0.75182   0.00000  Uiso   1.00
H1019  H     0.75791   0.96259   0.74850   0.00000  Uiso   1.00
H1020  H     0.69555   0.88022   0.80645   0.00000  Uiso   1.00
H1021  H     0.72517   0.78545   0.69444   0.00000  Uiso   1.00
H1022  H     0.97182   0.78595   0.69375   0.00000  Uiso   1.00
H1023  H     0.94654   0.79212   0.91389   0.00000  Uiso   1.00
H1024  H     0.97302   0.80884   0.99065   0.00000  Uiso   1.00
H1025  H     0.75668   0.85306   0.55324   0.00000  Uiso   1.00
H1026  H     0.69774   0.86313   0.50618   0.00000  Uiso   1.00
H1027  H     0.88330   0.78867   0.87188   0.00000  Uiso   1.00
H1028  H     0.90868   0.96283   0.75193   0.00000  Uiso   1.00
N1029  N     0.71598   0.83332   0.74998   0.00000  Uiso   1.00
N1030  N     0.95069   0.83335   0.74999   0.00000  Uiso   1.00
O1031  O     0.79375   0.89345   0.75000   0.00000  Uiso   1.00
O1032  O     0.87294   0.89346   0.75000   0.00000  Uiso   1.00
O1033  O     0.77441   0.83332   0.82549   0.00000  Uiso   1.00
O1034  O     0.85360   0.83333   0.82549   0.00000  Uiso   1.00
O1035  O     0.79373   0.77321   0.74999   0.00000  Uiso   1.00
O1036  O     0.87292   0.77322   0.74999   0.00000  Uiso   1.00
O1037  O     0.81306   0.83334   0.67451   0.00000  Uiso   1.00
O1038  O     0.89225   0.83335   0.67451   0.00000  Uiso   1.00
H1039  H     0.75792   0.70385   0.74835   0.00000  Uiso   1.00
O1040  O     0.93303   0.88591   0.81373   0.00000  Uiso   1.00
H1041  H     0.94993   0.90258   0.83418   0.00000  Uiso   1.00
O1042  O     0.79024   0.80464   0.59596   0.00000  Uiso   1.00
H1043  H     0.79431   0.78216   0.61906   0.00000  Uiso   1.00
H1044  H     0.71942   0.85094   0.91326   0.00000  Uiso   1.00
loop_
_geom_bond_atom_site_label_1
_geom_bond_atom_site_label_2
_geom_bond_distance
_geom_bond_site_symmetry_2
_ccdc_geom_bond_type
C1     C17     1.450   .     S
C1     O45     1.291   .     A
C1     O46     1.291   .     A
C2     C3      1.417   .     A
C2     C526    1.420   .     S
C2     C550    1.415   .     S
C3     C10     1.427   .     A
C3     C7      1.418   .     A
C4     C8      1.399   .     A
C4     C524    1.420   1_554 S
C4     C527    1.414   1_554 S
C5     C6      1.390   .     A
C5     C526    1.414   .     S
C5     C546    1.401   .     S
C6     C7      1.389   .     A
C6     H37     1.084   .     S
C7     H41     1.078   .     S
C8     C25     1.413   .     A
C8     O56     1.379   .     S
C9     C24     1.394   .     A
C9     C25     1.403   .     A
C9     H31     1.083   .     S
C10    C12     1.473   .     S
C10    C26     1.404   .     A
C11    H42     1.083   .     S
C11    C17     1.401   .     A
C11    C187    1.384   .     S
C12    O48     1.291   .     A
C12    O47     1.301   .     A
C13    H32     1.083   .     S
C13    C14     1.401   .     A
C13    C359    1.384   1_545 S
C14    C22     1.450   .     S
C14    C15     1.401   .     A
C15    H53     1.083   .     S
C15    C364    1.383   1_545 S
C16    H33     1.083   .     S
C16    C17     1.401   .     A
C16    C189    1.383   .     S
C18    N44     1.372   .     A
C18    O54     1.378   .     S
C18    C77     1.426   .     S
C19    N43     1.364   .     A
C19    H34     1.082   .     S
C19    C134    1.426   1_455 S
C20    N43     1.366   .     A
C20    H35     1.080   .     S
C20    C137    1.415   1_455 S
C21    N44     1.366   .     A
C21    H36     1.082   .     S
C21    C78     1.415   .     S
C22    O50     1.291   .     A
C22    O49     1.291   .     A
C23    O52     1.298   .     A
C23    C25     1.469   .     S
C23    O51     1.292   .     A
C24    C527    1.401   1_554 S
C24    H560    1.083   1_554 S
C26    H58     1.083   .     S
C26    C27     1.386   .     A
C27    C550    1.388   .     S
C27    H562    1.083   .     S
C28    H39     1.080   .     S
C28    C549    1.388   1_554 S
C28    C524    1.415   1_554 S
Cu29   O49     1.965   .     S
Cu29   N43     2.011   .     S
Cu29   Cu30    2.676   .     S
Cu29   O47     1.969   .     S
Cu29   O51     1.960   .     S
Cu29   O45     1.965   .     S
Cu30   N44     2.011   .     S
Cu30   O48     1.960   .     S
Cu30   O50     1.965   .     S
Cu30   O52     1.969   .     S
Cu30   O46     1.965   .     S
H38    C546    1.083   .     S
H40    C549    1.083   1_554 S
O54    H55     0.992   .     S
O56    H57     0.992   .     S
C59    C75     1.450   .     S
C59    O103    1.291   .     A
C59    O104    1.291   .     A
C60    C61     1.417   .     A
C60    C584    1.420   .     S
C60    C608    1.415   .     S
C61    C68     1.427   .     A
C61    C65     1.418   .     A
C62    C66     1.399   .     A
C62    C582    1.420   1_554 S
C62    C585    1.414   1_554 S
C63    C64     1.390   .     A
C63    C584    1.414   .     S
C63    C604    1.401   .     S
C64    C65     1.389   .     A
C64    H95     1.084   .     S
C65    H99     1.078   .     S
C66    C83     1.413   .     A
C66    O114    1.379   .     S
C67    C82     1.394   .     A
C67    C83     1.403   .     A
C67    H89     1.083   .     S
C68    C70     1.473   .     S
C68    C84     1.404   .     A
C69    H100    1.083   .     S
C69    C75     1.401   .     A
C69    C245    1.384   .     S
C70    O106    1.291   .     A
C70    O105    1.301   .     A
C71    H90     1.083   .     S
C71    C72     1.401   .     A
C71    C417    1.384   1_545 S
C72    C80     1.450   .     S
C72    C73     1.401   .     A
C73    H111    1.083   .     S
C73    C422    1.383   1_545 S
C74    H91     1.083   .     S
C74    C75     1.401   .     A
C74    C247    1.383   .     S
C76    N102    1.372   .     A
C76    O112    1.378   .     S
C76    C135    1.426   .     S
C77    N101    1.364   .     A
C77    H92     1.082   .     S
C78    N101    1.366   .     A
C78    H93     1.080   .     S
C79    N102    1.366   .     A
C79    H94     1.082   .     S
C79    C136    1.415   .     S
C80    O108    1.291   .     A
C80    O107    1.291   .     A
C81    O110    1.298   .     A
C81    C83     1.469   .     S
C81    O109    1.292   .     A
C82    C585    1.401   1_554 S
C82    H618    1.083   1_554 S
C84    H116    1.083   .     S
C84    C85     1.386   .     A
C85    C608    1.388   .     S
C85    H620    1.083   .     S
C86    H97     1.080   .     S
C86    C607    1.388   1_554 S
C86    C582    1.415   1_554 S
Cu87   O107    1.965   .     S
Cu87   N101    2.011   .     S
Cu87   Cu88    2.676   .     S
Cu87   O105    1.969   .     S
Cu87   O109    1.960   .     S
Cu87   O103    1.965   .     S
Cu88   N102    2.011   .     S
Cu88   O106    1.960   .     S
Cu88   O108    1.965   .     S
Cu88   O110    1.969   .     S
Cu88   O104    1.965   .     S
H96    C604    1.083   .     S
H98    C607    1.083   1_554 S
O112   H113    0.992   .     S
O114   H115    0.992   .     S
C117   C133    1.450   .     S
C117   O161    1.291   .     A
C117   O162    1.291   .     A
C118   C119    1.417   .     A
C118   C642    1.420   .     S
C118   C666    1.415   .     S
C119   C126    1.427   .     A
C119   C123    1.418   .     A
C120   C124    1.399   .     A
C120   C640    1.420   1_554 S
C120   C643    1.414   1_554 S
C121   C122    1.390   .     A
C121   C642    1.414   .     S
C121   C662    1.401   .     S
C122   C123    1.389   .     A
C122   H153    1.084   .     S
C123   H157    1.078   .     S
C124   C141    1.413   .     A
C124   O172    1.379   .     S
C125   C140    1.394   .     A
C125   C141    1.403   .     A
C125   H147    1.083   .     S
C126   C128    1.473   .     S
C126   C142    1.404   .     A
C127   H158    1.083   .     S
C127   C133    1.401   .     A
C127   C303    1.384   .     S
C128   O164    1.291   .     A
C128   O163    1.301   .     A
C129   H148    1.083   .     S
C129   C130    1.401   .     A
C129   C475    1.384   1_545 S
C130   C138    1.450   .     S
C130   C131    1.401   .     A
C131   H169    1.083   .     S
C131   C480    1.383   1_545 S
C132   H149    1.083   .     S
C132   C133    1.401   .     A
C132   C305    1.383   .     S
C134   N160    1.372   .     A
C134   O170    1.378   .     S
C134   C19     1.426   1_655 S
C135   N159    1.364   .     A
C135   H150    1.082   .     S
C136   N159    1.366   .     A
C136   H151    1.080   .     S
C137   N160    1.366   .     A
C137   H152    1.082   .     S
C137   C20     1.415   1_655 S
C138   O166    1.291   .     A
C138   O165    1.291   .     A
C139   O168    1.298   .     A
C139   C141    1.469   .     S
C139   O167    1.292   .     A
C140   C643    1.401   1_554 S
C140   H676    1.083   1_554 S
C142   H174    1.083   .     S
C142   C143    1.386   .     A
C143   C666    1.388   .     S
C143   H678    1.083   .     S
C144   H155    1.080   .     S
C144   C665    1.388   1_554 S
C144   C640    1.415   1_554 S
Cu145  O165    1.965   .     S
Cu145  N159    2.011   .     S
Cu145  Cu146   2.676   .     S
Cu145  O163    1.969   .     S
Cu145  O167    1.960   .     S
Cu145  O161    1.965   .     S
Cu146  N160    2.011   .     S
Cu146  O164    1.960   .     S
Cu146  O166    1.965   .     S
Cu146  O168    1.969   .     S
Cu146  O162    1.965   .     S
H154   C662    1.083   .     S
H156   C665    1.083   1_554 S
O170   H171    0.992   .     S
O172   H173    0.992   .     S
C175   C191    1.450   .     S
C175   O219    1.291   .     A
C175   O220    1.291   .     A
C176   C177    1.417   .     A
C176   C700    1.420   .     S
C176   C724    1.415   .     S
C177   C184    1.427   .     A
C177   C181    1.418   .     A
C178   C182    1.399   .     A
C178   C698    1.420   1_554 S
C178   C701    1.414   1_554 S
C179   C180    1.390   .     A
C179   C700    1.414   .     S
C179   C720    1.401   .     S
C180   C181    1.389   .     A
C180   H211    1.084   .     S
C181   H215    1.078   .     S
C182   C199    1.413   .     A
C182   O230    1.379   .     S
C183   C198    1.394   .     A
C183   C199    1.403   .     A
C183   H205    1.083   .     S
C184   C186    1.473   .     S
C184   C200    1.404   .     A
C185   H216    1.083   .     S
C185   C191    1.401   .     A
C185   C361    1.384   .     S
C186   O222    1.291   .     A
C186   O221    1.301   .     A
C187   H206    1.083   .     S
C187   C188    1.401   .     A
C188   C196    1.450   .     S
C188   C189    1.401   .     A
C189   H227    1.083   .     S
C190   H207    1.083   .     S
C190   C191    1.401   .     A
C190   C363    1.383   .     S
C192   N218    1.372   .     A
C192   O228    1.378   .     S
C192   C251    1.426   .     S
C193   N217    1.364   .     A
C193   H208    1.082   .     S
C193   C308    1.426   1_455 S
C194   N217    1.366   .     A
C194   H209    1.080   .     S
C194   C311    1.415   1_455 S
C195   N218    1.366   .     A
C195   H210    1.082   .     S
C195   C252    1.415   .     S
C196   O224    1.291   .     A
C196   O223    1.291   .     A
C197   O226    1.298   .     A
C197   C199    1.469   .     S
C197   O225    1.292   .     A
C198   C701    1.401   1_554 S
C198   H734    1.083   1_554 S
C200   H232    1.083   .     S
C200   C201    1.386   .     A
C201   C724    1.388   .     S
C201   H736    1.083   .     S
C202   H213    1.080   .     S
C202   C723    1.388   1_554 S
C202   C698    1.415   1_554 S
Cu203  O223    1.965   .     S
Cu203  N217    2.011   .     S
Cu203  Cu204   2.676   .     S
Cu203  O221    1.969   .     S
Cu203  O225    1.960   .     S
Cu203  O219    1.965   .     S
Cu204  N218    2.011   .     S
Cu204  O222    1.960   .     S
Cu204  O224    1.965   .     S
Cu204  O226    1.969   .     S
Cu204  O220    1.965   .     S
H212   C720    1.083   .     S
H214   C723    1.083   1_554 S
O228   H229    0.992   .     S
O230   H231    0.992   .     S
C233   C249    1.450   .     S
C233   O277    1.291   .     A
C233   O278    1.291   .     A
C234   C235    1.417   .     A
C234   C758    1.420   .     S
C234   C782    1.415   .     S
C235   C242    1.427   .     A
C235   C239    1.418   .     A
C236   C240    1.399   .     A
C236   C756    1.420   1_554 S
C236   C759    1.414   1_554 S
C237   C238    1.390   .     A
C237   C758    1.414   .     S
C237   C778    1.401   .     S
C238   C239    1.389   .     A
C238   H269    1.084   .     S
C239   H273    1.078   .     S
C240   C257    1.413   .     A
C240   O288    1.379   .     S
C241   C256    1.394   .     A
C241   C257    1.403   .     A
C241   H263    1.083   .     S
C242   C244    1.473   .     S
C242   C258    1.404   .     A
C243   H274    1.083   .     S
C243   C249    1.401   .     A
C243   C419    1.384   .     S
C244   O280    1.291   .     A
C244   O279    1.301   .     A
C245   H264    1.083   .     S
C245   C246    1.401   .     A
C246   C254    1.450   .     S
C246   C247    1.401   .     A
C247   H285    1.083   .     S
C248   H265    1.083   .     S
C248   C249    1.401   .     A
C248   C421    1.383   .     S
C250   N276    1.372   .     A
C250   O286    1.378   .     S
C250   C309    1.426   .     S
C251   N275    1.364   .     A
C251   H266    1.082   .     S
C252   N275    1.366   .     A
C252   H267    1.080   .     S
C253   N276    1.366   .     A
C253   H268    1.082   .     S
C253   C310    1.415   .     S
C254   O282    1.291   .     A
C254   O281    1.291   .     A
C255   O284    1.298   .     A
C255   C257    1.469   .     S
C255   O283    1.292   .     A
C256   C759    1.401   1_554 S
C256   H792    1.083   1_554 S
C258   H290    1.083   .     S
C258   C259    1.386   .     A
C259   C782    1.388   .     S
C259   H794    1.083   .     S
C260   H271    1.080   .     S
C260   C781    1.388   1_554 S
C260   C756    1.415   1_554 S
Cu261  O281    1.965   .     S
Cu261  N275    2.011   .     S
Cu261  Cu262   2.676   .     S
Cu261  O279    1.969   .     S
Cu261  O283    1.960   .     S
Cu261  O277    1.965   .     S
Cu262  N276    2.011   .     S
Cu262  O280    1.960   .     S
Cu262  O282    1.965   .     S
Cu262  O284    1.969   .     S
Cu262  O278    1.965   .     S
H270   C778    1.083   .     S
H272   C781    1.083   1_554 S
O286   H287    0.992   .     S
O288   H289    0.992   .     S
C291   C307    1.450   .     S
C291   O335    1.291   .     A
C291   O336    1.291   .     A
C292   C293    1.417   .     A
C292   C816    1.420   .     S
C292   C840    1.415   .     S
C293   C300    1.427   .     A
C293   C297    1.418   .     A
C294   C298    1.399   .     A
C294   C814    1.420   1_554 S
C294   C817    1.414   1_554 S
C295   C296    1.390   .     A
C295   C816    1.414   .     S
C295   C836    1.401   .     S
C296   C297    1.389   .     A
C296   H327    1.084   .     S
C297   H331    1.078   .     S
C298   C315    1.413   .     A
C298   O346    1.379   .     S
C299   C314    1.394   .     A
C299   C315    1.403   .     A
C299   H321    1.083   .     S
C300   C302    1.473   .     S
C300   C316    1.404   .     A
C301   H332    1.083   .     S
C301   C307    1.401   .     A
C301   C477    1.384   .     S
C302   O338    1.291   .     A
C302   O337    1.301   .     A
C303   H322    1.083   .     S
C303   C304    1.401   .     A
C304   C312    1.450   .     S
C304   C305    1.401   .     A
C305   H343    1.083   .     S
C306   H323    1.083   .     S
C306   C307    1.401   .     A
C306   C479    1.383   .     S
C308   N334    1.372   .     A
C308   O344    1.378   .     S
C308   C193    1.426   1_655 S
C309   N333    1.364   .     A
C309   H324    1.082   .     S
C310   N333    1.366   .     A
C310   H325    1.080   .     S
C311   N334    1.366   .     A
C311   H326    1.082   .     S
C311   C194    1.415   1_655 S
C312   O340    1.291   .     A
C312   O339    1.291   .     A
C313   O342    1.298   .     A
C313   C315    1.469   .     S
C313   O341    1.292   .     A
C314   C817    1.401   1_554 S
C314   H850    1.083   1_554 S
C316   H348    1.083   .     S
C316   C317    1.386   .     A
C317   C840    1.388   .     S
C317   H852    1.083   .     S
C318   H329    1.080   .     S
C318   C839    1.388   1_554 S
C318   C814    1.415   1_554 S
Cu319  O339    1.965   .     S
Cu319  N333    2.011   .     S
Cu319  Cu320   2.676   .     S
Cu319  O337    1.969   .     S
Cu319  O341    1.960   .     S
Cu319  O335    1.965   .     S
Cu320  N334    2.011   .     S
Cu320  O338    1.960   .     S
Cu320  O340    1.965   .     S
Cu320  O342    1.969   .     S
Cu320  O336    1.965   .     S
H328   C836    1.083   .     S
H330   C839    1.083   1_554 S
O344   H345    0.992   .     S
O346   H347    0.992   .     S
C349   C365    1.450   .     S
C349   O393    1.291   .     A
C349   O394    1.291   .     A
C350   C351    1.417   .     A
C350   C874    1.420   .     S
C350   C898    1.415   .     S
C351   C358    1.427   .     A
C351   C355    1.418   .     A
C352   C356    1.399   .     A
C352   C872    1.420   1_554 S
C352   C875    1.414   1_554 S
C353   C354    1.390   .     A
C353   C874    1.414   .     S
C353   C894    1.401   .     S
C354   C355    1.389   .     A
C354   H385    1.084   .     S
C355   H389    1.078   .     S
C356   C373    1.413   .     A
C356   O404    1.379   .     S
C357   C372    1.394   .     A
C357   C373    1.403   .     A
C357   H379    1.083   .     S
C358   C360    1.473   .     S
C358   C374    1.404   .     A
C359   H390    1.083   .     S
C359   C365    1.401   .     A
C359   C13     1.384   1_565 S
C360   O396    1.291   .     A
C360   O395    1.301   .     A
C361   H380    1.083   .     S
C361   C362    1.401   .     A
C362   C370    1.450   .     S
C362   C363    1.401   .     A
C363   H401    1.083   .     S
C364   H381    1.083   .     S
C364   C365    1.401   .     A
C364   C15     1.383   1_565 S
C366   N392    1.372   .     A
C366   O402    1.378   .     S
C366   C425    1.426   .     S
C367   N391    1.364   .     A
C367   H382    1.082   .     S
C367   C482    1.426   1_455 S
C368   N391    1.366   .     A
C368   H383    1.080   .     S
C368   C485    1.415   1_455 S
C369   N392    1.366   .     A
C369   H384    1.082   .     S
C369   C426    1.415   .     S
C370   O398    1.291   .     A
C370   O397    1.291   .     A
C371   O400    1.298   .     A
C371   C373    1.469   .     S
C371   O399    1.292   .     A
C372   C875    1.401   1_554 S
C372   H908    1.083   1_554 S
C374   H406    1.083   .     S
C374   C375    1.386   .     A
C375   C898    1.388   .     S
C375   H910    1.083   .     S
C376   H387    1.080   .     S
C376   C897    1.388   1_554 S
C376   C872    1.415   1_554 S
Cu377  O397    1.965   .     S
Cu377  N391    2.011   .     S
Cu377  Cu378   2.676   .     S
Cu377  O395    1.969   .     S
Cu377  O399    1.960   .     S
Cu377  O393    1.965   .     S
Cu378  N392    2.011   .     S
Cu378  O396    1.960   .     S
Cu378  O398    1.965   .     S
Cu378  O400    1.969   .     S
Cu378  O394    1.965   .     S
H386   C894    1.083   .     S
H388   C897    1.083   1_554 S
O402   H403    0.992   .     S
O404   H405    0.992   .     S
C407   C423    1.450   .     S
C407   O451    1.291   .     A
C407   O452    1.291   .     A
C408   C409    1.417   .     A
C408   C932    1.420   .     S
C408   C956    1.415   .     S
C409   C416    1.427   .     A
C409   C413    1.418   .     A
C410   C414    1.399   .     A
C410   C930    1.420   1_554 S
C410   C933    1.414   1_554 S
C411   C412    1.390   .     A
C411   C932    1.414   .     S
C411   C952    1.401   .     S
C412   C413    1.389   .     A
C412   H443    1.084   .     S
C413   H447    1.078   .     S
C414   C431    1.413   .     A
C414   O462    1.379   .     S
C415   C430    1.394   .     A
C415   C431    1.403   .     A
C415   H437    1.083   .     S
C416   C418    1.473   .     S
C416   C432    1.404   .     A
C417   H448    1.083   .     S
C417   C423    1.401   .     A
C417   C71     1.384   1_565 S
C418   O454    1.291   .     A
C418   O453    1.301   .     A
C419   H438    1.083   .     S
C419   C420    1.401   .     A
C420   C428    1.450   .     S
C420   C421    1.401   .     A
C421   H459    1.083   .     S
C422   H439    1.083   .     S
C422   C423    1.401   .     A
C422   C73     1.383   1_565 S
C424   N450    1.372   .     A
C424   O460    1.378   .     S
C424   C483    1.426   .     S
C425   N449    1.364   .     A
C425   H440    1.082   .     S
C426   N449    1.366   .     A
C426   H441    1.080   .     S
C427   N450    1.366   .     A
C427   H442    1.082   .     S
C427   C484    1.415   .     S
C428   O456    1.291   .     A
C428   O455    1.291   .     A
C429   O458    1.298   .     A
C429   C431    1.469   .     S
C429   O457    1.292   .     A
C430   C933    1.401   1_554 S
C430   H966    1.083   1_554 S
C432   H464    1.083   .     S
C432   C433    1.386   .     A
C433   C956    1.388   .     S
C433   H968    1.083   .     S
C434   H445    1.080   .     S
C434   C955    1.388   1_554 S
C434   C930    1.415   1_554 S
Cu435  O455    1.965   .     S
Cu435  N449    2.011   .     S
Cu435  Cu436   2.676   .     S
Cu435  O453    1.969   .     S
Cu435  O457    1.960   .     S
Cu435  O451    1.965   .     S
Cu436  N450    2.011   .     S
Cu436  O454    1.960   .     S
Cu436  O456    1.965   .     S
Cu436  O458    1.969   .     S
Cu436  O452    1.965   .     S
H444   C952    1.083   .     S
H446   C955    1.083   1_554 S
O460   H461    0.992   .     S
O462   H463    0.992   .     S
C465   C481    1.450   .     S
C465   O509    1.291   .     A
C465   O510    1.291   .     A
C466   C467    1.417   .     A
C466   C990    1.420   .     S
C466   C1014   1.415   .     S
C467   C474    1.427   .     A
C467   C471    1.418   .     A
C468   C472    1.399   .     A
C468   C988    1.420   1_554 S
C468   C991    1.414   1_554 S
C469   C470    1.390   .     A
C469   C990    1.414   .     S
C469   C1010   1.401   .     S
C470   C471    1.389   .     A
C470   H501    1.084   .     S
C471   H505    1.078   .     S
C472   C489    1.413   .     A
C472   O520    1.379   .     S
C473   C488    1.394   .     A
C473   C489    1.403   .     A
C473   H495    1.083   .     S
C474   C476    1.473   .     S
C474   C490    1.404   .     A
C475   H506    1.083   .     S
C475   C481    1.401   .     A
C475   C129    1.384   1_565 S
C476   O512    1.291   .     A
C476   O511    1.301   .     A
C477   H496    1.083   .     S
C477   C478    1.401   .     A
C478   C486    1.450   .     S
C478   C479    1.401   .     A
C479   H517    1.083   .     S
C480   H497    1.083   .     S
C480   C481    1.401   .     A
C480   C131    1.383   1_565 S
C482   N508    1.372   .     A
C482   O518    1.378   .     S
C482   C367    1.426   1_655 S
C483   N507    1.364   .     A
C483   H498    1.082   .     S
C484   N507    1.366   .     A
C484   H499    1.080   .     S
C485   N508    1.366   .     A
C485   H500    1.082   .     S
C485   C368    1.415   1_655 S
C486   O514    1.291   .     A
C486   O513    1.291   .     A
C487   O516    1.298   .     A
C487   C489    1.469   .     S
C487   O515    1.292   .     A
C488   C991    1.401   1_554 S
C488   H1024   1.083   1_554 S
C490   H522    1.083   .     S
C490   C491    1.386   .     A
C491   C1014   1.388   .     S
C491   H1026   1.083   .     S
C492   H503    1.080   .     S
C492   C1013   1.388   1_554 S
C492   C988    1.415   1_554 S
Cu493  O513    1.965   .     S
Cu493  N507    2.011   .     S
Cu493  Cu494   2.676   .     S
Cu493  O511    1.969   .     S
Cu493  O515    1.960   .     S
Cu493  O509    1.965   .     S
Cu494  N508    2.011   .     S
Cu494  O512    1.960   .     S
Cu494  O514    1.965   .     S
Cu494  O516    1.969   .     S
Cu494  O510    1.965   .     S
H502   C1010   1.083   .     S
H504   C1013   1.083   1_554 S
O518   H519    0.992   .     S
O520   H521    0.992   .     S
C523   C539    1.450   .     S
C523   O567    1.291   .     A
C523   O568    1.291   .     A
C524   C525    1.417   .     A
C524   C4      1.420   1_556 S
C524   C28     1.415   1_556 S
C525   C532    1.427   .     A
C525   C529    1.418   .     A
C526   C530    1.399   .     A
C527   C528    1.390   .     A
C527   C4      1.414   1_556 S
C527   C24     1.401   1_556 S
C528   C529    1.389   .     A
C528   H559    1.084   .     S
C529   H563    1.078   .     S
C530   C547    1.413   .     A
C530   O578    1.379   .     S
C531   C546    1.394   .     A
C531   C547    1.403   .     A
C531   H553    1.083   .     S
C532   C534    1.473   .     S
C532   C548    1.404   .     A
C533   H564    1.083   .     S
C533   C539    1.401   .     A
C533   C709    1.384   .     S
C534   O570    1.291   .     A
C534   O569    1.301   .     A
C535   H554    1.083   .     S
C535   C536    1.401   .     A
C535   C881    1.384   1_545 S
C536   C544    1.450   .     S
C536   C537    1.401   .     A
C537   H575    1.083   .     S
C537   C886    1.383   1_545 S
C538   H555    1.083   .     S
C538   C539    1.401   .     A
C538   C711    1.383   .     S
C540   N566    1.372   .     A
C540   O576    1.378   .     S
C540   C599    1.426   .     S
C541   N565    1.364   .     A
C541   H556    1.082   .     S
C541   C656    1.426   1_455 S
C542   N565    1.366   .     A
C542   H557    1.080   .     S
C542   C659    1.415   1_455 S
C543   N566    1.366   .     A
C543   H558    1.082   .     S
C543   C600    1.415   .     S
C544   O572    1.291   .     A
C544   O571    1.291   .     A
C545   O574    1.298   .     A
C545   C547    1.469   .     S
C545   O573    1.292   .     A
C548   H580    1.083   .     S
C548   C549    1.386   .     A
C549   C28     1.388   1_556 S
C549   H40     1.083   1_556 S
C550   H561    1.080   .     S
Cu551  O571    1.965   .     S
Cu551  N565    2.011   .     S
Cu551  Cu552   2.676   .     S
Cu551  O569    1.969   .     S
Cu551  O573    1.960   .     S
Cu551  O567    1.965   .     S
Cu552  N566    2.011   .     S
Cu552  O570    1.960   .     S
Cu552  O572    1.965   .     S
Cu552  O574    1.969   .     S
Cu552  O568    1.965   .     S
H560   C24     1.083   1_556 S
O576   H577    0.992   .     S
O578   H579    0.992   .     S
C581   C597    1.450   .     S
C581   O625    1.291   .     A
C581   O626    1.291   .     A
C582   C583    1.417   .     A
C582   C62     1.420   1_556 S
C582   C86     1.415   1_556 S
C583   C590    1.427   .     A
C583   C587    1.418   .     A
C584   C588    1.399   .     A
C585   C586    1.390   .     A
C585   C62     1.414   1_556 S
C585   C82     1.401   1_556 S
C586   C587    1.389   .     A
C586   H617    1.084   .     S
C587   H621    1.078   .     S
C588   C605    1.413   .     A
C588   O636    1.379   .     S
C589   C604    1.394   .     A
C589   C605    1.403   .     A
C589   H611    1.083   .     S
C590   C592    1.473   .     S
C590   C606    1.404   .     A
C591   H622    1.083   .     S
C591   C597    1.401   .     A
C591   C767    1.384   .     S
C592   O628    1.291   .     A
C592   O627    1.301   .     A
C593   H612    1.083   .     S
C593   C594    1.401   .     A
C593   C939    1.384   1_545 S
C594   C602    1.450   .     S
C594   C595    1.401   .     A
C595   H633    1.083   .     S
C595   C944    1.383   1_545 S
C596   H613    1.083   .     S
C596   C597    1.401   .     A
C596   C769    1.383   .     S
C598   N624    1.372   .     A
C598   O634    1.378   .     S
C598   C657    1.426   .     S
C599   N623    1.364   .     A
C599   H614    1.082   .     S
C600   N623    1.366   .     A
C600   H615    1.080   .     S
C601   N624    1.366   .     A
C601   H616    1.082   .     S
C601   C658    1.415   .     S
C602   O630    1.291   .     A
C602   O629    1.291   .     A
C603   O632    1.298   .     A
C603   C605    1.469   .     S
C603   O631    1.292   .     A
C606   H638    1.083   .     S
C606   C607    1.386   .     A
C607   C86     1.388   1_556 S
C607   H98     1.083   1_556 S
C608   H619    1.080   .     S
Cu609  O629    1.965   .     S
Cu609  N623    2.011   .     S
Cu609  Cu610   2.676   .     S
Cu609  O627    1.969   .     S
Cu609  O631    1.960   .     S
Cu609  O625    1.965   .     S
Cu610  N624    2.011   .     S
Cu610  O628    1.960   .     S
Cu610  O630    1.965   .     S
Cu610  O632    1.969   .     S
Cu610  O626    1.965   .     S
H618   C82     1.083   1_556 S
O634   H635    0.992   .     S
O636   H637    0.992   .     S
C639   C655    1.450   .     S
C639   O683    1.291   .     A
C639   O684    1.291   .     A
C640   C641    1.417   .     A
C640   C120    1.420   1_556 S
C640   C144    1.415   1_556 S
C641   C648    1.427   .     A
C641   C645    1.418   .     A
C642   C646    1.399   .     A
C643   C644    1.390   .     A
C643   C120    1.414   1_556 S
C643   C140    1.401   1_556 S
C644   C645    1.389   .     A
C644   H675    1.084   .     S
C645   H679    1.078   .     S
C646   C663    1.413   .     A
C646   O694    1.379   .     S
C647   C662    1.394   .     A
C647   C663    1.403   .     A
C647   H669    1.083   .     S
C648   C650    1.473   .     S
C648   C664    1.404   .     A
C649   H680    1.083   .     S
C649   C655    1.401   .     A
C649   C825    1.384   .     S
C650   O686    1.291   .     A
C650   O685    1.301   .     A
C651   H670    1.083   .     S
C651   C652    1.401   .     A
C651   C997    1.384   1_545 S
C652   C660    1.450   .     S
C652   C653    1.401   .     A
C653   H691    1.083   .     S
C653   C1002   1.383   1_545 S
C654   H671    1.083   .     S
C654   C655    1.401   .     A
C654   C827    1.383   .     S
C656   N682    1.372   .     A
C656   O692    1.378   .     S
C656   C541    1.426   1_655 S
C657   N681    1.364   .     A
C657   H672    1.082   .     S
C658   N681    1.366   .     A
C658   H673    1.080   .     S
C659   N682    1.366   .     A
C659   H674    1.082   .     S
C659   C542    1.415   1_655 S
C660   O688    1.291   .     A
C660   O687    1.291   .     A
C661   O690    1.298   .     A
C661   C663    1.469   .     S
C661   O689    1.292   .     A
C664   H696    1.083   .     S
C664   C665    1.386   .     A
C665   C144    1.388   1_556 S
C665   H156    1.083   1_556 S
C666   H677    1.080   .     S
Cu667  O687    1.965   .     S
Cu667  N681    2.011   .     S
Cu667  Cu668   2.676   .     S
Cu667  O685    1.969   .     S
Cu667  O689    1.960   .     S
Cu667  O683    1.965   .     S
Cu668  N682    2.011   .     S
Cu668  O686    1.960   .     S
Cu668  O688    1.965   .     S
Cu668  O690    1.969   .     S
Cu668  O684    1.965   .     S
H676   C140    1.083   1_556 S
O692   H693    0.992   .     S
O694   H695    0.992   .     S
C697   C713    1.450   .     S
C697   O741    1.291   .     A
C697   O742    1.291   .     A
C698   C699    1.417   .     A
C698   C178    1.420   1_556 S
C698   C202    1.415   1_556 S
C699   C706    1.427   .     A
C699   C703    1.418   .     A
C700   C704    1.399   .     A
C701   C702    1.390   .     A
C701   C178    1.414   1_556 S
C701   C198    1.401   1_556 S
C702   C703    1.389   .     A
C702   H733    1.084   .     S
C703   H737    1.078   .     S
C704   C721    1.413   .     A
C704   O752    1.379   .     S
C705   C720    1.394   .     A
C705   C721    1.403   .     A
C705   H727    1.083   .     S
C706   C708    1.473   .     S
C706   C722    1.404   .     A
C707   H738    1.083   .     S
C707   C713    1.401   .     A
C707   C883    1.384   .     S
C708   O744    1.291   .     A
C708   O743    1.301   .     A
C709   H728    1.083   .     S
C709   C710    1.401   .     A
C710   C718    1.450   .     S
C710   C711    1.401   .     A
C711   H749    1.083   .     S
C712   H729    1.083   .     S
C712   C713    1.401   .     A
C712   C885    1.383   .     S
C714   N740    1.372   .     A
C714   O750    1.378   .     S
C714   C773    1.426   .     S
C715   N739    1.364   .     A
C715   H730    1.082   .     S
C715   C830    1.426   1_455 S
C716   N739    1.366   .     A
C716   H731    1.080   .     S
C716   C833    1.415   1_455 S
C717   N740    1.366   .     A
C717   H732    1.082   .     S
C717   C774    1.415   .     S
C718   O746    1.291   .     A
C718   O745    1.291   .     A
C719   O748    1.298   .     A
C719   C721    1.469   .     S
C719   O747    1.292   .     A
C722   H754    1.083   .     S
C722   C723    1.386   .     A
C723   C202    1.388   1_556 S
C723   H214    1.083   1_556 S
C724   H735    1.080   .     S
Cu725  O745    1.965   .     S
Cu725  N739    2.011   .     S
Cu725  Cu726   2.676   .     S
Cu725  O743    1.969   .     S
Cu725  O747    1.960   .     S
Cu725  O741    1.965   .     S
Cu726  N740    2.011   .     S
Cu726  O744    1.960   .     S
Cu726  O746    1.965   .     S
Cu726  O748    1.969   .     S
Cu726  O742    1.965   .     S
H734   C198    1.083   1_556 S
O750   H751    0.992   .     S
O752   H753    0.992   .     S
C755   C771    1.450   .     S
C755   O799    1.291   .     A
C755   O800    1.291   .     A
C756   C757    1.417   .     A
C756   C236    1.420   1_556 S
C756   C260    1.415   1_556 S
C757   C764    1.427   .     A
C757   C761    1.418   .     A
C758   C762    1.399   .     A
C759   C760    1.390   .     A
C759   C236    1.414   1_556 S
C759   C256    1.401   1_556 S
C760   C761    1.389   .     A
C760   H791    1.084   .     S
C761   H795    1.078   .     S
C762   C779    1.413   .     A
C762   O810    1.379   .     S
C763   C778    1.394   .     A
C763   C779    1.403   .     A
C763   H785    1.083   .     S
C764   C766    1.473   .     S
C764   C780    1.404   .     A
C765   H796    1.083   .     S
C765   C771    1.401   .     A
C765   C941    1.384   .     S
C766   O802    1.291   .     A
C766   O801    1.301   .     A
C767   H786    1.083   .     S
C767   C768    1.401   .     A
C768   C776    1.450   .     S
C768   C769    1.401   .     A
C769   H807    1.083   .     S
C770   H787    1.083   .     S
C770   C771    1.401   .     A
C770   C943    1.383   .     S
C772   N798    1.372   .     A
C772   O808    1.378   .     S
C772   C831    1.426   .     S
C773   N797    1.364   .     A
C773   H788    1.082   .     S
C774   N797    1.366   .     A
C774   H789    1.080   .     S
C775   N798    1.366   .     A
C775   H790    1.082   .     S
C775   C832    1.415   .     S
C776   O804    1.291   .     A
C776   O803    1.291   .     A
C777   O806    1.298   .     A
C777   C779    1.469   .     S
C777   O805    1.292   .     A
C780   H812    1.083   .     S
C780   C781    1.386   .     A
C781   C260    1.388   1_556 S
C781   H272    1.083   1_556 S
C782   H793    1.080   .     S
Cu783  O803    1.965   .     S
Cu783  N797    2.011   .     S
Cu783  Cu784   2.676   .     S
Cu783  O801    1.969   .     S
Cu783  O805    1.960   .     S
Cu783  O799    1.965   .     S
Cu784  N798    2.011   .     S
Cu784  O802    1.960   .     S
Cu784  O804    1.965   .     S
Cu784  O806    1.969   .     S
Cu784  O800    1.965   .     S
H792   C256    1.083   1_556 S
O808   H809    0.992   .     S
O810   H811    0.992   .     S
C813   C829    1.450   .     S
C813   O857    1.291   .     A
C813   O858    1.291   .     A
C814   C815    1.417   .     A
C814   C294    1.420   1_556 S
C814   C318    1.415   1_556 S
C815   C822    1.427   .     A
C815   C819    1.418   .     A
C816   C820    1.399   .     A
C817   C818    1.390   .     A
C817   C294    1.414   1_556 S
C817   C314    1.401   1_556 S
C818   C819    1.389   .     A
C818   H849    1.084   .     S
C819   H853    1.078   .     S
C820   C837    1.413   .     A
C820   O868    1.379   .     S
C821   C836    1.394   .     A
C821   C837    1.403   .     A
C821   H843    1.083   .     S
C822   C824    1.473   .     S
C822   C838    1.404   .     A
C823   H854    1.083   .     S
C823   C829    1.401   .     A
C823   C999    1.384   .     S
C824   O860    1.291   .     A
C824   O859    1.301   .     A
C825   H844    1.083   .     S
C825   C826    1.401   .     A
C826   C834    1.450   .     S
C826   C827    1.401   .     A
C827   H865    1.083   .     S
C828   H845    1.083   .     S
C828   C829    1.401   .     A
C828   C1001   1.383   .     S
C830   N856    1.372   .     A
C830   O866    1.378   .     S
C830   C715    1.426   1_655 S
C831   N855    1.364   .     A
C831   H846    1.082   .     S
C832   N855    1.366   .     A
C832   H847    1.080   .     S
C833   N856    1.366   .     A
C833   H848    1.082   .     S
C833   C716    1.415   1_655 S
C834   O862    1.291   .     A
C834   O861    1.291   .     A
C835   O864    1.298   .     A
C835   C837    1.469   .     S
C835   O863    1.292   .     A
C838   H870    1.083   .     S
C838   C839    1.386   .     A
C839   C318    1.388   1_556 S
C839   H330    1.083   1_556 S
C840   H851    1.080   .     S
Cu841  O861    1.965   .     S
Cu841  N855    2.011   .     S
Cu841  Cu842   2.676   .     S
Cu841  O859    1.969   .     S
Cu841  O863    1.960   .     S
Cu841  O857    1.965   .     S
Cu842  N856    2.011   .     S
Cu842  O860    1.960   .     S
Cu842  O862    1.965   .     S
Cu842  O864    1.969   .     S
Cu842  O858    1.965   .     S
H850   C314    1.083   1_556 S
O866   H867    0.992   .     S
O868   H869    0.992   .     S
C871   C887    1.450   .     S
C871   O915    1.291   .     A
C871   O916    1.291   .     A
C872   C873    1.417   .     A
C872   C352    1.420   1_556 S
C872   C376    1.415   1_556 S
C873   C880    1.427   .     A
C873   C877    1.418   .     A
C874   C878    1.399   .     A
C875   C876    1.390   .     A
C875   C352    1.414   1_556 S
C875   C372    1.401   1_556 S
C876   C877    1.389   .     A
C876   H907    1.084   .     S
C877   H911    1.078   .     S
C878   C895    1.413   .     A
C878   O926    1.379   .     S
C879   C894    1.394   .     A
C879   C895    1.403   .     A
C879   H901    1.083   .     S
C880   C882    1.473   .     S
C880   C896    1.404   .     A
C881   H912    1.083   .     S
C881   C887    1.401   .     A
C881   C535    1.384   1_565 S
C882   O918    1.291   .     A
C882   O917    1.301   .     A
C883   H902    1.083   .     S
C883   C884    1.401   .     A
C884   C892    1.450   .     S
C884   C885    1.401   .     A
C885   H923    1.083   .     S
C886   H903    1.083   .     S
C886   C887    1.401   .     A
C886   C537    1.383   1_565 S
C888   N914    1.372   .     A
C888   O924    1.378   .     S
C888   C947    1.426   .     S
C889   N913    1.364   .     A
C889   H904    1.082   .     S
C889   C1004   1.426   1_455 S
C890   N913    1.366   .     A
C890   H905    1.080   .     S
C890   C1007   1.415   1_455 S
C891   N914    1.366   .     A
C891   H906    1.082   .     S
C891   C948    1.415   .     S
C892   O920    1.291   .     A
C892   O919    1.291   .     A
C893   O922    1.298   .     A
C893   C895    1.469   .     S
C893   O921    1.292   .     A
C896   H928    1.083   .     S
C896   C897    1.386   .     A
C897   C376    1.388   1_556 S
C897   H388    1.083   1_556 S
C898   H909    1.080   .     S
Cu899  O919    1.965   .     S
Cu899  N913    2.011   .     S
Cu899  Cu900   2.676   .     S
Cu899  O917    1.969   .     S
Cu899  O921    1.960   .     S
Cu899  O915    1.965   .     S
Cu900  N914    2.011   .     S
Cu900  O918    1.960   .     S
Cu900  O920    1.965   .     S
Cu900  O922    1.969   .     S
Cu900  O916    1.965   .     S
H908   C372    1.083   1_556 S
O924   H925    0.992   .     S
O926   H927    0.992   .     S
C929   C945    1.450   .     S
C929   O973    1.291   .     A
C929   O974    1.291   .     A
C930   C931    1.417   .     A
C930   C410    1.420   1_556 S
C930   C434    1.415   1_556 S
C931   C938    1.427   .     A
C931   C935    1.418   .     A
C932   C936    1.399   .     A
C933   C934    1.390   .     A
C933   C410    1.414   1_556 S
C933   C430    1.401   1_556 S
C934   C935    1.389   .     A
C934   H965    1.084   .     S
C935   H969    1.078   .     S
C936   C953    1.413   .     A
C936   O984    1.379   .     S
C937   C952    1.394   .     A
C937   C953    1.403   .     A
C937   H959    1.083   .     S
C938   C940    1.473   .     S
C938   C954    1.404   .     A
C939   H970    1.083   .     S
C939   C945    1.401   .     A
C939   C593    1.384   1_565 S
C940   O976    1.291   .     A
C940   O975    1.301   .     A
C941   H960    1.083   .     S
C941   C942    1.401   .     A
C942   C950    1.450   .     S
C942   C943    1.401   .     A
C943   H981    1.083   .     S
C944   H961    1.083   .     S
C944   C945    1.401   .     A
C944   C595    1.383   1_565 S
C946   N972    1.372   .     A
C946   O982    1.378   .     S
C946   C1005   1.426   .     S
C947   N971    1.364   .     A
C947   H962    1.082   .     S
C948   N971    1.366   .     A
C948   H963    1.080   .     S
C949   N972    1.366   .     A
C949   H964    1.082   .     S
C949   C1006   1.415   .     S
C950   O978    1.291   .     A
C950   O977    1.291   .     A
C951   O980    1.298   .     A
C951   C953    1.469   .     S
C951   O979    1.292   .     A
C954   H986    1.083   .     S
C954   C955    1.386   .     A
C955   C434    1.388   1_556 S
C955   H446    1.083   1_556 S
C956   H967    1.080   .     S
Cu957  O977    1.965   .     S
Cu957  N971    2.011   .     S
Cu957  Cu958   2.676   .     S
Cu957  O975    1.969   .     S
Cu957  O979    1.960   .     S
Cu957  O973    1.965   .     S
Cu958  N972    2.011   .     S
Cu958  O976    1.960   .     S
Cu958  O978    1.965   .     S
Cu958  O980    1.969   .     S
Cu958  O974    1.965   .     S
H966   C430    1.083   1_556 S
O982   H983    0.992   .     S
O984   H985    0.992   .     S
C987   C1003   1.450   .     S
C987   O1031   1.291   .     A
C987   O1032   1.291   .     A
C988   C989    1.417   .     A
C988   C468    1.420   1_556 S
C988   C492    1.415   1_556 S
C989   C996    1.427   .     A
C989   C993    1.418   .     A
C990   C994    1.399   .     A
C991   C992    1.390   .     A
C991   C468    1.414   1_556 S
C991   C488    1.401   1_556 S
C992   C993    1.389   .     A
C992   H1023   1.084   .     S
C993   H1027   1.078   .     S
C994   C1011   1.413   .     A
C994   O1042   1.379   .     S
C995   C1010   1.394   .     A
C995   C1011   1.403   .     A
C995   H1017   1.083   .     S
C996   C998    1.473   .     S
C996   C1012   1.404   .     A
C997   H1028   1.083   .     S
C997   C1003   1.401   .     A
C997   C651    1.384   1_565 S
C998   O1034   1.291   .     A
C998   O1033   1.301   .     A
C999   H1018   1.083   .     S
C999   C1000   1.401   .     A
C1000  C1008   1.450   .     S
C1000  C1001   1.401   .     A
C1001  H1039   1.083   .     S
C1002  H1019   1.083   .     S
C1002  C1003   1.401   .     A
C1002  C653    1.383   1_565 S
C1004  N1030   1.372   .     A
C1004  O1040   1.378   .     S
C1004  C889    1.426   1_655 S
C1005  N1029   1.364   .     A
C1005  H1020   1.082   .     S
C1006  N1029   1.366   .     A
C1006  H1021   1.080   .     S
C1007  N1030   1.366   .     A
C1007  H1022   1.082   .     S
C1007  C890    1.415   1_655 S
C1008  O1036   1.291   .     A
C1008  O1035   1.291   .     A
C1009  O1038   1.298   .     A
C1009  C1011   1.469   .     S
C1009  O1037   1.292   .     A
C1012  H1044   1.083   .     S
C1012  C1013   1.386   .     A
C1013  C492    1.388   1_556 S
C1013  H504    1.083   1_556 S
C1014  H1025   1.080   .     S
Cu1015 O1035   1.965   .     S
Cu1015 N1029   2.011   .     S
Cu1015 Cu1016  2.676   .     S
Cu1015 O1033   1.969   .     S
Cu1015 O1037   1.960   .     S
Cu1015 O1031   1.965   .     S
Cu1016 N1030   2.011   .     S
Cu1016 O1034   1.960   .     S
Cu1016 O1036   1.965   .     S
Cu1016 O1038   1.969   .     S
Cu1016 O1032   1.965   .     S
H1024  C488    1.083   1_556 S
O1040  H1041   0.992   .     S
O1042  H1043   0.992   .     S
