data_str_m3_o10_o18_pcu_sym.8
_audit_creation_date              2020-01-03
_audit_creation_method            'Materials Studio'
_symmetry_space_group_name_H-M    'P1'
_symmetry_Int_Tables_number       1
_symmetry_cell_setting            triclinic
loop_
_symmetry_equiv_pos_as_xyz
  x,y,z
_cell_length_a                    23.5777
_cell_length_b                    25.6894
_cell_length_c                    27.6415
_cell_angle_alpha                 93.2274
_cell_angle_beta                  94.2631
_cell_angle_gamma                 94.1017
loop_
_atom_site_label
_atom_site_type_symbol
_atom_site_fract_x
_atom_site_fract_y
_atom_site_fract_z
_atom_site_U_iso_or_equiv
_atom_site_adp_type
_atom_site_occupancy
C1     C     0.01499   0.26483   0.24878   0.00000  Uiso   1.00
C2     C     0.31123   0.16032   0.15911   0.00000  Uiso   1.00
C3     C     0.03244   0.17114   0.39344   0.00000  Uiso   1.00
C4     C     0.29697   0.14370   0.10811   0.00000  Uiso   1.00
C5     C     0.01041   0.19705   0.47479   0.00000  Uiso   1.00
C6     C     0.30204   0.08137   0.03946   0.00000  Uiso   1.00
C7     C     0.32914   0.19351   0.42493   0.00000  Uiso   1.00
C8     C     0.32305   0.10237   0.08557   0.00000  Uiso   1.00
C9     C     0.08141   0.14960   0.41190   0.00000  Uiso   1.00
C10    C     0.24833   0.16153   0.08553   0.00000  Uiso   1.00
C11    C     0.09480   0.14935   0.46174   0.00000  Uiso   1.00
C12    C     0.31834   0.06850   0.25117   0.00000  Uiso   1.00
C13    C     0.22110   0.13414   0.04429   0.00000  Uiso   1.00
C14    C     0.06059   0.17657   0.49327   0.00000  Uiso   1.00
C15    C     0.25062   0.09717   0.01852   0.00000  Uiso   1.00
C16    C     0.14438   0.12714   0.48067   0.00000  Uiso   1.00
C17    C     0.16469   0.14259   0.02883   0.00000  Uiso   1.00
C18    C     0.13663   0.10433   0.12134   0.00000  Uiso   1.00
C19    C     0.11237   0.02086   0.42474   0.00000  Uiso   1.00
C20    C     0.12634   0.16244   0.06136   0.00000  Uiso   1.00
C21    C     0.17379   0.08907   0.45463   0.00000  Uiso   1.00
C22    C     0.07646   0.18221   0.04288   0.00000  Uiso   1.00
C23    C     0.22647   0.07454   0.47403   0.00000  Uiso   1.00
C24    C     0.02276   0.31943   0.24807   0.00000  Uiso   1.00
C25    C     0.31057   0.01391   0.25184   0.00000  Uiso   1.00
C26    C     0.02165   0.17057   0.34096   0.00000  Uiso   1.00
H27    H     0.04937   0.20068   0.06763   0.00000  Uiso   1.00
H28    H     0.26766   0.33013   0.25545   0.00000  Uiso   1.00
H29    H     0.16253   0.12149   0.21848   0.00000  Uiso   1.00
H30    H     0.17132   0.21058   0.28379   0.00000  Uiso   1.00
H31    H     0.18077   0.09734   0.13470   0.00000  Uiso   1.00
H32    H     0.12267   0.07562   0.09016   0.00000  Uiso   1.00
H33    H     0.10860   0.09514   0.15057   0.00000  Uiso   1.00
H34    H     0.09379   0.33238   0.39079   0.00000  Uiso   1.00
H35    H     0.07643   0.03560   0.44413   0.00000  Uiso   1.00
H36    H     0.13516   0.32623   0.44702   0.00000  Uiso   1.00
H37    H     0.24796   0.04499   0.45445   0.00000  Uiso   1.00
H38    H     0.22921   0.19420   0.10272   0.00000  Uiso   1.00
H39    H     0.11053   0.13566   0.38674   0.00000  Uiso   1.00
H40    H     0.02469   0.08512   0.10409   0.00000  Uiso   1.00
H41    H     0.29071   0.21007   0.41094   0.00000  Uiso   1.00
H42    H     0.31631   0.21627   0.49880   0.00000  Uiso   1.00
H43    H     0.32392   0.05085   0.02169   0.00000  Uiso   1.00
H44    H     0.06568   0.00321   0.24445   0.00000  Uiso   1.00
N45    N     0.14695   0.15216   0.23739   0.00000  Uiso   1.00
N46    N     0.18638   0.18117   0.26260   0.00000  Uiso   1.00
O47    O     0.29719   0.24631   0.25309   0.00000  Uiso   1.00
O48    O     0.15008   0.06227   0.41232   0.00000  Uiso   1.00
O49    O     0.03614   0.08702   0.24690   0.00000  Uiso   1.00
O50    O     0.05822   0.23702   0.24501   0.00000  Uiso   1.00
O51    O     0.27512   0.09632   0.25498   0.00000  Uiso   1.00
O52    O     0.30328   0.17397   0.32247   0.00000  Uiso   1.00
O53    O     0.03005   0.15937   0.17753   0.00000  Uiso   1.00
O54    O     0.06431   0.16467   0.31439   0.00000  Uiso   1.00
O55    O     0.26902   0.16866   0.18561   0.00000  Uiso   1.00
O56    O     0.13339   0.15771   0.11118   0.00000  Uiso   1.00
Zn57   Zn    0.27033   0.17287   0.25539   0.00000  Uiso   1.00
Zn58   Zn    0.06300   0.16046   0.24460   0.00000  Uiso   1.00
C59    C     0.34832   0.26483   0.24878   0.00000  Uiso   1.00
C60    C     0.64456   0.16032   0.15911   0.00000  Uiso   1.00
C61    C     0.36578   0.17114   0.39344   0.00000  Uiso   1.00
C62    C     0.63030   0.14370   0.10811   0.00000  Uiso   1.00
C63    C     0.34374   0.19705   0.47479   0.00000  Uiso   1.00
C64    C     0.63537   0.08137   0.03946   0.00000  Uiso   1.00
C65    C     0.66247   0.19351   0.42493   0.00000  Uiso   1.00
C66    C     0.65638   0.10237   0.08557   0.00000  Uiso   1.00
C67    C     0.41474   0.14960   0.41190   0.00000  Uiso   1.00
C68    C     0.58166   0.16153   0.08553   0.00000  Uiso   1.00
C69    C     0.42813   0.14935   0.46174   0.00000  Uiso   1.00
C70    C     0.65167   0.06850   0.25117   0.00000  Uiso   1.00
C71    C     0.55444   0.13414   0.04429   0.00000  Uiso   1.00
C72    C     0.39392   0.17657   0.49327   0.00000  Uiso   1.00
C73    C     0.58395   0.09717   0.01852   0.00000  Uiso   1.00
C74    C     0.47771   0.12714   0.48067   0.00000  Uiso   1.00
C75    C     0.49803   0.14259   0.02883   0.00000  Uiso   1.00
C76    C     0.46996   0.10433   0.12134   0.00000  Uiso   1.00
C77    C     0.44570   0.02086   0.42474   0.00000  Uiso   1.00
C78    C     0.45967   0.16244   0.06136   0.00000  Uiso   1.00
C79    C     0.50712   0.08907   0.45463   0.00000  Uiso   1.00
C80    C     0.40979   0.18221   0.04288   0.00000  Uiso   1.00
C81    C     0.55981   0.07454   0.47403   0.00000  Uiso   1.00
C82    C     0.35610   0.31943   0.24807   0.00000  Uiso   1.00
C83    C     0.64390   0.01391   0.25184   0.00000  Uiso   1.00
C84    C     0.35498   0.17057   0.34096   0.00000  Uiso   1.00
H85    H     0.38271   0.20068   0.06763   0.00000  Uiso   1.00
H86    H     0.60099   0.33013   0.25545   0.00000  Uiso   1.00
H87    H     0.49586   0.12149   0.21848   0.00000  Uiso   1.00
H88    H     0.50465   0.21058   0.28379   0.00000  Uiso   1.00
H89    H     0.51410   0.09734   0.13470   0.00000  Uiso   1.00
H90    H     0.45600   0.07562   0.09016   0.00000  Uiso   1.00
H91    H     0.44194   0.09514   0.15057   0.00000  Uiso   1.00
H92    H     0.42712   0.33238   0.39079   0.00000  Uiso   1.00
H93    H     0.40977   0.03560   0.44413   0.00000  Uiso   1.00
H94    H     0.46850   0.32623   0.44702   0.00000  Uiso   1.00
H95    H     0.58129   0.04499   0.45445   0.00000  Uiso   1.00
H96    H     0.56255   0.19420   0.10272   0.00000  Uiso   1.00
H97    H     0.44386   0.13566   0.38674   0.00000  Uiso   1.00
H98    H     0.35803   0.08512   0.10409   0.00000  Uiso   1.00
H99    H     0.62404   0.21007   0.41094   0.00000  Uiso   1.00
H100   H     0.64965   0.21627   0.49880   0.00000  Uiso   1.00
H101   H     0.65726   0.05085   0.02169   0.00000  Uiso   1.00
H102   H     0.39901   0.00321   0.24445   0.00000  Uiso   1.00
N103   N     0.48029   0.15216   0.23739   0.00000  Uiso   1.00
N104   N     0.51971   0.18117   0.26260   0.00000  Uiso   1.00
O105   O     0.63052   0.24631   0.25309   0.00000  Uiso   1.00
O106   O     0.48341   0.06227   0.41232   0.00000  Uiso   1.00
O107   O     0.36948   0.08702   0.24690   0.00000  Uiso   1.00
O108   O     0.39155   0.23702   0.24501   0.00000  Uiso   1.00
O109   O     0.60845   0.09632   0.25498   0.00000  Uiso   1.00
O110   O     0.63662   0.17397   0.32247   0.00000  Uiso   1.00
O111   O     0.36338   0.15937   0.17753   0.00000  Uiso   1.00
O112   O     0.39764   0.16467   0.31439   0.00000  Uiso   1.00
O113   O     0.60236   0.16866   0.18561   0.00000  Uiso   1.00
O114   O     0.46673   0.15771   0.11118   0.00000  Uiso   1.00
Zn115  Zn    0.60366   0.17287   0.25539   0.00000  Uiso   1.00
Zn116  Zn    0.39634   0.16046   0.24460   0.00000  Uiso   1.00
C117   C     0.68166   0.26483   0.24878   0.00000  Uiso   1.00
C118   C     0.97789   0.16032   0.15911   0.00000  Uiso   1.00
C119   C     0.69911   0.17114   0.39344   0.00000  Uiso   1.00
C120   C     0.96363   0.14370   0.10811   0.00000  Uiso   1.00
C121   C     0.67708   0.19705   0.47479   0.00000  Uiso   1.00
C122   C     0.96871   0.08137   0.03946   0.00000  Uiso   1.00
C123   C     0.99580   0.19351   0.42493   0.00000  Uiso   1.00
C124   C     0.98971   0.10237   0.08557   0.00000  Uiso   1.00
C125   C     0.74808   0.14960   0.41190   0.00000  Uiso   1.00
C126   C     0.91500   0.16153   0.08553   0.00000  Uiso   1.00
C127   C     0.76147   0.14935   0.46174   0.00000  Uiso   1.00
C128   C     0.98500   0.06850   0.25117   0.00000  Uiso   1.00
C129   C     0.88777   0.13414   0.04429   0.00000  Uiso   1.00
C130   C     0.72725   0.17657   0.49327   0.00000  Uiso   1.00
C131   C     0.91729   0.09717   0.01852   0.00000  Uiso   1.00
C132   C     0.81104   0.12714   0.48067   0.00000  Uiso   1.00
C133   C     0.83136   0.14259   0.02883   0.00000  Uiso   1.00
C134   C     0.80329   0.10433   0.12134   0.00000  Uiso   1.00
C135   C     0.77904   0.02086   0.42474   0.00000  Uiso   1.00
C136   C     0.79301   0.16244   0.06136   0.00000  Uiso   1.00
C137   C     0.84045   0.08907   0.45463   0.00000  Uiso   1.00
C138   C     0.74313   0.18221   0.04288   0.00000  Uiso   1.00
C139   C     0.89314   0.07454   0.47403   0.00000  Uiso   1.00
C140   C     0.68943   0.31943   0.24807   0.00000  Uiso   1.00
C141   C     0.97724   0.01391   0.25184   0.00000  Uiso   1.00
C142   C     0.68832   0.17057   0.34096   0.00000  Uiso   1.00
H143   H     0.71604   0.20068   0.06763   0.00000  Uiso   1.00
H144   H     0.93432   0.33013   0.25545   0.00000  Uiso   1.00
H145   H     0.82920   0.12149   0.21848   0.00000  Uiso   1.00
H146   H     0.83799   0.21058   0.28379   0.00000  Uiso   1.00
H147   H     0.84743   0.09734   0.13470   0.00000  Uiso   1.00
H148   H     0.78934   0.07562   0.09016   0.00000  Uiso   1.00
H149   H     0.77527   0.09514   0.15057   0.00000  Uiso   1.00
H150   H     0.76045   0.33238   0.39079   0.00000  Uiso   1.00
H151   H     0.74310   0.03560   0.44413   0.00000  Uiso   1.00
H152   H     0.80183   0.32623   0.44702   0.00000  Uiso   1.00
H153   H     0.91462   0.04499   0.45445   0.00000  Uiso   1.00
H154   H     0.89588   0.19420   0.10272   0.00000  Uiso   1.00
H155   H     0.77719   0.13566   0.38674   0.00000  Uiso   1.00
H156   H     0.69136   0.08512   0.10409   0.00000  Uiso   1.00
H157   H     0.95737   0.21007   0.41094   0.00000  Uiso   1.00
H158   H     0.98298   0.21627   0.49880   0.00000  Uiso   1.00
H159   H     0.99059   0.05085   0.02169   0.00000  Uiso   1.00
H160   H     0.73234   0.00321   0.24445   0.00000  Uiso   1.00
N161   N     0.81362   0.15216   0.23739   0.00000  Uiso   1.00
N162   N     0.85305   0.18117   0.26260   0.00000  Uiso   1.00
O163   O     0.96386   0.24631   0.25309   0.00000  Uiso   1.00
O164   O     0.81675   0.06227   0.41232   0.00000  Uiso   1.00
O165   O     0.70281   0.08702   0.24690   0.00000  Uiso   1.00
O166   O     0.72488   0.23702   0.24501   0.00000  Uiso   1.00
O167   O     0.94178   0.09632   0.25498   0.00000  Uiso   1.00
O168   O     0.96995   0.17397   0.32247   0.00000  Uiso   1.00
O169   O     0.69672   0.15937   0.17753   0.00000  Uiso   1.00
O170   O     0.73098   0.16467   0.31439   0.00000  Uiso   1.00
O171   O     0.93569   0.16866   0.18561   0.00000  Uiso   1.00
O172   O     0.80006   0.15771   0.11118   0.00000  Uiso   1.00
Zn173  Zn    0.93700   0.17287   0.25539   0.00000  Uiso   1.00
Zn174  Zn    0.72967   0.16046   0.24460   0.00000  Uiso   1.00
C175   C     0.01499   0.59816   0.24878   0.00000  Uiso   1.00
C176   C     0.31123   0.49365   0.15911   0.00000  Uiso   1.00
C177   C     0.03244   0.50447   0.39344   0.00000  Uiso   1.00
C178   C     0.29697   0.47704   0.10811   0.00000  Uiso   1.00
C179   C     0.01041   0.53039   0.47479   0.00000  Uiso   1.00
C180   C     0.30204   0.41470   0.03946   0.00000  Uiso   1.00
C181   C     0.32914   0.52684   0.42493   0.00000  Uiso   1.00
C182   C     0.32305   0.43570   0.08557   0.00000  Uiso   1.00
C183   C     0.08141   0.48293   0.41190   0.00000  Uiso   1.00
C184   C     0.24833   0.49487   0.08553   0.00000  Uiso   1.00
C185   C     0.09480   0.48268   0.46174   0.00000  Uiso   1.00
C186   C     0.31834   0.40184   0.25117   0.00000  Uiso   1.00
C187   C     0.22110   0.46747   0.04429   0.00000  Uiso   1.00
C188   C     0.06059   0.50991   0.49327   0.00000  Uiso   1.00
C189   C     0.25062   0.43051   0.01852   0.00000  Uiso   1.00
C190   C     0.14438   0.46047   0.48067   0.00000  Uiso   1.00
C191   C     0.16469   0.47592   0.02883   0.00000  Uiso   1.00
C192   C     0.13663   0.43766   0.12134   0.00000  Uiso   1.00
C193   C     0.11237   0.35420   0.42474   0.00000  Uiso   1.00
C194   C     0.12634   0.49578   0.06136   0.00000  Uiso   1.00
C195   C     0.17379   0.42240   0.45463   0.00000  Uiso   1.00
C196   C     0.07646   0.51554   0.04288   0.00000  Uiso   1.00
C197   C     0.22647   0.40788   0.47403   0.00000  Uiso   1.00
C198   C     0.02276   0.65276   0.24807   0.00000  Uiso   1.00
C199   C     0.31057   0.34724   0.25184   0.00000  Uiso   1.00
C200   C     0.02165   0.50391   0.34096   0.00000  Uiso   1.00
H201   H     0.04937   0.53401   0.06763   0.00000  Uiso   1.00
H202   H     0.26766   0.66346   0.25545   0.00000  Uiso   1.00
H203   H     0.16253   0.45482   0.21848   0.00000  Uiso   1.00
H204   H     0.17132   0.54392   0.28379   0.00000  Uiso   1.00
H205   H     0.18077   0.43068   0.13470   0.00000  Uiso   1.00
H206   H     0.12267   0.40895   0.09016   0.00000  Uiso   1.00
H207   H     0.10860   0.42847   0.15057   0.00000  Uiso   1.00
H208   H     0.09379   0.66572   0.39079   0.00000  Uiso   1.00
H209   H     0.07643   0.36894   0.44413   0.00000  Uiso   1.00
H210   H     0.13516   0.65957   0.44702   0.00000  Uiso   1.00
H211   H     0.24796   0.37832   0.45445   0.00000  Uiso   1.00
H212   H     0.22921   0.52753   0.10272   0.00000  Uiso   1.00
H213   H     0.11053   0.46899   0.38674   0.00000  Uiso   1.00
H214   H     0.02469   0.41845   0.10409   0.00000  Uiso   1.00
H215   H     0.29071   0.54340   0.41094   0.00000  Uiso   1.00
H216   H     0.31631   0.54961   0.49880   0.00000  Uiso   1.00
H217   H     0.32392   0.38418   0.02169   0.00000  Uiso   1.00
H218   H     0.06568   0.33654   0.24445   0.00000  Uiso   1.00
N219   N     0.14695   0.48550   0.23739   0.00000  Uiso   1.00
N220   N     0.18638   0.51450   0.26260   0.00000  Uiso   1.00
O221   O     0.29719   0.57964   0.25309   0.00000  Uiso   1.00
O222   O     0.15008   0.39560   0.41232   0.00000  Uiso   1.00
O223   O     0.03614   0.42036   0.24690   0.00000  Uiso   1.00
O224   O     0.05822   0.57035   0.24501   0.00000  Uiso   1.00
O225   O     0.27512   0.42965   0.25498   0.00000  Uiso   1.00
O226   O     0.30328   0.50730   0.32247   0.00000  Uiso   1.00
O227   O     0.03005   0.49270   0.17753   0.00000  Uiso   1.00
O228   O     0.06431   0.49801   0.31439   0.00000  Uiso   1.00
O229   O     0.26902   0.50199   0.18561   0.00000  Uiso   1.00
O230   O     0.13339   0.49104   0.11118   0.00000  Uiso   1.00
Zn231  Zn    0.27033   0.50621   0.25539   0.00000  Uiso   1.00
Zn232  Zn    0.06300   0.49379   0.24460   0.00000  Uiso   1.00
C233   C     0.34832   0.59816   0.24878   0.00000  Uiso   1.00
C234   C     0.64456   0.49365   0.15911   0.00000  Uiso   1.00
C235   C     0.36578   0.50447   0.39344   0.00000  Uiso   1.00
C236   C     0.63030   0.47704   0.10811   0.00000  Uiso   1.00
C237   C     0.34374   0.53039   0.47479   0.00000  Uiso   1.00
C238   C     0.63537   0.41470   0.03946   0.00000  Uiso   1.00
C239   C     0.66247   0.52684   0.42493   0.00000  Uiso   1.00
C240   C     0.65638   0.43570   0.08557   0.00000  Uiso   1.00
C241   C     0.41474   0.48293   0.41190   0.00000  Uiso   1.00
C242   C     0.58166   0.49487   0.08553   0.00000  Uiso   1.00
C243   C     0.42813   0.48268   0.46174   0.00000  Uiso   1.00
C244   C     0.65167   0.40184   0.25117   0.00000  Uiso   1.00
C245   C     0.55444   0.46747   0.04429   0.00000  Uiso   1.00
C246   C     0.39392   0.50991   0.49327   0.00000  Uiso   1.00
C247   C     0.58395   0.43051   0.01852   0.00000  Uiso   1.00
C248   C     0.47771   0.46047   0.48067   0.00000  Uiso   1.00
C249   C     0.49803   0.47592   0.02883   0.00000  Uiso   1.00
C250   C     0.46996   0.43766   0.12134   0.00000  Uiso   1.00
C251   C     0.44570   0.35420   0.42474   0.00000  Uiso   1.00
C252   C     0.45967   0.49578   0.06136   0.00000  Uiso   1.00
C253   C     0.50712   0.42240   0.45463   0.00000  Uiso   1.00
C254   C     0.40979   0.51554   0.04288   0.00000  Uiso   1.00
C255   C     0.55981   0.40788   0.47403   0.00000  Uiso   1.00
C256   C     0.35610   0.65276   0.24807   0.00000  Uiso   1.00
C257   C     0.64390   0.34724   0.25184   0.00000  Uiso   1.00
C258   C     0.35498   0.50391   0.34096   0.00000  Uiso   1.00
H259   H     0.38271   0.53401   0.06763   0.00000  Uiso   1.00
H260   H     0.60099   0.66346   0.25545   0.00000  Uiso   1.00
H261   H     0.49586   0.45482   0.21848   0.00000  Uiso   1.00
H262   H     0.50465   0.54392   0.28379   0.00000  Uiso   1.00
H263   H     0.51410   0.43068   0.13470   0.00000  Uiso   1.00
H264   H     0.45600   0.40895   0.09016   0.00000  Uiso   1.00
H265   H     0.44194   0.42847   0.15057   0.00000  Uiso   1.00
H266   H     0.42712   0.66572   0.39079   0.00000  Uiso   1.00
H267   H     0.40977   0.36894   0.44413   0.00000  Uiso   1.00
H268   H     0.46850   0.65957   0.44702   0.00000  Uiso   1.00
H269   H     0.58129   0.37832   0.45445   0.00000  Uiso   1.00
H270   H     0.56255   0.52753   0.10272   0.00000  Uiso   1.00
H271   H     0.44386   0.46899   0.38674   0.00000  Uiso   1.00
H272   H     0.35803   0.41845   0.10409   0.00000  Uiso   1.00
H273   H     0.62404   0.54340   0.41094   0.00000  Uiso   1.00
H274   H     0.64965   0.54961   0.49880   0.00000  Uiso   1.00
H275   H     0.65726   0.38418   0.02169   0.00000  Uiso   1.00
H276   H     0.39901   0.33654   0.24445   0.00000  Uiso   1.00
N277   N     0.48029   0.48550   0.23739   0.00000  Uiso   1.00
N278   N     0.51971   0.51450   0.26260   0.00000  Uiso   1.00
O279   O     0.63052   0.57964   0.25309   0.00000  Uiso   1.00
O280   O     0.48341   0.39560   0.41232   0.00000  Uiso   1.00
O281   O     0.36948   0.42036   0.24690   0.00000  Uiso   1.00
O282   O     0.39155   0.57035   0.24501   0.00000  Uiso   1.00
O283   O     0.60845   0.42965   0.25498   0.00000  Uiso   1.00
O284   O     0.63662   0.50730   0.32247   0.00000  Uiso   1.00
O285   O     0.36338   0.49270   0.17753   0.00000  Uiso   1.00
O286   O     0.39764   0.49801   0.31439   0.00000  Uiso   1.00
O287   O     0.60236   0.50199   0.18561   0.00000  Uiso   1.00
O288   O     0.46673   0.49104   0.11118   0.00000  Uiso   1.00
Zn289  Zn    0.60366   0.50621   0.25539   0.00000  Uiso   1.00
Zn290  Zn    0.39634   0.49379   0.24460   0.00000  Uiso   1.00
C291   C     0.68166   0.59816   0.24878   0.00000  Uiso   1.00
C292   C     0.97789   0.49365   0.15911   0.00000  Uiso   1.00
C293   C     0.69911   0.50447   0.39344   0.00000  Uiso   1.00
C294   C     0.96363   0.47704   0.10811   0.00000  Uiso   1.00
C295   C     0.67708   0.53039   0.47479   0.00000  Uiso   1.00
C296   C     0.96871   0.41470   0.03946   0.00000  Uiso   1.00
C297   C     0.99580   0.52684   0.42493   0.00000  Uiso   1.00
C298   C     0.98971   0.43570   0.08557   0.00000  Uiso   1.00
C299   C     0.74808   0.48293   0.41190   0.00000  Uiso   1.00
C300   C     0.91500   0.49487   0.08553   0.00000  Uiso   1.00
C301   C     0.76147   0.48268   0.46174   0.00000  Uiso   1.00
C302   C     0.98500   0.40184   0.25117   0.00000  Uiso   1.00
C303   C     0.88777   0.46747   0.04429   0.00000  Uiso   1.00
C304   C     0.72725   0.50991   0.49327   0.00000  Uiso   1.00
C305   C     0.91729   0.43051   0.01852   0.00000  Uiso   1.00
C306   C     0.81104   0.46047   0.48067   0.00000  Uiso   1.00
C307   C     0.83136   0.47592   0.02883   0.00000  Uiso   1.00
C308   C     0.80329   0.43766   0.12134   0.00000  Uiso   1.00
C309   C     0.77904   0.35420   0.42474   0.00000  Uiso   1.00
C310   C     0.79301   0.49578   0.06136   0.00000  Uiso   1.00
C311   C     0.84045   0.42240   0.45463   0.00000  Uiso   1.00
C312   C     0.74313   0.51554   0.04288   0.00000  Uiso   1.00
C313   C     0.89314   0.40788   0.47403   0.00000  Uiso   1.00
C314   C     0.68943   0.65276   0.24807   0.00000  Uiso   1.00
C315   C     0.97724   0.34724   0.25184   0.00000  Uiso   1.00
C316   C     0.68832   0.50391   0.34096   0.00000  Uiso   1.00
H317   H     0.71604   0.53401   0.06763   0.00000  Uiso   1.00
H318   H     0.93432   0.66346   0.25545   0.00000  Uiso   1.00
H319   H     0.82920   0.45482   0.21848   0.00000  Uiso   1.00
H320   H     0.83799   0.54392   0.28379   0.00000  Uiso   1.00
H321   H     0.84743   0.43068   0.13470   0.00000  Uiso   1.00
H322   H     0.78934   0.40895   0.09016   0.00000  Uiso   1.00
H323   H     0.77527   0.42847   0.15057   0.00000  Uiso   1.00
H324   H     0.76045   0.66572   0.39079   0.00000  Uiso   1.00
H325   H     0.74310   0.36894   0.44413   0.00000  Uiso   1.00
H326   H     0.80183   0.65957   0.44702   0.00000  Uiso   1.00
H327   H     0.91462   0.37832   0.45445   0.00000  Uiso   1.00
H328   H     0.89588   0.52753   0.10272   0.00000  Uiso   1.00
H329   H     0.77719   0.46899   0.38674   0.00000  Uiso   1.00
H330   H     0.69136   0.41845   0.10409   0.00000  Uiso   1.00
H331   H     0.95737   0.54340   0.41094   0.00000  Uiso   1.00
H332   H     0.98298   0.54961   0.49880   0.00000  Uiso   1.00
H333   H     0.99059   0.38418   0.02169   0.00000  Uiso   1.00
H334   H     0.73234   0.33654   0.24445   0.00000  Uiso   1.00
N335   N     0.81362   0.48550   0.23739   0.00000  Uiso   1.00
N336   N     0.85305   0.51450   0.26260   0.00000  Uiso   1.00
O337   O     0.96386   0.57964   0.25309   0.00000  Uiso   1.00
O338   O     0.81675   0.39560   0.41232   0.00000  Uiso   1.00
O339   O     0.70281   0.42036   0.24690   0.00000  Uiso   1.00
O340   O     0.72488   0.57035   0.24501   0.00000  Uiso   1.00
O341   O     0.94178   0.42965   0.25498   0.00000  Uiso   1.00
O342   O     0.96995   0.50730   0.32247   0.00000  Uiso   1.00
O343   O     0.69672   0.49270   0.17753   0.00000  Uiso   1.00
O344   O     0.73098   0.49801   0.31439   0.00000  Uiso   1.00
O345   O     0.93569   0.50199   0.18561   0.00000  Uiso   1.00
O346   O     0.80006   0.49104   0.11118   0.00000  Uiso   1.00
Zn347  Zn    0.93700   0.50621   0.25539   0.00000  Uiso   1.00
Zn348  Zn    0.72967   0.49379   0.24460   0.00000  Uiso   1.00
C349   C     0.01499   0.93150   0.24878   0.00000  Uiso   1.00
C350   C     0.31123   0.82699   0.15911   0.00000  Uiso   1.00
C351   C     0.03244   0.83781   0.39344   0.00000  Uiso   1.00
C352   C     0.29697   0.81037   0.10811   0.00000  Uiso   1.00
C353   C     0.01041   0.86372   0.47479   0.00000  Uiso   1.00
C354   C     0.30204   0.74804   0.03946   0.00000  Uiso   1.00
C355   C     0.32914   0.86018   0.42493   0.00000  Uiso   1.00
C356   C     0.32305   0.76903   0.08557   0.00000  Uiso   1.00
C357   C     0.08141   0.81626   0.41190   0.00000  Uiso   1.00
C358   C     0.24833   0.82820   0.08553   0.00000  Uiso   1.00
C359   C     0.09480   0.81602   0.46174   0.00000  Uiso   1.00
C360   C     0.31834   0.73517   0.25117   0.00000  Uiso   1.00
C361   C     0.22110   0.80080   0.04429   0.00000  Uiso   1.00
C362   C     0.06059   0.84324   0.49327   0.00000  Uiso   1.00
C363   C     0.25062   0.76384   0.01852   0.00000  Uiso   1.00
C364   C     0.14438   0.79381   0.48067   0.00000  Uiso   1.00
C365   C     0.16469   0.80926   0.02883   0.00000  Uiso   1.00
C366   C     0.13663   0.77099   0.12134   0.00000  Uiso   1.00
C367   C     0.11237   0.68753   0.42474   0.00000  Uiso   1.00
C368   C     0.12634   0.82911   0.06136   0.00000  Uiso   1.00
C369   C     0.17379   0.75573   0.45463   0.00000  Uiso   1.00
C370   C     0.07646   0.84888   0.04288   0.00000  Uiso   1.00
C371   C     0.22647   0.74121   0.47403   0.00000  Uiso   1.00
C372   C     0.02276   0.98610   0.24807   0.00000  Uiso   1.00
C373   C     0.31057   0.68057   0.25184   0.00000  Uiso   1.00
C374   C     0.02165   0.83724   0.34096   0.00000  Uiso   1.00
H375   H     0.04937   0.86734   0.06763   0.00000  Uiso   1.00
H376   H     0.26766   0.99680   0.25545   0.00000  Uiso   1.00
H377   H     0.16253   0.78815   0.21848   0.00000  Uiso   1.00
H378   H     0.17132   0.87725   0.28379   0.00000  Uiso   1.00
H379   H     0.18077   0.76401   0.13470   0.00000  Uiso   1.00
H380   H     0.12267   0.74228   0.09016   0.00000  Uiso   1.00
H381   H     0.10860   0.76180   0.15057   0.00000  Uiso   1.00
H382   H     0.09379   0.99905   0.39079   0.00000  Uiso   1.00
H383   H     0.07643   0.70227   0.44413   0.00000  Uiso   1.00
H384   H     0.13516   0.99290   0.44702   0.00000  Uiso   1.00
H385   H     0.24796   0.71166   0.45445   0.00000  Uiso   1.00
H386   H     0.22921   0.86086   0.10272   0.00000  Uiso   1.00
H387   H     0.11053   0.80232   0.38674   0.00000  Uiso   1.00
H388   H     0.02469   0.75178   0.10409   0.00000  Uiso   1.00
H389   H     0.29071   0.87674   0.41094   0.00000  Uiso   1.00
H390   H     0.31631   0.88294   0.49880   0.00000  Uiso   1.00
H391   H     0.32392   0.71752   0.02169   0.00000  Uiso   1.00
H392   H     0.06568   0.66988   0.24445   0.00000  Uiso   1.00
N393   N     0.14695   0.81883   0.23739   0.00000  Uiso   1.00
N394   N     0.18638   0.84784   0.26260   0.00000  Uiso   1.00
O395   O     0.29719   0.91298   0.25309   0.00000  Uiso   1.00
O396   O     0.15008   0.72893   0.41232   0.00000  Uiso   1.00
O397   O     0.03614   0.75369   0.24690   0.00000  Uiso   1.00
O398   O     0.05822   0.90368   0.24501   0.00000  Uiso   1.00
O399   O     0.27512   0.76298   0.25498   0.00000  Uiso   1.00
O400   O     0.30328   0.84063   0.32247   0.00000  Uiso   1.00
O401   O     0.03005   0.82603   0.17753   0.00000  Uiso   1.00
O402   O     0.06431   0.83134   0.31439   0.00000  Uiso   1.00
O403   O     0.26902   0.83533   0.18561   0.00000  Uiso   1.00
O404   O     0.13339   0.82438   0.11118   0.00000  Uiso   1.00
Zn405  Zn    0.27033   0.83954   0.25539   0.00000  Uiso   1.00
Zn406  Zn    0.06300   0.82713   0.24460   0.00000  Uiso   1.00
C407   C     0.34832   0.93150   0.24878   0.00000  Uiso   1.00
C408   C     0.64456   0.82699   0.15911   0.00000  Uiso   1.00
C409   C     0.36578   0.83781   0.39344   0.00000  Uiso   1.00
C410   C     0.63030   0.81037   0.10811   0.00000  Uiso   1.00
C411   C     0.34374   0.86372   0.47479   0.00000  Uiso   1.00
C412   C     0.63537   0.74804   0.03946   0.00000  Uiso   1.00
C413   C     0.66247   0.86018   0.42493   0.00000  Uiso   1.00
C414   C     0.65638   0.76903   0.08557   0.00000  Uiso   1.00
C415   C     0.41474   0.81626   0.41190   0.00000  Uiso   1.00
C416   C     0.58166   0.82820   0.08553   0.00000  Uiso   1.00
C417   C     0.42813   0.81602   0.46174   0.00000  Uiso   1.00
C418   C     0.65167   0.73517   0.25117   0.00000  Uiso   1.00
C419   C     0.55444   0.80080   0.04429   0.00000  Uiso   1.00
C420   C     0.39392   0.84324   0.49327   0.00000  Uiso   1.00
C421   C     0.58395   0.76384   0.01852   0.00000  Uiso   1.00
C422   C     0.47771   0.79381   0.48067   0.00000  Uiso   1.00
C423   C     0.49803   0.80926   0.02883   0.00000  Uiso   1.00
C424   C     0.46996   0.77099   0.12134   0.00000  Uiso   1.00
C425   C     0.44570   0.68753   0.42474   0.00000  Uiso   1.00
C426   C     0.45967   0.82911   0.06136   0.00000  Uiso   1.00
C427   C     0.50712   0.75573   0.45463   0.00000  Uiso   1.00
C428   C     0.40979   0.84888   0.04288   0.00000  Uiso   1.00
C429   C     0.55981   0.74121   0.47403   0.00000  Uiso   1.00
C430   C     0.35610   0.98610   0.24807   0.00000  Uiso   1.00
C431   C     0.64390   0.68057   0.25184   0.00000  Uiso   1.00
C432   C     0.35498   0.83724   0.34096   0.00000  Uiso   1.00
H433   H     0.38271   0.86734   0.06763   0.00000  Uiso   1.00
H434   H     0.60099   0.99680   0.25545   0.00000  Uiso   1.00
H435   H     0.49586   0.78815   0.21848   0.00000  Uiso   1.00
H436   H     0.50465   0.87725   0.28379   0.00000  Uiso   1.00
H437   H     0.51410   0.76401   0.13470   0.00000  Uiso   1.00
H438   H     0.45600   0.74228   0.09016   0.00000  Uiso   1.00
H439   H     0.44194   0.76180   0.15057   0.00000  Uiso   1.00
H440   H     0.42712   0.99905   0.39079   0.00000  Uiso   1.00
H441   H     0.40977   0.70227   0.44413   0.00000  Uiso   1.00
H442   H     0.46850   0.99290   0.44702   0.00000  Uiso   1.00
H443   H     0.58129   0.71166   0.45445   0.00000  Uiso   1.00
H444   H     0.56255   0.86086   0.10272   0.00000  Uiso   1.00
H445   H     0.44386   0.80232   0.38674   0.00000  Uiso   1.00
H446   H     0.35803   0.75178   0.10409   0.00000  Uiso   1.00
H447   H     0.62404   0.87674   0.41094   0.00000  Uiso   1.00
H448   H     0.64965   0.88294   0.49880   0.00000  Uiso   1.00
H449   H     0.65726   0.71752   0.02169   0.00000  Uiso   1.00
H450   H     0.39901   0.66988   0.24445   0.00000  Uiso   1.00
N451   N     0.48029   0.81883   0.23739   0.00000  Uiso   1.00
N452   N     0.51971   0.84784   0.26260   0.00000  Uiso   1.00
O453   O     0.63052   0.91298   0.25309   0.00000  Uiso   1.00
O454   O     0.48341   0.72893   0.41232   0.00000  Uiso   1.00
O455   O     0.36948   0.75369   0.24690   0.00000  Uiso   1.00
O456   O     0.39155   0.90368   0.24501   0.00000  Uiso   1.00
O457   O     0.60845   0.76298   0.25498   0.00000  Uiso   1.00
O458   O     0.63662   0.84063   0.32247   0.00000  Uiso   1.00
O459   O     0.36338   0.82603   0.17753   0.00000  Uiso   1.00
O460   O     0.39764   0.83134   0.31439   0.00000  Uiso   1.00
O461   O     0.60236   0.83533   0.18561   0.00000  Uiso   1.00
O462   O     0.46673   0.82438   0.11118   0.00000  Uiso   1.00
Zn463  Zn    0.60366   0.83954   0.25539   0.00000  Uiso   1.00
Zn464  Zn    0.39634   0.82713   0.24460   0.00000  Uiso   1.00
C465   C     0.68166   0.93150   0.24878   0.00000  Uiso   1.00
C466   C     0.97789   0.82699   0.15911   0.00000  Uiso   1.00
C467   C     0.69911   0.83781   0.39344   0.00000  Uiso   1.00
C468   C     0.96363   0.81037   0.10811   0.00000  Uiso   1.00
C469   C     0.67708   0.86372   0.47479   0.00000  Uiso   1.00
C470   C     0.96871   0.74804   0.03946   0.00000  Uiso   1.00
C471   C     0.99580   0.86018   0.42493   0.00000  Uiso   1.00
C472   C     0.98971   0.76903   0.08557   0.00000  Uiso   1.00
C473   C     0.74808   0.81626   0.41190   0.00000  Uiso   1.00
C474   C     0.91500   0.82820   0.08553   0.00000  Uiso   1.00
C475   C     0.76147   0.81602   0.46174   0.00000  Uiso   1.00
C476   C     0.98500   0.73517   0.25117   0.00000  Uiso   1.00
C477   C     0.88777   0.80080   0.04429   0.00000  Uiso   1.00
C478   C     0.72725   0.84324   0.49327   0.00000  Uiso   1.00
C479   C     0.91729   0.76384   0.01852   0.00000  Uiso   1.00
C480   C     0.81104   0.79381   0.48067   0.00000  Uiso   1.00
C481   C     0.83136   0.80926   0.02883   0.00000  Uiso   1.00
C482   C     0.80329   0.77099   0.12134   0.00000  Uiso   1.00
C483   C     0.77904   0.68753   0.42474   0.00000  Uiso   1.00
C484   C     0.79301   0.82911   0.06136   0.00000  Uiso   1.00
C485   C     0.84045   0.75573   0.45463   0.00000  Uiso   1.00
C486   C     0.74313   0.84888   0.04288   0.00000  Uiso   1.00
C487   C     0.89314   0.74121   0.47403   0.00000  Uiso   1.00
C488   C     0.68943   0.98610   0.24807   0.00000  Uiso   1.00
C489   C     0.97724   0.68057   0.25184   0.00000  Uiso   1.00
C490   C     0.68832   0.83724   0.34096   0.00000  Uiso   1.00
H491   H     0.71604   0.86734   0.06763   0.00000  Uiso   1.00
H492   H     0.93432   0.99680   0.25545   0.00000  Uiso   1.00
H493   H     0.82920   0.78815   0.21848   0.00000  Uiso   1.00
H494   H     0.83799   0.87725   0.28379   0.00000  Uiso   1.00
H495   H     0.84743   0.76401   0.13470   0.00000  Uiso   1.00
H496   H     0.78934   0.74228   0.09016   0.00000  Uiso   1.00
H497   H     0.77527   0.76180   0.15057   0.00000  Uiso   1.00
H498   H     0.76045   0.99905   0.39079   0.00000  Uiso   1.00
H499   H     0.74310   0.70227   0.44413   0.00000  Uiso   1.00
H500   H     0.80183   0.99290   0.44702   0.00000  Uiso   1.00
H501   H     0.91462   0.71166   0.45445   0.00000  Uiso   1.00
H502   H     0.89588   0.86086   0.10272   0.00000  Uiso   1.00
H503   H     0.77719   0.80232   0.38674   0.00000  Uiso   1.00
H504   H     0.69136   0.75178   0.10409   0.00000  Uiso   1.00
H505   H     0.95737   0.87674   0.41094   0.00000  Uiso   1.00
H506   H     0.98298   0.88294   0.49880   0.00000  Uiso   1.00
H507   H     0.99059   0.71752   0.02169   0.00000  Uiso   1.00
H508   H     0.73234   0.66988   0.24445   0.00000  Uiso   1.00
N509   N     0.81362   0.81883   0.23739   0.00000  Uiso   1.00
N510   N     0.85305   0.84784   0.26260   0.00000  Uiso   1.00
O511   O     0.96386   0.91298   0.25309   0.00000  Uiso   1.00
O512   O     0.81675   0.72893   0.41232   0.00000  Uiso   1.00
O513   O     0.70281   0.75369   0.24690   0.00000  Uiso   1.00
O514   O     0.72488   0.90368   0.24501   0.00000  Uiso   1.00
O515   O     0.94178   0.76298   0.25498   0.00000  Uiso   1.00
O516   O     0.96995   0.84063   0.32247   0.00000  Uiso   1.00
O517   O     0.69672   0.82603   0.17753   0.00000  Uiso   1.00
O518   O     0.73098   0.83134   0.31439   0.00000  Uiso   1.00
O519   O     0.93569   0.83533   0.18561   0.00000  Uiso   1.00
O520   O     0.80006   0.82438   0.11118   0.00000  Uiso   1.00
Zn521  Zn    0.93700   0.83954   0.25539   0.00000  Uiso   1.00
Zn522  Zn    0.72967   0.82713   0.24460   0.00000  Uiso   1.00
C523   C     0.01499   0.26483   0.74878   0.00000  Uiso   1.00
C524   C     0.31123   0.16032   0.65911   0.00000  Uiso   1.00
C525   C     0.03244   0.17114   0.89344   0.00000  Uiso   1.00
C526   C     0.29697   0.14370   0.60811   0.00000  Uiso   1.00
C527   C     0.01041   0.19705   0.97479   0.00000  Uiso   1.00
C528   C     0.30204   0.08137   0.53946   0.00000  Uiso   1.00
C529   C     0.32914   0.19351   0.92493   0.00000  Uiso   1.00
C530   C     0.32305   0.10237   0.58557   0.00000  Uiso   1.00
C531   C     0.08141   0.14960   0.91190   0.00000  Uiso   1.00
C532   C     0.24833   0.16153   0.58553   0.00000  Uiso   1.00
C533   C     0.09480   0.14935   0.96174   0.00000  Uiso   1.00
C534   C     0.31834   0.06850   0.75117   0.00000  Uiso   1.00
C535   C     0.22110   0.13414   0.54429   0.00000  Uiso   1.00
C536   C     0.06059   0.17657   0.99327   0.00000  Uiso   1.00
C537   C     0.25062   0.09717   0.51852   0.00000  Uiso   1.00
C538   C     0.14438   0.12714   0.98067   0.00000  Uiso   1.00
C539   C     0.16469   0.14259   0.52883   0.00000  Uiso   1.00
C540   C     0.13663   0.10433   0.62134   0.00000  Uiso   1.00
C541   C     0.11237   0.02086   0.92474   0.00000  Uiso   1.00
C542   C     0.12634   0.16244   0.56136   0.00000  Uiso   1.00
C543   C     0.17379   0.08907   0.95463   0.00000  Uiso   1.00
C544   C     0.07646   0.18221   0.54288   0.00000  Uiso   1.00
C545   C     0.22647   0.07454   0.97403   0.00000  Uiso   1.00
C546   C     0.02276   0.31943   0.74807   0.00000  Uiso   1.00
C547   C     0.31057   0.01391   0.75184   0.00000  Uiso   1.00
C548   C     0.02165   0.17057   0.84096   0.00000  Uiso   1.00
H549   H     0.04937   0.20068   0.56763   0.00000  Uiso   1.00
H550   H     0.26766   0.33013   0.75545   0.00000  Uiso   1.00
H551   H     0.16253   0.12149   0.71848   0.00000  Uiso   1.00
H552   H     0.17132   0.21058   0.78379   0.00000  Uiso   1.00
H553   H     0.18077   0.09734   0.63470   0.00000  Uiso   1.00
H554   H     0.12267   0.07562   0.59016   0.00000  Uiso   1.00
H555   H     0.10860   0.09514   0.65057   0.00000  Uiso   1.00
H556   H     0.09379   0.33238   0.89079   0.00000  Uiso   1.00
H557   H     0.07643   0.03560   0.94413   0.00000  Uiso   1.00
H558   H     0.13516   0.32623   0.94702   0.00000  Uiso   1.00
H559   H     0.24796   0.04499   0.95445   0.00000  Uiso   1.00
H560   H     0.22921   0.19420   0.60272   0.00000  Uiso   1.00
H561   H     0.11053   0.13566   0.88674   0.00000  Uiso   1.00
H562   H     0.02469   0.08512   0.60409   0.00000  Uiso   1.00
H563   H     0.29071   0.21007   0.91094   0.00000  Uiso   1.00
H564   H     0.31631   0.21627   0.99880   0.00000  Uiso   1.00
H565   H     0.32392   0.05085   0.52169   0.00000  Uiso   1.00
H566   H     0.06568   0.00321   0.74445   0.00000  Uiso   1.00
N567   N     0.14695   0.15216   0.73739   0.00000  Uiso   1.00
N568   N     0.18638   0.18117   0.76260   0.00000  Uiso   1.00
O569   O     0.29719   0.24631   0.75309   0.00000  Uiso   1.00
O570   O     0.15008   0.06227   0.91232   0.00000  Uiso   1.00
O571   O     0.03614   0.08702   0.74690   0.00000  Uiso   1.00
O572   O     0.05822   0.23702   0.74501   0.00000  Uiso   1.00
O573   O     0.27512   0.09632   0.75498   0.00000  Uiso   1.00
O574   O     0.30328   0.17397   0.82247   0.00000  Uiso   1.00
O575   O     0.03005   0.15937   0.67753   0.00000  Uiso   1.00
O576   O     0.06431   0.16467   0.81439   0.00000  Uiso   1.00
O577   O     0.26902   0.16866   0.68561   0.00000  Uiso   1.00
O578   O     0.13339   0.15771   0.61118   0.00000  Uiso   1.00
Zn579  Zn    0.27033   0.17287   0.75539   0.00000  Uiso   1.00
Zn580  Zn    0.06300   0.16046   0.74460   0.00000  Uiso   1.00
C581   C     0.34832   0.26483   0.74878   0.00000  Uiso   1.00
C582   C     0.64456   0.16032   0.65911   0.00000  Uiso   1.00
C583   C     0.36578   0.17114   0.89344   0.00000  Uiso   1.00
C584   C     0.63030   0.14370   0.60811   0.00000  Uiso   1.00
C585   C     0.34374   0.19705   0.97479   0.00000  Uiso   1.00
C586   C     0.63537   0.08137   0.53946   0.00000  Uiso   1.00
C587   C     0.66247   0.19351   0.92493   0.00000  Uiso   1.00
C588   C     0.65638   0.10237   0.58557   0.00000  Uiso   1.00
C589   C     0.41474   0.14960   0.91190   0.00000  Uiso   1.00
C590   C     0.58166   0.16153   0.58553   0.00000  Uiso   1.00
C591   C     0.42813   0.14935   0.96174   0.00000  Uiso   1.00
C592   C     0.65167   0.06850   0.75117   0.00000  Uiso   1.00
C593   C     0.55444   0.13414   0.54429   0.00000  Uiso   1.00
C594   C     0.39392   0.17657   0.99327   0.00000  Uiso   1.00
C595   C     0.58395   0.09717   0.51852   0.00000  Uiso   1.00
C596   C     0.47771   0.12714   0.98067   0.00000  Uiso   1.00
C597   C     0.49803   0.14259   0.52883   0.00000  Uiso   1.00
C598   C     0.46996   0.10433   0.62134   0.00000  Uiso   1.00
C599   C     0.44570   0.02086   0.92474   0.00000  Uiso   1.00
C600   C     0.45967   0.16244   0.56136   0.00000  Uiso   1.00
C601   C     0.50712   0.08907   0.95463   0.00000  Uiso   1.00
C602   C     0.40979   0.18221   0.54288   0.00000  Uiso   1.00
C603   C     0.55981   0.07454   0.97403   0.00000  Uiso   1.00
C604   C     0.35610   0.31943   0.74807   0.00000  Uiso   1.00
C605   C     0.64390   0.01391   0.75184   0.00000  Uiso   1.00
C606   C     0.35498   0.17057   0.84096   0.00000  Uiso   1.00
H607   H     0.38271   0.20068   0.56763   0.00000  Uiso   1.00
H608   H     0.60099   0.33013   0.75545   0.00000  Uiso   1.00
H609   H     0.49586   0.12149   0.71848   0.00000  Uiso   1.00
H610   H     0.50465   0.21058   0.78379   0.00000  Uiso   1.00
H611   H     0.51410   0.09734   0.63470   0.00000  Uiso   1.00
H612   H     0.45600   0.07562   0.59016   0.00000  Uiso   1.00
H613   H     0.44194   0.09514   0.65057   0.00000  Uiso   1.00
H614   H     0.42712   0.33238   0.89079   0.00000  Uiso   1.00
H615   H     0.40977   0.03560   0.94413   0.00000  Uiso   1.00
H616   H     0.46850   0.32623   0.94702   0.00000  Uiso   1.00
H617   H     0.58129   0.04499   0.95445   0.00000  Uiso   1.00
H618   H     0.56255   0.19420   0.60272   0.00000  Uiso   1.00
H619   H     0.44386   0.13566   0.88674   0.00000  Uiso   1.00
H620   H     0.35803   0.08512   0.60409   0.00000  Uiso   1.00
H621   H     0.62404   0.21007   0.91094   0.00000  Uiso   1.00
H622   H     0.64965   0.21627   0.99880   0.00000  Uiso   1.00
H623   H     0.65726   0.05085   0.52169   0.00000  Uiso   1.00
H624   H     0.39901   0.00321   0.74445   0.00000  Uiso   1.00
N625   N     0.48029   0.15216   0.73739   0.00000  Uiso   1.00
N626   N     0.51971   0.18117   0.76260   0.00000  Uiso   1.00
O627   O     0.63052   0.24631   0.75309   0.00000  Uiso   1.00
O628   O     0.48341   0.06227   0.91232   0.00000  Uiso   1.00
O629   O     0.36948   0.08702   0.74690   0.00000  Uiso   1.00
O630   O     0.39155   0.23702   0.74501   0.00000  Uiso   1.00
O631   O     0.60845   0.09632   0.75498   0.00000  Uiso   1.00
O632   O     0.63662   0.17397   0.82247   0.00000  Uiso   1.00
O633   O     0.36338   0.15937   0.67753   0.00000  Uiso   1.00
O634   O     0.39764   0.16467   0.81439   0.00000  Uiso   1.00
O635   O     0.60236   0.16866   0.68561   0.00000  Uiso   1.00
O636   O     0.46673   0.15771   0.61118   0.00000  Uiso   1.00
Zn637  Zn    0.60366   0.17287   0.75539   0.00000  Uiso   1.00
Zn638  Zn    0.39634   0.16046   0.74460   0.00000  Uiso   1.00
C639   C     0.68166   0.26483   0.74878   0.00000  Uiso   1.00
C640   C     0.97789   0.16032   0.65911   0.00000  Uiso   1.00
C641   C     0.69911   0.17114   0.89344   0.00000  Uiso   1.00
C642   C     0.96363   0.14370   0.60811   0.00000  Uiso   1.00
C643   C     0.67708   0.19705   0.97479   0.00000  Uiso   1.00
C644   C     0.96871   0.08137   0.53946   0.00000  Uiso   1.00
C645   C     0.99580   0.19351   0.92493   0.00000  Uiso   1.00
C646   C     0.98971   0.10237   0.58557   0.00000  Uiso   1.00
C647   C     0.74808   0.14960   0.91190   0.00000  Uiso   1.00
C648   C     0.91500   0.16153   0.58553   0.00000  Uiso   1.00
C649   C     0.76147   0.14935   0.96174   0.00000  Uiso   1.00
C650   C     0.98500   0.06850   0.75117   0.00000  Uiso   1.00
C651   C     0.88777   0.13414   0.54429   0.00000  Uiso   1.00
C652   C     0.72725   0.17657   0.99327   0.00000  Uiso   1.00
C653   C     0.91729   0.09717   0.51852   0.00000  Uiso   1.00
C654   C     0.81104   0.12714   0.98067   0.00000  Uiso   1.00
C655   C     0.83136   0.14259   0.52883   0.00000  Uiso   1.00
C656   C     0.80329   0.10433   0.62134   0.00000  Uiso   1.00
C657   C     0.77904   0.02086   0.92474   0.00000  Uiso   1.00
C658   C     0.79301   0.16244   0.56136   0.00000  Uiso   1.00
C659   C     0.84045   0.08907   0.95463   0.00000  Uiso   1.00
C660   C     0.74313   0.18221   0.54288   0.00000  Uiso   1.00
C661   C     0.89314   0.07454   0.97403   0.00000  Uiso   1.00
C662   C     0.68943   0.31943   0.74807   0.00000  Uiso   1.00
C663   C     0.97724   0.01391   0.75184   0.00000  Uiso   1.00
C664   C     0.68832   0.17057   0.84096   0.00000  Uiso   1.00
H665   H     0.71604   0.20068   0.56763   0.00000  Uiso   1.00
H666   H     0.93432   0.33013   0.75545   0.00000  Uiso   1.00
H667   H     0.82920   0.12149   0.71848   0.00000  Uiso   1.00
H668   H     0.83799   0.21058   0.78379   0.00000  Uiso   1.00
H669   H     0.84743   0.09734   0.63470   0.00000  Uiso   1.00
H670   H     0.78934   0.07562   0.59016   0.00000  Uiso   1.00
H671   H     0.77527   0.09514   0.65057   0.00000  Uiso   1.00
H672   H     0.76045   0.33238   0.89079   0.00000  Uiso   1.00
H673   H     0.74310   0.03560   0.94413   0.00000  Uiso   1.00
H674   H     0.80183   0.32623   0.94702   0.00000  Uiso   1.00
H675   H     0.91462   0.04499   0.95445   0.00000  Uiso   1.00
H676   H     0.89588   0.19420   0.60272   0.00000  Uiso   1.00
H677   H     0.77719   0.13566   0.88674   0.00000  Uiso   1.00
H678   H     0.69136   0.08512   0.60409   0.00000  Uiso   1.00
H679   H     0.95737   0.21007   0.91094   0.00000  Uiso   1.00
H680   H     0.98298   0.21627   0.99880   0.00000  Uiso   1.00
H681   H     0.99059   0.05085   0.52169   0.00000  Uiso   1.00
H682   H     0.73234   0.00321   0.74445   0.00000  Uiso   1.00
N683   N     0.81362   0.15216   0.73739   0.00000  Uiso   1.00
N684   N     0.85305   0.18117   0.76260   0.00000  Uiso   1.00
O685   O     0.96386   0.24631   0.75309   0.00000  Uiso   1.00
O686   O     0.81675   0.06227   0.91232   0.00000  Uiso   1.00
O687   O     0.70281   0.08702   0.74690   0.00000  Uiso   1.00
O688   O     0.72488   0.23702   0.74501   0.00000  Uiso   1.00
O689   O     0.94178   0.09632   0.75498   0.00000  Uiso   1.00
O690   O     0.96995   0.17397   0.82247   0.00000  Uiso   1.00
O691   O     0.69672   0.15937   0.67753   0.00000  Uiso   1.00
O692   O     0.73098   0.16467   0.81439   0.00000  Uiso   1.00
O693   O     0.93569   0.16866   0.68561   0.00000  Uiso   1.00
O694   O     0.80006   0.15771   0.61118   0.00000  Uiso   1.00
Zn695  Zn    0.93700   0.17287   0.75539   0.00000  Uiso   1.00
Zn696  Zn    0.72967   0.16046   0.74460   0.00000  Uiso   1.00
C697   C     0.01499   0.59816   0.74878   0.00000  Uiso   1.00
C698   C     0.31123   0.49365   0.65911   0.00000  Uiso   1.00
C699   C     0.03244   0.50447   0.89344   0.00000  Uiso   1.00
C700   C     0.29697   0.47704   0.60811   0.00000  Uiso   1.00
C701   C     0.01041   0.53039   0.97479   0.00000  Uiso   1.00
C702   C     0.30204   0.41470   0.53946   0.00000  Uiso   1.00
C703   C     0.32914   0.52684   0.92493   0.00000  Uiso   1.00
C704   C     0.32305   0.43570   0.58557   0.00000  Uiso   1.00
C705   C     0.08141   0.48293   0.91190   0.00000  Uiso   1.00
C706   C     0.24833   0.49487   0.58553   0.00000  Uiso   1.00
C707   C     0.09480   0.48268   0.96174   0.00000  Uiso   1.00
C708   C     0.31834   0.40184   0.75117   0.00000  Uiso   1.00
C709   C     0.22110   0.46747   0.54429   0.00000  Uiso   1.00
C710   C     0.06059   0.50991   0.99327   0.00000  Uiso   1.00
C711   C     0.25062   0.43051   0.51852   0.00000  Uiso   1.00
C712   C     0.14438   0.46047   0.98067   0.00000  Uiso   1.00
C713   C     0.16469   0.47592   0.52883   0.00000  Uiso   1.00
C714   C     0.13663   0.43766   0.62134   0.00000  Uiso   1.00
C715   C     0.11237   0.35420   0.92474   0.00000  Uiso   1.00
C716   C     0.12634   0.49578   0.56136   0.00000  Uiso   1.00
C717   C     0.17379   0.42240   0.95463   0.00000  Uiso   1.00
C718   C     0.07646   0.51554   0.54288   0.00000  Uiso   1.00
C719   C     0.22647   0.40788   0.97403   0.00000  Uiso   1.00
C720   C     0.02276   0.65276   0.74807   0.00000  Uiso   1.00
C721   C     0.31057   0.34724   0.75184   0.00000  Uiso   1.00
C722   C     0.02165   0.50391   0.84096   0.00000  Uiso   1.00
H723   H     0.04937   0.53401   0.56763   0.00000  Uiso   1.00
H724   H     0.26766   0.66346   0.75545   0.00000  Uiso   1.00
H725   H     0.16253   0.45482   0.71848   0.00000  Uiso   1.00
H726   H     0.17132   0.54392   0.78379   0.00000  Uiso   1.00
H727   H     0.18077   0.43068   0.63470   0.00000  Uiso   1.00
H728   H     0.12267   0.40895   0.59016   0.00000  Uiso   1.00
H729   H     0.10860   0.42847   0.65057   0.00000  Uiso   1.00
H730   H     0.09379   0.66572   0.89079   0.00000  Uiso   1.00
H731   H     0.07643   0.36894   0.94413   0.00000  Uiso   1.00
H732   H     0.13516   0.65957   0.94702   0.00000  Uiso   1.00
H733   H     0.24796   0.37832   0.95445   0.00000  Uiso   1.00
H734   H     0.22921   0.52753   0.60272   0.00000  Uiso   1.00
H735   H     0.11053   0.46899   0.88674   0.00000  Uiso   1.00
H736   H     0.02469   0.41845   0.60409   0.00000  Uiso   1.00
H737   H     0.29071   0.54340   0.91094   0.00000  Uiso   1.00
H738   H     0.31631   0.54961   0.99880   0.00000  Uiso   1.00
H739   H     0.32392   0.38418   0.52169   0.00000  Uiso   1.00
H740   H     0.06568   0.33654   0.74445   0.00000  Uiso   1.00
N741   N     0.14695   0.48550   0.73739   0.00000  Uiso   1.00
N742   N     0.18638   0.51450   0.76260   0.00000  Uiso   1.00
O743   O     0.29719   0.57964   0.75309   0.00000  Uiso   1.00
O744   O     0.15008   0.39560   0.91232   0.00000  Uiso   1.00
O745   O     0.03614   0.42036   0.74690   0.00000  Uiso   1.00
O746   O     0.05822   0.57035   0.74501   0.00000  Uiso   1.00
O747   O     0.27512   0.42965   0.75498   0.00000  Uiso   1.00
O748   O     0.30328   0.50730   0.82247   0.00000  Uiso   1.00
O749   O     0.03005   0.49270   0.67753   0.00000  Uiso   1.00
O750   O     0.06431   0.49801   0.81439   0.00000  Uiso   1.00
O751   O     0.26902   0.50199   0.68561   0.00000  Uiso   1.00
O752   O     0.13339   0.49104   0.61118   0.00000  Uiso   1.00
Zn753  Zn    0.27033   0.50621   0.75539   0.00000  Uiso   1.00
Zn754  Zn    0.06300   0.49379   0.74460   0.00000  Uiso   1.00
C755   C     0.34832   0.59816   0.74878   0.00000  Uiso   1.00
C756   C     0.64456   0.49365   0.65911   0.00000  Uiso   1.00
C757   C     0.36578   0.50447   0.89344   0.00000  Uiso   1.00
C758   C     0.63030   0.47704   0.60811   0.00000  Uiso   1.00
C759   C     0.34374   0.53039   0.97479   0.00000  Uiso   1.00
C760   C     0.63537   0.41470   0.53946   0.00000  Uiso   1.00
C761   C     0.66247   0.52684   0.92493   0.00000  Uiso   1.00
C762   C     0.65638   0.43570   0.58557   0.00000  Uiso   1.00
C763   C     0.41474   0.48293   0.91190   0.00000  Uiso   1.00
C764   C     0.58166   0.49487   0.58553   0.00000  Uiso   1.00
C765   C     0.42813   0.48268   0.96174   0.00000  Uiso   1.00
C766   C     0.65167   0.40184   0.75117   0.00000  Uiso   1.00
C767   C     0.55444   0.46747   0.54429   0.00000  Uiso   1.00
C768   C     0.39392   0.50991   0.99327   0.00000  Uiso   1.00
C769   C     0.58395   0.43051   0.51852   0.00000  Uiso   1.00
C770   C     0.47771   0.46047   0.98067   0.00000  Uiso   1.00
C771   C     0.49803   0.47592   0.52883   0.00000  Uiso   1.00
C772   C     0.46996   0.43766   0.62134   0.00000  Uiso   1.00
C773   C     0.44570   0.35420   0.92474   0.00000  Uiso   1.00
C774   C     0.45967   0.49578   0.56136   0.00000  Uiso   1.00
C775   C     0.50712   0.42240   0.95463   0.00000  Uiso   1.00
C776   C     0.40979   0.51554   0.54288   0.00000  Uiso   1.00
C777   C     0.55981   0.40788   0.97403   0.00000  Uiso   1.00
C778   C     0.35610   0.65276   0.74807   0.00000  Uiso   1.00
C779   C     0.64390   0.34724   0.75184   0.00000  Uiso   1.00
C780   C     0.35498   0.50391   0.84096   0.00000  Uiso   1.00
H781   H     0.38271   0.53401   0.56763   0.00000  Uiso   1.00
H782   H     0.60099   0.66346   0.75545   0.00000  Uiso   1.00
H783   H     0.49586   0.45482   0.71848   0.00000  Uiso   1.00
H784   H     0.50465   0.54392   0.78379   0.00000  Uiso   1.00
H785   H     0.51410   0.43068   0.63470   0.00000  Uiso   1.00
H786   H     0.45600   0.40895   0.59016   0.00000  Uiso   1.00
H787   H     0.44194   0.42847   0.65057   0.00000  Uiso   1.00
H788   H     0.42712   0.66572   0.89079   0.00000  Uiso   1.00
H789   H     0.40977   0.36894   0.94413   0.00000  Uiso   1.00
H790   H     0.46850   0.65957   0.94702   0.00000  Uiso   1.00
H791   H     0.58129   0.37832   0.95445   0.00000  Uiso   1.00
H792   H     0.56255   0.52753   0.60272   0.00000  Uiso   1.00
H793   H     0.44386   0.46899   0.88674   0.00000  Uiso   1.00
H794   H     0.35803   0.41845   0.60409   0.00000  Uiso   1.00
H795   H     0.62404   0.54340   0.91094   0.00000  Uiso   1.00
H796   H     0.64965   0.54961   0.99880   0.00000  Uiso   1.00
H797   H     0.65726   0.38418   0.52169   0.00000  Uiso   1.00
H798   H     0.39901   0.33654   0.74445   0.00000  Uiso   1.00
N799   N     0.48029   0.48550   0.73739   0.00000  Uiso   1.00
N800   N     0.51971   0.51450   0.76260   0.00000  Uiso   1.00
O801   O     0.63052   0.57964   0.75309   0.00000  Uiso   1.00
O802   O     0.48341   0.39560   0.91232   0.00000  Uiso   1.00
O803   O     0.36948   0.42036   0.74690   0.00000  Uiso   1.00
O804   O     0.39155   0.57035   0.74501   0.00000  Uiso   1.00
O805   O     0.60845   0.42965   0.75498   0.00000  Uiso   1.00
O806   O     0.63662   0.50730   0.82247   0.00000  Uiso   1.00
O807   O     0.36338   0.49270   0.67753   0.00000  Uiso   1.00
O808   O     0.39764   0.49801   0.81439   0.00000  Uiso   1.00
O809   O     0.60236   0.50199   0.68561   0.00000  Uiso   1.00
O810   O     0.46673   0.49104   0.61118   0.00000  Uiso   1.00
Zn811  Zn    0.60366   0.50621   0.75539   0.00000  Uiso   1.00
Zn812  Zn    0.39634   0.49379   0.74460   0.00000  Uiso   1.00
C813   C     0.68166   0.59816   0.74878   0.00000  Uiso   1.00
C814   C     0.97789   0.49365   0.65911   0.00000  Uiso   1.00
C815   C     0.69911   0.50447   0.89344   0.00000  Uiso   1.00
C816   C     0.96363   0.47704   0.60811   0.00000  Uiso   1.00
C817   C     0.67708   0.53039   0.97479   0.00000  Uiso   1.00
C818   C     0.96871   0.41470   0.53946   0.00000  Uiso   1.00
C819   C     0.99580   0.52684   0.92493   0.00000  Uiso   1.00
C820   C     0.98971   0.43570   0.58557   0.00000  Uiso   1.00
C821   C     0.74808   0.48293   0.91190   0.00000  Uiso   1.00
C822   C     0.91500   0.49487   0.58553   0.00000  Uiso   1.00
C823   C     0.76147   0.48268   0.96174   0.00000  Uiso   1.00
C824   C     0.98500   0.40184   0.75117   0.00000  Uiso   1.00
C825   C     0.88777   0.46747   0.54429   0.00000  Uiso   1.00
C826   C     0.72725   0.50991   0.99327   0.00000  Uiso   1.00
C827   C     0.91729   0.43051   0.51852   0.00000  Uiso   1.00
C828   C     0.81104   0.46047   0.98067   0.00000  Uiso   1.00
C829   C     0.83136   0.47592   0.52883   0.00000  Uiso   1.00
C830   C     0.80329   0.43766   0.62134   0.00000  Uiso   1.00
C831   C     0.77904   0.35420   0.92474   0.00000  Uiso   1.00
C832   C     0.79301   0.49578   0.56136   0.00000  Uiso   1.00
C833   C     0.84045   0.42240   0.95463   0.00000  Uiso   1.00
C834   C     0.74313   0.51554   0.54288   0.00000  Uiso   1.00
C835   C     0.89314   0.40788   0.97403   0.00000  Uiso   1.00
C836   C     0.68943   0.65276   0.74807   0.00000  Uiso   1.00
C837   C     0.97724   0.34724   0.75184   0.00000  Uiso   1.00
C838   C     0.68832   0.50391   0.84096   0.00000  Uiso   1.00
H839   H     0.71604   0.53401   0.56763   0.00000  Uiso   1.00
H840   H     0.93432   0.66346   0.75545   0.00000  Uiso   1.00
H841   H     0.82920   0.45482   0.71848   0.00000  Uiso   1.00
H842   H     0.83799   0.54392   0.78379   0.00000  Uiso   1.00
H843   H     0.84743   0.43068   0.63470   0.00000  Uiso   1.00
H844   H     0.78934   0.40895   0.59016   0.00000  Uiso   1.00
H845   H     0.77527   0.42847   0.65057   0.00000  Uiso   1.00
H846   H     0.76045   0.66572   0.89079   0.00000  Uiso   1.00
H847   H     0.74310   0.36894   0.94413   0.00000  Uiso   1.00
H848   H     0.80183   0.65957   0.94702   0.00000  Uiso   1.00
H849   H     0.91462   0.37832   0.95445   0.00000  Uiso   1.00
H850   H     0.89588   0.52753   0.60272   0.00000  Uiso   1.00
H851   H     0.77719   0.46899   0.88674   0.00000  Uiso   1.00
H852   H     0.69136   0.41845   0.60409   0.00000  Uiso   1.00
H853   H     0.95737   0.54340   0.91094   0.00000  Uiso   1.00
H854   H     0.98298   0.54961   0.99880   0.00000  Uiso   1.00
H855   H     0.99059   0.38418   0.52169   0.00000  Uiso   1.00
H856   H     0.73234   0.33654   0.74445   0.00000  Uiso   1.00
N857   N     0.81362   0.48550   0.73739   0.00000  Uiso   1.00
N858   N     0.85305   0.51450   0.76260   0.00000  Uiso   1.00
O859   O     0.96386   0.57964   0.75309   0.00000  Uiso   1.00
O860   O     0.81675   0.39560   0.91232   0.00000  Uiso   1.00
O861   O     0.70281   0.42036   0.74690   0.00000  Uiso   1.00
O862   O     0.72488   0.57035   0.74501   0.00000  Uiso   1.00
O863   O     0.94178   0.42965   0.75498   0.00000  Uiso   1.00
O864   O     0.96995   0.50730   0.82247   0.00000  Uiso   1.00
O865   O     0.69672   0.49270   0.67753   0.00000  Uiso   1.00
O866   O     0.73098   0.49801   0.81439   0.00000  Uiso   1.00
O867   O     0.93569   0.50199   0.68561   0.00000  Uiso   1.00
O868   O     0.80006   0.49104   0.61118   0.00000  Uiso   1.00
Zn869  Zn    0.93700   0.50621   0.75539   0.00000  Uiso   1.00
Zn870  Zn    0.72967   0.49379   0.74460   0.00000  Uiso   1.00
C871   C     0.01499   0.93150   0.74878   0.00000  Uiso   1.00
C872   C     0.31123   0.82699   0.65911   0.00000  Uiso   1.00
C873   C     0.03244   0.83781   0.89344   0.00000  Uiso   1.00
C874   C     0.29697   0.81037   0.60811   0.00000  Uiso   1.00
C875   C     0.01041   0.86372   0.97479   0.00000  Uiso   1.00
C876   C     0.30204   0.74804   0.53946   0.00000  Uiso   1.00
C877   C     0.32914   0.86018   0.92493   0.00000  Uiso   1.00
C878   C     0.32305   0.76903   0.58557   0.00000  Uiso   1.00
C879   C     0.08141   0.81626   0.91190   0.00000  Uiso   1.00
C880   C     0.24833   0.82820   0.58553   0.00000  Uiso   1.00
C881   C     0.09480   0.81602   0.96174   0.00000  Uiso   1.00
C882   C     0.31834   0.73517   0.75117   0.00000  Uiso   1.00
C883   C     0.22110   0.80080   0.54429   0.00000  Uiso   1.00
C884   C     0.06059   0.84324   0.99327   0.00000  Uiso   1.00
C885   C     0.25062   0.76384   0.51852   0.00000  Uiso   1.00
C886   C     0.14438   0.79381   0.98067   0.00000  Uiso   1.00
C887   C     0.16469   0.80926   0.52883   0.00000  Uiso   1.00
C888   C     0.13663   0.77099   0.62134   0.00000  Uiso   1.00
C889   C     0.11237   0.68753   0.92474   0.00000  Uiso   1.00
C890   C     0.12634   0.82911   0.56136   0.00000  Uiso   1.00
C891   C     0.17379   0.75573   0.95463   0.00000  Uiso   1.00
C892   C     0.07646   0.84888   0.54288   0.00000  Uiso   1.00
C893   C     0.22647   0.74121   0.97403   0.00000  Uiso   1.00
C894   C     0.02276   0.98610   0.74807   0.00000  Uiso   1.00
C895   C     0.31057   0.68057   0.75184   0.00000  Uiso   1.00
C896   C     0.02165   0.83724   0.84096   0.00000  Uiso   1.00
H897   H     0.04937   0.86734   0.56763   0.00000  Uiso   1.00
H898   H     0.26766   0.99680   0.75545   0.00000  Uiso   1.00
H899   H     0.16253   0.78815   0.71848   0.00000  Uiso   1.00
H900   H     0.17132   0.87725   0.78379   0.00000  Uiso   1.00
H901   H     0.18077   0.76401   0.63470   0.00000  Uiso   1.00
H902   H     0.12267   0.74228   0.59016   0.00000  Uiso   1.00
H903   H     0.10860   0.76180   0.65057   0.00000  Uiso   1.00
H904   H     0.09379   0.99905   0.89079   0.00000  Uiso   1.00
H905   H     0.07643   0.70227   0.94413   0.00000  Uiso   1.00
H906   H     0.13516   0.99290   0.94702   0.00000  Uiso   1.00
H907   H     0.24796   0.71166   0.95445   0.00000  Uiso   1.00
H908   H     0.22921   0.86086   0.60272   0.00000  Uiso   1.00
H909   H     0.11053   0.80232   0.88674   0.00000  Uiso   1.00
H910   H     0.02469   0.75178   0.60409   0.00000  Uiso   1.00
H911   H     0.29071   0.87674   0.91094   0.00000  Uiso   1.00
H912   H     0.31631   0.88294   0.99880   0.00000  Uiso   1.00
H913   H     0.32392   0.71752   0.52169   0.00000  Uiso   1.00
H914   H     0.06568   0.66988   0.74445   0.00000  Uiso   1.00
N915   N     0.14695   0.81883   0.73739   0.00000  Uiso   1.00
N916   N     0.18638   0.84784   0.76260   0.00000  Uiso   1.00
O917   O     0.29719   0.91298   0.75309   0.00000  Uiso   1.00
O918   O     0.15008   0.72893   0.91232   0.00000  Uiso   1.00
O919   O     0.03614   0.75369   0.74690   0.00000  Uiso   1.00
O920   O     0.05822   0.90368   0.74501   0.00000  Uiso   1.00
O921   O     0.27512   0.76298   0.75498   0.00000  Uiso   1.00
O922   O     0.30328   0.84063   0.82247   0.00000  Uiso   1.00
O923   O     0.03005   0.82603   0.67753   0.00000  Uiso   1.00
O924   O     0.06431   0.83134   0.81439   0.00000  Uiso   1.00
O925   O     0.26902   0.83533   0.68561   0.00000  Uiso   1.00
O926   O     0.13339   0.82438   0.61118   0.00000  Uiso   1.00
Zn927  Zn    0.27033   0.83954   0.75539   0.00000  Uiso   1.00
Zn928  Zn    0.06300   0.82713   0.74460   0.00000  Uiso   1.00
C929   C     0.34832   0.93150   0.74878   0.00000  Uiso   1.00
C930   C     0.64456   0.82699   0.65911   0.00000  Uiso   1.00
C931   C     0.36578   0.83781   0.89344   0.00000  Uiso   1.00
C932   C     0.63030   0.81037   0.60811   0.00000  Uiso   1.00
C933   C     0.34374   0.86372   0.97479   0.00000  Uiso   1.00
C934   C     0.63537   0.74804   0.53946   0.00000  Uiso   1.00
C935   C     0.66247   0.86018   0.92493   0.00000  Uiso   1.00
C936   C     0.65638   0.76903   0.58557   0.00000  Uiso   1.00
C937   C     0.41474   0.81626   0.91190   0.00000  Uiso   1.00
C938   C     0.58166   0.82820   0.58553   0.00000  Uiso   1.00
C939   C     0.42813   0.81602   0.96174   0.00000  Uiso   1.00
C940   C     0.65167   0.73517   0.75117   0.00000  Uiso   1.00
C941   C     0.55444   0.80080   0.54429   0.00000  Uiso   1.00
C942   C     0.39392   0.84324   0.99327   0.00000  Uiso   1.00
C943   C     0.58395   0.76384   0.51852   0.00000  Uiso   1.00
C944   C     0.47771   0.79381   0.98067   0.00000  Uiso   1.00
C945   C     0.49803   0.80926   0.52883   0.00000  Uiso   1.00
C946   C     0.46996   0.77099   0.62134   0.00000  Uiso   1.00
C947   C     0.44570   0.68753   0.92474   0.00000  Uiso   1.00
C948   C     0.45967   0.82911   0.56136   0.00000  Uiso   1.00
C949   C     0.50712   0.75573   0.95463   0.00000  Uiso   1.00
C950   C     0.40979   0.84888   0.54288   0.00000  Uiso   1.00
C951   C     0.55981   0.74121   0.97403   0.00000  Uiso   1.00
C952   C     0.35610   0.98610   0.74807   0.00000  Uiso   1.00
C953   C     0.64390   0.68057   0.75184   0.00000  Uiso   1.00
C954   C     0.35498   0.83724   0.84096   0.00000  Uiso   1.00
H955   H     0.38271   0.86734   0.56763   0.00000  Uiso   1.00
H956   H     0.60099   0.99680   0.75545   0.00000  Uiso   1.00
H957   H     0.49586   0.78815   0.71848   0.00000  Uiso   1.00
H958   H     0.50465   0.87725   0.78379   0.00000  Uiso   1.00
H959   H     0.51410   0.76401   0.63470   0.00000  Uiso   1.00
H960   H     0.45600   0.74228   0.59016   0.00000  Uiso   1.00
H961   H     0.44194   0.76180   0.65057   0.00000  Uiso   1.00
H962   H     0.42712   0.99905   0.89079   0.00000  Uiso   1.00
H963   H     0.40977   0.70227   0.94413   0.00000  Uiso   1.00
H964   H     0.46850   0.99290   0.94702   0.00000  Uiso   1.00
H965   H     0.58129   0.71166   0.95445   0.00000  Uiso   1.00
H966   H     0.56255   0.86086   0.60272   0.00000  Uiso   1.00
H967   H     0.44386   0.80232   0.88674   0.00000  Uiso   1.00
H968   H     0.35803   0.75178   0.60409   0.00000  Uiso   1.00
H969   H     0.62404   0.87674   0.91094   0.00000  Uiso   1.00
H970   H     0.64965   0.88294   0.99880   0.00000  Uiso   1.00
H971   H     0.65726   0.71752   0.52169   0.00000  Uiso   1.00
H972   H     0.39901   0.66988   0.74445   0.00000  Uiso   1.00
N973   N     0.48029   0.81883   0.73739   0.00000  Uiso   1.00
N974   N     0.51971   0.84784   0.76260   0.00000  Uiso   1.00
O975   O     0.63052   0.91298   0.75309   0.00000  Uiso   1.00
O976   O     0.48341   0.72893   0.91232   0.00000  Uiso   1.00
O977   O     0.36948   0.75369   0.74690   0.00000  Uiso   1.00
O978   O     0.39155   0.90368   0.74501   0.00000  Uiso   1.00
O979   O     0.60845   0.76298   0.75498   0.00000  Uiso   1.00
O980   O     0.63662   0.84063   0.82247   0.00000  Uiso   1.00
O981   O     0.36338   0.82603   0.67753   0.00000  Uiso   1.00
O982   O     0.39764   0.83134   0.81439   0.00000  Uiso   1.00
O983   O     0.60236   0.83533   0.68561   0.00000  Uiso   1.00
O984   O     0.46673   0.82438   0.61118   0.00000  Uiso   1.00
Zn985  Zn    0.60366   0.83954   0.75539   0.00000  Uiso   1.00
Zn986  Zn    0.39634   0.82713   0.74460   0.00000  Uiso   1.00
C987   C     0.68166   0.93150   0.74878   0.00000  Uiso   1.00
C988   C     0.97789   0.82699   0.65911   0.00000  Uiso   1.00
C989   C     0.69911   0.83781   0.89344   0.00000  Uiso   1.00
C990   C     0.96363   0.81037   0.60811   0.00000  Uiso   1.00
C991   C     0.67708   0.86372   0.97479   0.00000  Uiso   1.00
C992   C     0.96871   0.74804   0.53946   0.00000  Uiso   1.00
C993   C     0.99580   0.86018   0.92493   0.00000  Uiso   1.00
C994   C     0.98971   0.76903   0.58557   0.00000  Uiso   1.00
C995   C     0.74808   0.81626   0.91190   0.00000  Uiso   1.00
C996   C     0.91500   0.82820   0.58553   0.00000  Uiso   1.00
C997   C     0.76147   0.81602   0.96174   0.00000  Uiso   1.00
C998   C     0.98500   0.73517   0.75117   0.00000  Uiso   1.00
C999   C     0.88777   0.80080   0.54429   0.00000  Uiso   1.00
C1000  C     0.72725   0.84324   0.99327   0.00000  Uiso   1.00
C1001  C     0.91729   0.76384   0.51852   0.00000  Uiso   1.00
C1002  C     0.81104   0.79381   0.98067   0.00000  Uiso   1.00
C1003  C     0.83136   0.80926   0.52883   0.00000  Uiso   1.00
C1004  C     0.80329   0.77099   0.62134   0.00000  Uiso   1.00
C1005  C     0.77904   0.68753   0.92474   0.00000  Uiso   1.00
C1006  C     0.79301   0.82911   0.56136   0.00000  Uiso   1.00
C1007  C     0.84045   0.75573   0.95463   0.00000  Uiso   1.00
C1008  C     0.74313   0.84888   0.54288   0.00000  Uiso   1.00
C1009  C     0.89314   0.74121   0.97403   0.00000  Uiso   1.00
C1010  C     0.68943   0.98610   0.74807   0.00000  Uiso   1.00
C1011  C     0.97724   0.68057   0.75184   0.00000  Uiso   1.00
C1012  C     0.68832   0.83724   0.84096   0.00000  Uiso   1.00
H1013  H     0.71604   0.86734   0.56763   0.00000  Uiso   1.00
H1014  H     0.93432   0.99680   0.75545   0.00000  Uiso   1.00
H1015  H     0.82920   0.78815   0.71848   0.00000  Uiso   1.00
H1016  H     0.83799   0.87725   0.78379   0.00000  Uiso   1.00
H1017  H     0.84743   0.76401   0.63470   0.00000  Uiso   1.00
H1018  H     0.78934   0.74228   0.59016   0.00000  Uiso   1.00
H1019  H     0.77527   0.76180   0.65057   0.00000  Uiso   1.00
H1020  H     0.76045   0.99905   0.89079   0.00000  Uiso   1.00
H1021  H     0.74310   0.70227   0.94413   0.00000  Uiso   1.00
H1022  H     0.80183   0.99290   0.94702   0.00000  Uiso   1.00
H1023  H     0.91462   0.71166   0.95445   0.00000  Uiso   1.00
H1024  H     0.89588   0.86086   0.60272   0.00000  Uiso   1.00
H1025  H     0.77719   0.80232   0.88674   0.00000  Uiso   1.00
H1026  H     0.69136   0.75178   0.60409   0.00000  Uiso   1.00
H1027  H     0.95737   0.87674   0.91094   0.00000  Uiso   1.00
H1028  H     0.98298   0.88294   0.99880   0.00000  Uiso   1.00
H1029  H     0.99059   0.71752   0.52169   0.00000  Uiso   1.00
H1030  H     0.73234   0.66988   0.74445   0.00000  Uiso   1.00
N1031  N     0.81362   0.81883   0.73739   0.00000  Uiso   1.00
N1032  N     0.85305   0.84784   0.76260   0.00000  Uiso   1.00
O1033  O     0.96386   0.91298   0.75309   0.00000  Uiso   1.00
O1034  O     0.81675   0.72893   0.91232   0.00000  Uiso   1.00
O1035  O     0.70281   0.75369   0.74690   0.00000  Uiso   1.00
O1036  O     0.72488   0.90368   0.74501   0.00000  Uiso   1.00
O1037  O     0.94178   0.76298   0.75498   0.00000  Uiso   1.00
O1038  O     0.96995   0.84063   0.82247   0.00000  Uiso   1.00
O1039  O     0.69672   0.82603   0.67753   0.00000  Uiso   1.00
O1040  O     0.73098   0.83134   0.81439   0.00000  Uiso   1.00
O1041  O     0.93569   0.83533   0.68561   0.00000  Uiso   1.00
O1042  O     0.80006   0.82438   0.61118   0.00000  Uiso   1.00
Zn1043 Zn    0.93700   0.83954   0.75539   0.00000  Uiso   1.00
Zn1044 Zn    0.72967   0.82713   0.74460   0.00000  Uiso   1.00
loop_
_geom_bond_atom_site_label_1
_geom_bond_atom_site_label_2
_geom_bond_distance
_geom_bond_site_symmetry_2
_ccdc_geom_bond_type
C1     O50     1.293   .     A
C1     C24     1.403   .     S
C1     O163    1.281   1_455 S
C2     C4      1.457   .     S
C2     O55     1.301   .     A
C2     O111    1.298   .     S
C3     C9      1.391   .     A
C3     C26     1.453   .     S
C3     C123    1.400   1_455 S
C4     C10     1.384   .     A
C4     C8      1.404   .     A
C5     C14     1.402   .     A
C5     C123    1.392   1_455 S
C5     H158    1.084   1_455 S
C6     H43     1.084   .     S
C6     C8      1.397   .     A
C6     C15     1.401   .     A
C7     H41     1.083   .     S
C7     C61     1.400   .     S
C7     C63     1.392   .     S
C8     H98     1.074   .     S
C9     C11     1.391   .     A
C9     H39     1.078   .     S
C10    C13     1.394   .     A
C10    H38     1.083   .     S
C11    C14     1.420   .     A
C11    C16     1.416   .     A
C12    C25     1.403   .     S
C12    O51     1.293   .     A
C12    O107    1.280   .     S
C13    C17     1.402   .     A
C13    C15     1.409   .     A
C14    C544    1.391   .     S
C15    C545    1.394   1_554 S
C16    C21     1.431   .     A
C16    C539    1.406   .     S
C17    C20     1.422   .     A
C17    C538    1.406   1_554 S
C18    O56     1.421   .     S
C18    H33     1.106   .     S
C18    H32     1.116   .     S
C18    H31     1.108   .     S
C19    H35     1.113   .     S
C19    O48     1.411   .     S
C19    H382    1.109   1_545 S
C19    H384    1.114   1_545 S
C20    O56     1.388   .     S
C20    C22     1.388   .     A
C21    O48     1.382   .     S
C21    C23     1.400   .     A
C22    H27     1.083   .     S
C22    C536    1.391   1_554 S
C23    H37     1.084   .     S
C23    C537    1.394   .     S
C24    C315    1.339   1_455 S
C24    H218    1.088   .     S
C25    C430    1.339   1_545 S
C25    H376    1.088   1_545 S
C26    O54     1.301   .     A
C26    O168    1.297   1_455 S
H28    C199    1.088   .     S
H29    N45     1.026   .     S
H30    N46     1.029   .     S
H34    C193    1.109   .     S
H36    C193    1.114   .     S
H40    C124    1.074   1_455 S
H42    C63     1.084   .     S
H44    C372    1.088   1_545 S
N45    N46     1.285   .     D
N45    Zn58    2.029   .     S
N46    Zn57    2.029   .     S
O47    Zn57    1.953   .     S
O47    C59     1.281   .     S
O49    Zn58    1.953   .     S
O49    C128    1.280   1_455 S
O50    Zn58    1.977   .     S
O51    Zn57    1.977   .     S
O52    Zn57    1.954   .     S
O52    C84     1.297   .     S
O53    Zn58    1.954   .     S
O53    C118    1.298   1_455 S
O54    Zn58    1.924   .     S
O55    Zn57    1.924   .     S
C59    O108    1.293   .     A
C59    C82     1.403   .     S
C60    C62     1.457   .     S
C60    O113    1.301   .     A
C60    O169    1.298   .     S
C61    C67     1.391   .     A
C61    C84     1.453   .     S
C62    C68     1.384   .     A
C62    C66     1.404   .     A
C63    C72     1.402   .     A
C64    H101    1.084   .     S
C64    C66     1.397   .     A
C64    C73     1.401   .     A
C65    H99     1.083   .     S
C65    C119    1.400   .     S
C65    C121    1.392   .     S
C66    H156    1.074   .     S
C67    C69     1.391   .     A
C67    H97     1.078   .     S
C68    C71     1.394   .     A
C68    H96     1.083   .     S
C69    C72     1.420   .     A
C69    C74     1.416   .     A
C70    C83     1.403   .     S
C70    O109    1.293   .     A
C70    O165    1.280   .     S
C71    C75     1.402   .     A
C71    C73     1.409   .     A
C72    C602    1.391   .     S
C73    C603    1.394   1_554 S
C74    C79     1.431   .     A
C74    C597    1.406   .     S
C75    C78     1.422   .     A
C75    C596    1.406   1_554 S
C76    O114    1.421   .     S
C76    H91     1.106   .     S
C76    H90     1.116   .     S
C76    H89     1.108   .     S
C77    H93     1.113   .     S
C77    O106    1.411   .     S
C77    H440    1.109   1_545 S
C77    H442    1.114   1_545 S
C78    O114    1.388   .     S
C78    C80     1.388   .     A
C79    O106    1.382   .     S
C79    C81     1.400   .     A
C80    H85     1.083   .     S
C80    C594    1.391   1_554 S
C81    H95     1.084   .     S
C81    C595    1.394   .     S
C82    C199    1.339   .     S
C82    H276    1.088   .     S
C83    C488    1.339   1_545 S
C83    H434    1.088   1_545 S
C84    O112    1.301   .     A
H86    C257    1.088   .     S
H87    N103    1.026   .     S
H88    N104    1.029   .     S
H92    C251    1.109   .     S
H94    C251    1.114   .     S
H100   C121    1.084   .     S
H102   C430    1.088   1_545 S
N103   N104    1.285   .     D
N103   Zn116   2.029   .     S
N104   Zn115   2.029   .     S
O105   Zn115   1.953   .     S
O105   C117    1.281   .     S
O107   Zn116   1.953   .     S
O108   Zn116   1.977   .     S
O109   Zn115   1.977   .     S
O110   Zn115   1.954   .     S
O110   C142    1.297   .     S
O111   Zn116   1.954   .     S
O112   Zn116   1.924   .     S
O113   Zn115   1.924   .     S
C117   O166    1.293   .     A
C117   C140    1.403   .     S
C118   C120    1.457   .     S
C118   O171    1.301   .     A
C118   O53     1.298   1_655 S
C119   C125    1.391   .     A
C119   C142    1.453   .     S
C120   C126    1.384   .     A
C120   C124    1.404   .     A
C121   C130    1.402   .     A
C122   H159    1.084   .     S
C122   C124    1.397   .     A
C122   C131    1.401   .     A
C123   H157    1.083   .     S
C123   C3      1.400   1_655 S
C123   C5      1.392   1_655 S
C124   H40     1.074   1_655 S
C125   C127    1.391   .     A
C125   H155    1.078   .     S
C126   C129    1.394   .     A
C126   H154    1.083   .     S
C127   C130    1.420   .     A
C127   C132    1.416   .     A
C128   C141    1.403   .     S
C128   O167    1.293   .     A
C128   O49     1.280   1_655 S
C129   C133    1.402   .     A
C129   C131    1.409   .     A
C130   C660    1.391   .     S
C131   C661    1.394   1_554 S
C132   C137    1.431   .     A
C132   C655    1.406   .     S
C133   C136    1.422   .     A
C133   C654    1.406   1_554 S
C134   O172    1.421   .     S
C134   H149    1.106   .     S
C134   H148    1.116   .     S
C134   H147    1.108   .     S
C135   H151    1.113   .     S
C135   O164    1.411   .     S
C135   H498    1.109   1_545 S
C135   H500    1.114   1_545 S
C136   O172    1.388   .     S
C136   C138    1.388   .     A
C137   O164    1.382   .     S
C137   C139    1.400   .     A
C138   H143    1.083   .     S
C138   C652    1.391   1_554 S
C139   H153    1.084   .     S
C139   C653    1.394   .     S
C140   C257    1.339   .     S
C140   H334    1.088   .     S
C141   C372    1.339   1_645 S
C141   H492    1.088   1_545 S
C142   O170    1.301   .     A
H144   C315    1.088   .     S
H145   N161    1.026   .     S
H146   N162    1.029   .     S
H150   C309    1.109   .     S
H152   C309    1.114   .     S
H158   C5      1.084   1_655 S
H160   C488    1.088   1_545 S
N161   N162    1.285   .     D
N161   Zn174   2.029   .     S
N162   Zn173   2.029   .     S
O163   Zn173   1.953   .     S
O163   C1      1.281   1_655 S
O165   Zn174   1.953   .     S
O166   Zn174   1.977   .     S
O167   Zn173   1.977   .     S
O168   Zn173   1.954   .     S
O168   C26     1.297   1_655 S
O169   Zn174   1.954   .     S
O170   Zn174   1.924   .     S
O171   Zn173   1.924   .     S
C175   O224    1.293   .     A
C175   C198    1.403   .     S
C175   O337    1.281   1_455 S
C176   C178    1.457   .     S
C176   O229    1.301   .     A
C176   O285    1.298   .     S
C177   C183    1.391   .     A
C177   C200    1.453   .     S
C177   C297    1.400   1_455 S
C178   C184    1.384   .     A
C178   C182    1.404   .     A
C179   C188    1.402   .     A
C179   C297    1.392   1_455 S
C179   H332    1.084   1_455 S
C180   H217    1.084   .     S
C180   C182    1.397   .     A
C180   C189    1.401   .     A
C181   H215    1.083   .     S
C181   C235    1.400   .     S
C181   C237    1.392   .     S
C182   H272    1.074   .     S
C183   C185    1.391   .     A
C183   H213    1.078   .     S
C184   C187    1.394   .     A
C184   H212    1.083   .     S
C185   C188    1.420   .     A
C185   C190    1.416   .     A
C186   C199    1.403   .     S
C186   O225    1.293   .     A
C186   O281    1.280   .     S
C187   C191    1.402   .     A
C187   C189    1.409   .     A
C188   C718    1.391   .     S
C189   C719    1.394   1_554 S
C190   C195    1.431   .     A
C190   C713    1.406   .     S
C191   C194    1.422   .     A
C191   C712    1.406   1_554 S
C192   O230    1.421   .     S
C192   H207    1.106   .     S
C192   H206    1.116   .     S
C192   H205    1.108   .     S
C193   H209    1.113   .     S
C193   O222    1.411   .     S
C194   O230    1.388   .     S
C194   C196    1.388   .     A
C195   O222    1.382   .     S
C195   C197    1.400   .     A
C196   H201    1.083   .     S
C196   C710    1.391   1_554 S
C197   H211    1.084   .     S
C197   C711    1.394   .     S
C198   C489    1.339   1_455 S
C198   H392    1.088   .     S
C200   O228    1.301   .     A
C200   O342    1.297   1_455 S
H202   C373    1.088   .     S
H203   N219    1.026   .     S
H204   N220    1.029   .     S
H208   C367    1.109   .     S
H210   C367    1.114   .     S
H214   C298    1.074   1_455 S
H216   C237    1.084   .     S
N219   N220    1.285   .     D
N219   Zn232   2.029   .     S
N220   Zn231   2.029   .     S
O221   Zn231   1.953   .     S
O221   C233    1.281   .     S
O223   Zn232   1.953   .     S
O223   C302    1.280   1_455 S
O224   Zn232   1.977   .     S
O225   Zn231   1.977   .     S
O226   Zn231   1.954   .     S
O226   C258    1.297   .     S
O227   Zn232   1.954   .     S
O227   C292    1.298   1_455 S
O228   Zn232   1.924   .     S
O229   Zn231   1.924   .     S
C233   O282    1.293   .     A
C233   C256    1.403   .     S
C234   C236    1.457   .     S
C234   O287    1.301   .     A
C234   O343    1.298   .     S
C235   C241    1.391   .     A
C235   C258    1.453   .     S
C236   C242    1.384   .     A
C236   C240    1.404   .     A
C237   C246    1.402   .     A
C238   H275    1.084   .     S
C238   C240    1.397   .     A
C238   C247    1.401   .     A
C239   H273    1.083   .     S
C239   C293    1.400   .     S
C239   C295    1.392   .     S
C240   H330    1.074   .     S
C241   C243    1.391   .     A
C241   H271    1.078   .     S
C242   C245    1.394   .     A
C242   H270    1.083   .     S
C243   C246    1.420   .     A
C243   C248    1.416   .     A
C244   C257    1.403   .     S
C244   O283    1.293   .     A
C244   O339    1.280   .     S
C245   C249    1.402   .     A
C245   C247    1.409   .     A
C246   C776    1.391   .     S
C247   C777    1.394   1_554 S
C248   C253    1.431   .     A
C248   C771    1.406   .     S
C249   C252    1.422   .     A
C249   C770    1.406   1_554 S
C250   O288    1.421   .     S
C250   H265    1.106   .     S
C250   H264    1.116   .     S
C250   H263    1.108   .     S
C251   H267    1.113   .     S
C251   O280    1.411   .     S
C252   O288    1.388   .     S
C252   C254    1.388   .     A
C253   O280    1.382   .     S
C253   C255    1.400   .     A
C254   H259    1.083   .     S
C254   C768    1.391   1_554 S
C255   H269    1.084   .     S
C255   C769    1.394   .     S
C256   C373    1.339   .     S
C256   H450    1.088   .     S
C258   O286    1.301   .     A
H260   C431    1.088   .     S
H261   N277    1.026   .     S
H262   N278    1.029   .     S
H266   C425    1.109   .     S
H268   C425    1.114   .     S
H274   C295    1.084   .     S
N277   N278    1.285   .     D
N277   Zn290   2.029   .     S
N278   Zn289   2.029   .     S
O279   Zn289   1.953   .     S
O279   C291    1.281   .     S
O281   Zn290   1.953   .     S
O282   Zn290   1.977   .     S
O283   Zn289   1.977   .     S
O284   Zn289   1.954   .     S
O284   C316    1.297   .     S
O285   Zn290   1.954   .     S
O286   Zn290   1.924   .     S
O287   Zn289   1.924   .     S
C291   O340    1.293   .     A
C291   C314    1.403   .     S
C292   C294    1.457   .     S
C292   O345    1.301   .     A
C292   O227    1.298   1_655 S
C293   C299    1.391   .     A
C293   C316    1.453   .     S
C294   C300    1.384   .     A
C294   C298    1.404   .     A
C295   C304    1.402   .     A
C296   H333    1.084   .     S
C296   C298    1.397   .     A
C296   C305    1.401   .     A
C297   H331    1.083   .     S
C297   C177    1.400   1_655 S
C297   C179    1.392   1_655 S
C298   H214    1.074   1_655 S
C299   C301    1.391   .     A
C299   H329    1.078   .     S
C300   C303    1.394   .     A
C300   H328    1.083   .     S
C301   C304    1.420   .     A
C301   C306    1.416   .     A
C302   C315    1.403   .     S
C302   O341    1.293   .     A
C302   O223    1.280   1_655 S
C303   C307    1.402   .     A
C303   C305    1.409   .     A
C304   C834    1.391   .     S
C305   C835    1.394   1_554 S
C306   C311    1.431   .     A
C306   C829    1.406   .     S
C307   C310    1.422   .     A
C307   C828    1.406   1_554 S
C308   O346    1.421   .     S
C308   H323    1.106   .     S
C308   H322    1.116   .     S
C308   H321    1.108   .     S
C309   H325    1.113   .     S
C309   O338    1.411   .     S
C310   O346    1.388   .     S
C310   C312    1.388   .     A
C311   O338    1.382   .     S
C311   C313    1.400   .     A
C312   H317    1.083   .     S
C312   C826    1.391   1_554 S
C313   H327    1.084   .     S
C313   C827    1.394   .     S
C314   C431    1.339   .     S
C314   H508    1.088   .     S
C315   C24     1.339   1_655 S
C316   O344    1.301   .     A
H318   C489    1.088   .     S
H319   N335    1.026   .     S
H320   N336    1.029   .     S
H324   C483    1.109   .     S
H326   C483    1.114   .     S
H332   C179    1.084   1_655 S
N335   N336    1.285   .     D
N335   Zn348   2.029   .     S
N336   Zn347   2.029   .     S
O337   Zn347   1.953   .     S
O337   C175    1.281   1_655 S
O339   Zn348   1.953   .     S
O340   Zn348   1.977   .     S
O341   Zn347   1.977   .     S
O342   Zn347   1.954   .     S
O342   C200    1.297   1_655 S
O343   Zn348   1.954   .     S
O344   Zn348   1.924   .     S
O345   Zn347   1.924   .     S
C349   O398    1.293   .     A
C349   C372    1.403   .     S
C349   O511    1.281   1_455 S
C350   C352    1.457   .     S
C350   O403    1.301   .     A
C350   O459    1.298   .     S
C351   C357    1.391   .     A
C351   C374    1.453   .     S
C351   C471    1.400   1_455 S
C352   C358    1.384   .     A
C352   C356    1.404   .     A
C353   C362    1.402   .     A
C353   C471    1.392   1_455 S
C353   H506    1.084   1_455 S
C354   H391    1.084   .     S
C354   C356    1.397   .     A
C354   C363    1.401   .     A
C355   H389    1.083   .     S
C355   C409    1.400   .     S
C355   C411    1.392   .     S
C356   H446    1.074   .     S
C357   C359    1.391   .     A
C357   H387    1.078   .     S
C358   C361    1.394   .     A
C358   H386    1.083   .     S
C359   C362    1.420   .     A
C359   C364    1.416   .     A
C360   C373    1.403   .     S
C360   O399    1.293   .     A
C360   O455    1.280   .     S
C361   C365    1.402   .     A
C361   C363    1.409   .     A
C362   C892    1.391   .     S
C363   C893    1.394   1_554 S
C364   C369    1.431   .     A
C364   C887    1.406   .     S
C365   C368    1.422   .     A
C365   C886    1.406   1_554 S
C366   O404    1.421   .     S
C366   H381    1.106   .     S
C366   H380    1.116   .     S
C366   H379    1.108   .     S
C367   H383    1.113   .     S
C367   O396    1.411   .     S
C368   O404    1.388   .     S
C368   C370    1.388   .     A
C369   O396    1.382   .     S
C369   C371    1.400   .     A
C370   H375    1.083   .     S
C370   C884    1.391   1_554 S
C371   H385    1.084   .     S
C371   C885    1.394   .     S
C372   C141    1.339   1_465 S
C372   H44     1.088   1_565 S
C374   O402    1.301   .     A
C374   O516    1.297   1_455 S
H376   C25     1.088   1_565 S
H377   N393    1.026   .     S
H378   N394    1.029   .     S
H382   C19     1.109   1_565 S
H384   C19     1.114   1_565 S
H388   C472    1.074   1_455 S
H390   C411    1.084   .     S
N393   N394    1.285   .     D
N393   Zn406   2.029   .     S
N394   Zn405   2.029   .     S
O395   Zn405   1.953   .     S
O395   C407    1.281   .     S
O397   Zn406   1.953   .     S
O397   C476    1.280   1_455 S
O398   Zn406   1.977   .     S
O399   Zn405   1.977   .     S
O400   Zn405   1.954   .     S
O400   C432    1.297   .     S
O401   Zn406   1.954   .     S
O401   C466    1.298   1_455 S
O402   Zn406   1.924   .     S
O403   Zn405   1.924   .     S
C407   O456    1.293   .     A
C407   C430    1.403   .     S
C408   C410    1.457   .     S
C408   O461    1.301   .     A
C408   O517    1.298   .     S
C409   C415    1.391   .     A
C409   C432    1.453   .     S
C410   C416    1.384   .     A
C410   C414    1.404   .     A
C411   C420    1.402   .     A
C412   H449    1.084   .     S
C412   C414    1.397   .     A
C412   C421    1.401   .     A
C413   H447    1.083   .     S
C413   C467    1.400   .     S
C413   C469    1.392   .     S
C414   H504    1.074   .     S
C415   C417    1.391   .     A
C415   H445    1.078   .     S
C416   C419    1.394   .     A
C416   H444    1.083   .     S
C417   C420    1.420   .     A
C417   C422    1.416   .     A
C418   C431    1.403   .     S
C418   O457    1.293   .     A
C418   O513    1.280   .     S
C419   C423    1.402   .     A
C419   C421    1.409   .     A
C420   C950    1.391   .     S
C421   C951    1.394   1_554 S
C422   C427    1.431   .     A
C422   C945    1.406   .     S
C423   C426    1.422   .     A
C423   C944    1.406   1_554 S
C424   O462    1.421   .     S
C424   H439    1.106   .     S
C424   H438    1.116   .     S
C424   H437    1.108   .     S
C425   H441    1.113   .     S
C425   O454    1.411   .     S
C426   O462    1.388   .     S
C426   C428    1.388   .     A
C427   O454    1.382   .     S
C427   C429    1.400   .     A
C428   H433    1.083   .     S
C428   C942    1.391   1_554 S
C429   H443    1.084   .     S
C429   C943    1.394   .     S
C430   C25     1.339   1_565 S
C430   H102    1.088   1_565 S
C432   O460    1.301   .     A
H434   C83     1.088   1_565 S
H435   N451    1.026   .     S
H436   N452    1.029   .     S
H440   C77     1.109   1_565 S
H442   C77     1.114   1_565 S
H448   C469    1.084   .     S
N451   N452    1.285   .     D
N451   Zn464   2.029   .     S
N452   Zn463   2.029   .     S
O453   Zn463   1.953   .     S
O453   C465    1.281   .     S
O455   Zn464   1.953   .     S
O456   Zn464   1.977   .     S
O457   Zn463   1.977   .     S
O458   Zn463   1.954   .     S
O458   C490    1.297   .     S
O459   Zn464   1.954   .     S
O460   Zn464   1.924   .     S
O461   Zn463   1.924   .     S
C465   O514    1.293   .     A
C465   C488    1.403   .     S
C466   C468    1.457   .     S
C466   O519    1.301   .     A
C466   O401    1.298   1_655 S
C467   C473    1.391   .     A
C467   C490    1.453   .     S
C468   C474    1.384   .     A
C468   C472    1.404   .     A
C469   C478    1.402   .     A
C470   H507    1.084   .     S
C470   C472    1.397   .     A
C470   C479    1.401   .     A
C471   H505    1.083   .     S
C471   C351    1.400   1_655 S
C471   C353    1.392   1_655 S
C472   H388    1.074   1_655 S
C473   C475    1.391   .     A
C473   H503    1.078   .     S
C474   C477    1.394   .     A
C474   H502    1.083   .     S
C475   C478    1.420   .     A
C475   C480    1.416   .     A
C476   C489    1.403   .     S
C476   O515    1.293   .     A
C476   O397    1.280   1_655 S
C477   C481    1.402   .     A
C477   C479    1.409   .     A
C478   C1008   1.391   .     S
C479   C1009   1.394   1_554 S
C480   C485    1.431   .     A
C480   C1003   1.406   .     S
C481   C484    1.422   .     A
C481   C1002   1.406   1_554 S
C482   O520    1.421   .     S
C482   H497    1.106   .     S
C482   H496    1.116   .     S
C482   H495    1.108   .     S
C483   H499    1.113   .     S
C483   O512    1.411   .     S
C484   O520    1.388   .     S
C484   C486    1.388   .     A
C485   O512    1.382   .     S
C485   C487    1.400   .     A
C486   H491    1.083   .     S
C486   C1000   1.391   1_554 S
C487   H501    1.084   .     S
C487   C1001   1.394   .     S
C488   C83     1.339   1_565 S
C488   H160    1.088   1_565 S
C489   C198    1.339   1_655 S
C490   O518    1.301   .     A
H492   C141    1.088   1_565 S
H493   N509    1.026   .     S
H494   N510    1.029   .     S
H498   C135    1.109   1_565 S
H500   C135    1.114   1_565 S
H506   C353    1.084   1_655 S
N509   N510    1.285   .     D
N509   Zn522   2.029   .     S
N510   Zn521   2.029   .     S
O511   Zn521   1.953   .     S
O511   C349    1.281   1_655 S
O513   Zn522   1.953   .     S
O514   Zn522   1.977   .     S
O515   Zn521   1.977   .     S
O516   Zn521   1.954   .     S
O516   C374    1.297   1_655 S
O517   Zn522   1.954   .     S
O518   Zn522   1.924   .     S
O519   Zn521   1.924   .     S
C523   O572    1.293   .     A
C523   C546    1.403   .     S
C523   O685    1.281   1_455 S
C524   C526    1.457   .     S
C524   O577    1.301   .     A
C524   O633    1.298   .     S
C525   C531    1.391   .     A
C525   C548    1.453   .     S
C525   C645    1.400   1_455 S
C526   C532    1.384   .     A
C526   C530    1.404   .     A
C527   C536    1.402   .     A
C527   C645    1.392   1_455 S
C527   H680    1.084   1_455 S
C528   H565    1.084   .     S
C528   C530    1.397   .     A
C528   C537    1.401   .     A
C529   H563    1.083   .     S
C529   C583    1.400   .     S
C529   C585    1.392   .     S
C530   H620    1.074   .     S
C531   C533    1.391   .     A
C531   H561    1.078   .     S
C532   C535    1.394   .     A
C532   H560    1.083   .     S
C533   C536    1.420   .     A
C533   C538    1.416   .     A
C534   C547    1.403   .     S
C534   O573    1.293   .     A
C534   O629    1.280   .     S
C535   C539    1.402   .     A
C535   C537    1.409   .     A
C536   C22     1.391   1_556 S
C538   C543    1.431   .     A
C538   C17     1.406   1_556 S
C539   C542    1.422   .     A
C540   O578    1.421   .     S
C540   H555    1.106   .     S
C540   H554    1.116   .     S
C540   H553    1.108   .     S
C541   H557    1.113   .     S
C541   O570    1.411   .     S
C541   H904    1.109   1_545 S
C541   H906    1.114   1_545 S
C542   O578    1.388   .     S
C542   C544    1.388   .     A
C543   O570    1.382   .     S
C543   C545    1.400   .     A
C544   H549    1.083   .     S
C545   H559    1.084   .     S
C545   C15     1.394   1_556 S
C546   C837    1.339   1_455 S
C546   H740    1.088   .     S
C547   C952    1.339   1_545 S
C547   H898    1.088   1_545 S
C548   O576    1.301   .     A
C548   O690    1.297   1_455 S
H550   C721    1.088   .     S
H551   N567    1.026   .     S
H552   N568    1.029   .     S
H556   C715    1.109   .     S
H558   C715    1.114   .     S
H562   C646    1.074   1_455 S
H564   C585    1.084   .     S
H566   C894    1.088   1_545 S
N567   N568    1.285   .     D
N567   Zn580   2.029   .     S
N568   Zn579   2.029   .     S
O569   Zn579   1.953   .     S
O569   C581    1.281   .     S
O571   Zn580   1.953   .     S
O571   C650    1.280   1_455 S
O572   Zn580   1.977   .     S
O573   Zn579   1.977   .     S
O574   Zn579   1.954   .     S
O574   C606    1.297   .     S
O575   Zn580   1.954   .     S
O575   C640    1.298   1_455 S
O576   Zn580   1.924   .     S
O577   Zn579   1.924   .     S
C581   O630    1.293   .     A
C581   C604    1.403   .     S
C582   C584    1.457   .     S
C582   O635    1.301   .     A
C582   O691    1.298   .     S
C583   C589    1.391   .     A
C583   C606    1.453   .     S
C584   C590    1.384   .     A
C584   C588    1.404   .     A
C585   C594    1.402   .     A
C586   H623    1.084   .     S
C586   C588    1.397   .     A
C586   C595    1.401   .     A
C587   H621    1.083   .     S
C587   C641    1.400   .     S
C587   C643    1.392   .     S
C588   H678    1.074   .     S
C589   C591    1.391   .     A
C589   H619    1.078   .     S
C590   C593    1.394   .     A
C590   H618    1.083   .     S
C591   C594    1.420   .     A
C591   C596    1.416   .     A
C592   C605    1.403   .     S
C592   O631    1.293   .     A
C592   O687    1.280   .     S
C593   C597    1.402   .     A
C593   C595    1.409   .     A
C594   C80     1.391   1_556 S
C596   C601    1.431   .     A
C596   C75     1.406   1_556 S
C597   C600    1.422   .     A
C598   O636    1.421   .     S
C598   H613    1.106   .     S
C598   H612    1.116   .     S
C598   H611    1.108   .     S
C599   H615    1.113   .     S
C599   O628    1.411   .     S
C599   H962    1.109   1_545 S
C599   H964    1.114   1_545 S
C600   O636    1.388   .     S
C600   C602    1.388   .     A
C601   O628    1.382   .     S
C601   C603    1.400   .     A
C602   H607    1.083   .     S
C603   H617    1.084   .     S
C603   C73     1.394   1_556 S
C604   C721    1.339   .     S
C604   H798    1.088   .     S
C605   C1010   1.339   1_545 S
C605   H956    1.088   1_545 S
C606   O634    1.301   .     A
H608   C779    1.088   .     S
H609   N625    1.026   .     S
H610   N626    1.029   .     S
H614   C773    1.109   .     S
H616   C773    1.114   .     S
H622   C643    1.084   .     S
H624   C952    1.088   1_545 S
N625   N626    1.285   .     D
N625   Zn638   2.029   .     S
N626   Zn637   2.029   .     S
O627   Zn637   1.953   .     S
O627   C639    1.281   .     S
O629   Zn638   1.953   .     S
O630   Zn638   1.977   .     S
O631   Zn637   1.977   .     S
O632   Zn637   1.954   .     S
O632   C664    1.297   .     S
O633   Zn638   1.954   .     S
O634   Zn638   1.924   .     S
O635   Zn637   1.924   .     S
C639   O688    1.293   .     A
C639   C662    1.403   .     S
C640   C642    1.457   .     S
C640   O693    1.301   .     A
C640   O575    1.298   1_655 S
C641   C647    1.391   .     A
C641   C664    1.453   .     S
C642   C648    1.384   .     A
C642   C646    1.404   .     A
C643   C652    1.402   .     A
C644   H681    1.084   .     S
C644   C646    1.397   .     A
C644   C653    1.401   .     A
C645   H679    1.083   .     S
C645   C525    1.400   1_655 S
C645   C527    1.392   1_655 S
C646   H562    1.074   1_655 S
C647   C649    1.391   .     A
C647   H677    1.078   .     S
C648   C651    1.394   .     A
C648   H676    1.083   .     S
C649   C652    1.420   .     A
C649   C654    1.416   .     A
C650   C663    1.403   .     S
C650   O689    1.293   .     A
C650   O571    1.280   1_655 S
C651   C655    1.402   .     A
C651   C653    1.409   .     A
C652   C138    1.391   1_556 S
C654   C659    1.431   .     A
C654   C133    1.406   1_556 S
C655   C658    1.422   .     A
C656   O694    1.421   .     S
C656   H671    1.106   .     S
C656   H670    1.116   .     S
C656   H669    1.108   .     S
C657   H673    1.113   .     S
C657   O686    1.411   .     S
C657   H1020   1.109   1_545 S
C657   H1022   1.114   1_545 S
C658   O694    1.388   .     S
C658   C660    1.388   .     A
C659   O686    1.382   .     S
C659   C661    1.400   .     A
C660   H665    1.083   .     S
C661   H675    1.084   .     S
C661   C131    1.394   1_556 S
C662   C779    1.339   .     S
C662   H856    1.088   .     S
C663   C894    1.339   1_645 S
C663   H1014   1.088   1_545 S
C664   O692    1.301   .     A
H666   C837    1.088   .     S
H667   N683    1.026   .     S
H668   N684    1.029   .     S
H672   C831    1.109   .     S
H674   C831    1.114   .     S
H680   C527    1.084   1_655 S
H682   C1010   1.088   1_545 S
N683   N684    1.285   .     D
N683   Zn696   2.029   .     S
N684   Zn695   2.029   .     S
O685   Zn695   1.953   .     S
O685   C523    1.281   1_655 S
O687   Zn696   1.953   .     S
O688   Zn696   1.977   .     S
O689   Zn695   1.977   .     S
O690   Zn695   1.954   .     S
O690   C548    1.297   1_655 S
O691   Zn696   1.954   .     S
O692   Zn696   1.924   .     S
O693   Zn695   1.924   .     S
C697   O746    1.293   .     A
C697   C720    1.403   .     S
C697   O859    1.281   1_455 S
C698   C700    1.457   .     S
C698   O751    1.301   .     A
C698   O807    1.298   .     S
C699   C705    1.391   .     A
C699   C722    1.453   .     S
C699   C819    1.400   1_455 S
C700   C706    1.384   .     A
C700   C704    1.404   .     A
C701   C710    1.402   .     A
C701   C819    1.392   1_455 S
C701   H854    1.084   1_455 S
C702   H739    1.084   .     S
C702   C704    1.397   .     A
C702   C711    1.401   .     A
C703   H737    1.083   .     S
C703   C757    1.400   .     S
C703   C759    1.392   .     S
C704   H794    1.074   .     S
C705   C707    1.391   .     A
C705   H735    1.078   .     S
C706   C709    1.394   .     A
C706   H734    1.083   .     S
C707   C710    1.420   .     A
C707   C712    1.416   .     A
C708   C721    1.403   .     S
C708   O747    1.293   .     A
C708   O803    1.280   .     S
C709   C713    1.402   .     A
C709   C711    1.409   .     A
C710   C196    1.391   1_556 S
C712   C717    1.431   .     A
C712   C191    1.406   1_556 S
C713   C716    1.422   .     A
C714   O752    1.421   .     S
C714   H729    1.106   .     S
C714   H728    1.116   .     S
C714   H727    1.108   .     S
C715   H731    1.113   .     S
C715   O744    1.411   .     S
C716   O752    1.388   .     S
C716   C718    1.388   .     A
C717   O744    1.382   .     S
C717   C719    1.400   .     A
C718   H723    1.083   .     S
C719   H733    1.084   .     S
C719   C189    1.394   1_556 S
C720   C1011   1.339   1_455 S
C720   H914    1.088   .     S
C722   O750    1.301   .     A
C722   O864    1.297   1_455 S
H724   C895    1.088   .     S
H725   N741    1.026   .     S
H726   N742    1.029   .     S
H730   C889    1.109   .     S
H732   C889    1.114   .     S
H736   C820    1.074   1_455 S
H738   C759    1.084   .     S
N741   N742    1.285   .     D
N741   Zn754   2.029   .     S
N742   Zn753   2.029   .     S
O743   Zn753   1.953   .     S
O743   C755    1.281   .     S
O745   Zn754   1.953   .     S
O745   C824    1.280   1_455 S
O746   Zn754   1.977   .     S
O747   Zn753   1.977   .     S
O748   Zn753   1.954   .     S
O748   C780    1.297   .     S
O749   Zn754   1.954   .     S
O749   C814    1.298   1_455 S
O750   Zn754   1.924   .     S
O751   Zn753   1.924   .     S
C755   O804    1.293   .     A
C755   C778    1.403   .     S
C756   C758    1.457   .     S
C756   O809    1.301   .     A
C756   O865    1.298   .     S
C757   C763    1.391   .     A
C757   C780    1.453   .     S
C758   C764    1.384   .     A
C758   C762    1.404   .     A
C759   C768    1.402   .     A
C760   H797    1.084   .     S
C760   C762    1.397   .     A
C760   C769    1.401   .     A
C761   H795    1.083   .     S
C761   C815    1.400   .     S
C761   C817    1.392   .     S
C762   H852    1.074   .     S
C763   C765    1.391   .     A
C763   H793    1.078   .     S
C764   C767    1.394   .     A
C764   H792    1.083   .     S
C765   C768    1.420   .     A
C765   C770    1.416   .     A
C766   C779    1.403   .     S
C766   O805    1.293   .     A
C766   O861    1.280   .     S
C767   C771    1.402   .     A
C767   C769    1.409   .     A
C768   C254    1.391   1_556 S
C770   C775    1.431   .     A
C770   C249    1.406   1_556 S
C771   C774    1.422   .     A
C772   O810    1.421   .     S
C772   H787    1.106   .     S
C772   H786    1.116   .     S
C772   H785    1.108   .     S
C773   H789    1.113   .     S
C773   O802    1.411   .     S
C774   O810    1.388   .     S
C774   C776    1.388   .     A
C775   O802    1.382   .     S
C775   C777    1.400   .     A
C776   H781    1.083   .     S
C777   H791    1.084   .     S
C777   C247    1.394   1_556 S
C778   C895    1.339   .     S
C778   H972    1.088   .     S
C780   O808    1.301   .     A
H782   C953    1.088   .     S
H783   N799    1.026   .     S
H784   N800    1.029   .     S
H788   C947    1.109   .     S
H790   C947    1.114   .     S
H796   C817    1.084   .     S
N799   N800    1.285   .     D
N799   Zn812   2.029   .     S
N800   Zn811   2.029   .     S
O801   Zn811   1.953   .     S
O801   C813    1.281   .     S
O803   Zn812   1.953   .     S
O804   Zn812   1.977   .     S
O805   Zn811   1.977   .     S
O806   Zn811   1.954   .     S
O806   C838    1.297   .     S
O807   Zn812   1.954   .     S
O808   Zn812   1.924   .     S
O809   Zn811   1.924   .     S
C813   O862    1.293   .     A
C813   C836    1.403   .     S
C814   C816    1.457   .     S
C814   O867    1.301   .     A
C814   O749    1.298   1_655 S
C815   C821    1.391   .     A
C815   C838    1.453   .     S
C816   C822    1.384   .     A
C816   C820    1.404   .     A
C817   C826    1.402   .     A
C818   H855    1.084   .     S
C818   C820    1.397   .     A
C818   C827    1.401   .     A
C819   H853    1.083   .     S
C819   C699    1.400   1_655 S
C819   C701    1.392   1_655 S
C820   H736    1.074   1_655 S
C821   C823    1.391   .     A
C821   H851    1.078   .     S
C822   C825    1.394   .     A
C822   H850    1.083   .     S
C823   C826    1.420   .     A
C823   C828    1.416   .     A
C824   C837    1.403   .     S
C824   O863    1.293   .     A
C824   O745    1.280   1_655 S
C825   C829    1.402   .     A
C825   C827    1.409   .     A
C826   C312    1.391   1_556 S
C828   C833    1.431   .     A
C828   C307    1.406   1_556 S
C829   C832    1.422   .     A
C830   O868    1.421   .     S
C830   H845    1.106   .     S
C830   H844    1.116   .     S
C830   H843    1.108   .     S
C831   H847    1.113   .     S
C831   O860    1.411   .     S
C832   O868    1.388   .     S
C832   C834    1.388   .     A
C833   O860    1.382   .     S
C833   C835    1.400   .     A
C834   H839    1.083   .     S
C835   H849    1.084   .     S
C835   C305    1.394   1_556 S
C836   C953    1.339   .     S
C836   H1030   1.088   .     S
C837   C546    1.339   1_655 S
C838   O866    1.301   .     A
H840   C1011   1.088   .     S
H841   N857    1.026   .     S
H842   N858    1.029   .     S
H846   C1005   1.109   .     S
H848   C1005   1.114   .     S
H854   C701    1.084   1_655 S
N857   N858    1.285   .     D
N857   Zn870   2.029   .     S
N858   Zn869   2.029   .     S
O859   Zn869   1.953   .     S
O859   C697    1.281   1_655 S
O861   Zn870   1.953   .     S
O862   Zn870   1.977   .     S
O863   Zn869   1.977   .     S
O864   Zn869   1.954   .     S
O864   C722    1.297   1_655 S
O865   Zn870   1.954   .     S
O866   Zn870   1.924   .     S
O867   Zn869   1.924   .     S
C871   O920    1.293   .     A
C871   C894    1.403   .     S
C871   O1033   1.281   1_455 S
C872   C874    1.457   .     S
C872   O925    1.301   .     A
C872   O981    1.298   .     S
C873   C879    1.391   .     A
C873   C896    1.453   .     S
C873   C993    1.400   1_455 S
C874   C880    1.384   .     A
C874   C878    1.404   .     A
C875   C884    1.402   .     A
C875   C993    1.392   1_455 S
C875   H1028   1.084   1_455 S
C876   H913    1.084   .     S
C876   C878    1.397   .     A
C876   C885    1.401   .     A
C877   H911    1.083   .     S
C877   C931    1.400   .     S
C877   C933    1.392   .     S
C878   H968    1.074   .     S
C879   C881    1.391   .     A
C879   H909    1.078   .     S
C880   C883    1.394   .     A
C880   H908    1.083   .     S
C881   C884    1.420   .     A
C881   C886    1.416   .     A
C882   C895    1.403   .     S
C882   O921    1.293   .     A
C882   O977    1.280   .     S
C883   C887    1.402   .     A
C883   C885    1.409   .     A
C884   C370    1.391   1_556 S
C886   C891    1.431   .     A
C886   C365    1.406   1_556 S
C887   C890    1.422   .     A
C888   O926    1.421   .     S
C888   H903    1.106   .     S
C888   H902    1.116   .     S
C888   H901    1.108   .     S
C889   H905    1.113   .     S
C889   O918    1.411   .     S
C890   O926    1.388   .     S
C890   C892    1.388   .     A
C891   O918    1.382   .     S
C891   C893    1.400   .     A
C892   H897    1.083   .     S
C893   H907    1.084   .     S
C893   C363    1.394   1_556 S
C894   C663    1.339   1_465 S
C894   H566    1.088   1_565 S
C896   O924    1.301   .     A
C896   O1038   1.297   1_455 S
H898   C547    1.088   1_565 S
H899   N915    1.026   .     S
H900   N916    1.029   .     S
H904   C541    1.109   1_565 S
H906   C541    1.114   1_565 S
H910   C994    1.074   1_455 S
H912   C933    1.084   .     S
N915   N916    1.285   .     D
N915   Zn928   2.029   .     S
N916   Zn927   2.029   .     S
O917   Zn927   1.953   .     S
O917   C929    1.281   .     S
O919   Zn928   1.953   .     S
O919   C998    1.280   1_455 S
O920   Zn928   1.977   .     S
O921   Zn927   1.977   .     S
O922   Zn927   1.954   .     S
O922   C954    1.297   .     S
O923   Zn928   1.954   .     S
O923   C988    1.298   1_455 S
O924   Zn928   1.924   .     S
O925   Zn927   1.924   .     S
C929   O978    1.293   .     A
C929   C952    1.403   .     S
C930   C932    1.457   .     S
C930   O983    1.301   .     A
C930   O1039   1.298   .     S
C931   C937    1.391   .     A
C931   C954    1.453   .     S
C932   C938    1.384   .     A
C932   C936    1.404   .     A
C933   C942    1.402   .     A
C934   H971    1.084   .     S
C934   C936    1.397   .     A
C934   C943    1.401   .     A
C935   H969    1.083   .     S
C935   C989    1.400   .     S
C935   C991    1.392   .     S
C936   H1026   1.074   .     S
C937   C939    1.391   .     A
C937   H967    1.078   .     S
C938   C941    1.394   .     A
C938   H966    1.083   .     S
C939   C942    1.420   .     A
C939   C944    1.416   .     A
C940   C953    1.403   .     S
C940   O979    1.293   .     A
C940   O1035   1.280   .     S
C941   C945    1.402   .     A
C941   C943    1.409   .     A
C942   C428    1.391   1_556 S
C944   C949    1.431   .     A
C944   C423    1.406   1_556 S
C945   C948    1.422   .     A
C946   O984    1.421   .     S
C946   H961    1.106   .     S
C946   H960    1.116   .     S
C946   H959    1.108   .     S
C947   H963    1.113   .     S
C947   O976    1.411   .     S
C948   O984    1.388   .     S
C948   C950    1.388   .     A
C949   O976    1.382   .     S
C949   C951    1.400   .     A
C950   H955    1.083   .     S
C951   H965    1.084   .     S
C951   C421    1.394   1_556 S
C952   C547    1.339   1_565 S
C952   H624    1.088   1_565 S
C954   O982    1.301   .     A
H956   C605    1.088   1_565 S
H957   N973    1.026   .     S
H958   N974    1.029   .     S
H962   C599    1.109   1_565 S
H964   C599    1.114   1_565 S
H970   C991    1.084   .     S
N973   N974    1.285   .     D
N973   Zn986   2.029   .     S
N974   Zn985   2.029   .     S
O975   Zn985   1.953   .     S
O975   C987    1.281   .     S
O977   Zn986   1.953   .     S
O978   Zn986   1.977   .     S
O979   Zn985   1.977   .     S
O980   Zn985   1.954   .     S
O980   C1012   1.297   .     S
O981   Zn986   1.954   .     S
O982   Zn986   1.924   .     S
O983   Zn985   1.924   .     S
C987   O1036   1.293   .     A
C987   C1010   1.403   .     S
C988   C990    1.457   .     S
C988   O1041   1.301   .     A
C988   O923    1.298   1_655 S
C989   C995    1.391   .     A
C989   C1012   1.453   .     S
C990   C996    1.384   .     A
C990   C994    1.404   .     A
C991   C1000   1.402   .     A
C992   H1029   1.084   .     S
C992   C994    1.397   .     A
C992   C1001   1.401   .     A
C993   H1027   1.083   .     S
C993   C873    1.400   1_655 S
C993   C875    1.392   1_655 S
C994   H910    1.074   1_655 S
C995   C997    1.391   .     A
C995   H1025   1.078   .     S
C996   C999    1.394   .     A
C996   H1024   1.083   .     S
C997   C1000   1.420   .     A
C997   C1002   1.416   .     A
C998   C1011   1.403   .     S
C998   O1037   1.293   .     A
C998   O919    1.280   1_655 S
C999   C1003   1.402   .     A
C999   C1001   1.409   .     A
C1000  C486    1.391   1_556 S
C1002  C1007   1.431   .     A
C1002  C481    1.406   1_556 S
C1003  C1006   1.422   .     A
C1004  O1042   1.421   .     S
C1004  H1019   1.106   .     S
C1004  H1018   1.116   .     S
C1004  H1017   1.108   .     S
C1005  H1021   1.113   .     S
C1005  O1034   1.411   .     S
C1006  O1042   1.388   .     S
C1006  C1008   1.388   .     A
C1007  O1034   1.382   .     S
C1007  C1009   1.400   .     A
C1008  H1013   1.083   .     S
C1009  H1023   1.084   .     S
C1009  C479    1.394   1_556 S
C1010  C605    1.339   1_565 S
C1010  H682    1.088   1_565 S
C1011  C720    1.339   1_655 S
C1012  O1040   1.301   .     A
H1014  C663    1.088   1_565 S
H1015  N1031   1.026   .     S
H1016  N1032   1.029   .     S
H1020  C657    1.109   1_565 S
H1022  C657    1.114   1_565 S
H1028  C875    1.084   1_655 S
N1031  N1032   1.285   .     D
N1031  Zn1044  2.029   .     S
N1032  Zn1043  2.029   .     S
O1033  Zn1043  1.953   .     S
O1033  C871    1.281   1_655 S
O1035  Zn1044  1.953   .     S
O1036  Zn1044  1.977   .     S
O1037  Zn1043  1.977   .     S
O1038  Zn1043  1.954   .     S
O1038  C896    1.297   1_655 S
O1039  Zn1044  1.954   .     S
O1040  Zn1044  1.924   .     S
O1041  Zn1043  1.924   .     S
