data_str_m2_o10_o16_pcu_sym.38
_audit_creation_date              2020-01-03
_audit_creation_method            'Materials Studio'
_symmetry_space_group_name_H-M    'P1'
_symmetry_Int_Tables_number       1
_symmetry_cell_setting            triclinic
loop_
_symmetry_equiv_pos_as_xyz
  x,y,z
_cell_length_a                    22.4695
_cell_length_b                    26.0950
_cell_length_c                    26.7869
_cell_angle_alpha                 94.9000
_cell_angle_beta                  77.4813
_cell_angle_gamma                 103.4158
loop_
_atom_site_label
_atom_site_type_symbol
_atom_site_fract_x
_atom_site_fract_y
_atom_site_fract_z
_atom_site_U_iso_or_equiv
_atom_site_adp_type
_atom_site_occupancy
C1     C     0.18183   0.26671   0.25152   0.00000  Uiso   1.00
C2     C     0.11291   0.16532   0.40332   0.00000  Uiso   1.00
C3     C     0.19025   0.32279   0.25217   0.00000  Uiso   1.00
C4     C     0.13339   0.16605   0.34717   0.00000  Uiso   1.00
C5     C     0.14315   0.01055   0.24769   0.00000  Uiso   1.00
C6     C     0.15152   0.06663   0.24844   0.00000  Uiso   1.00
C7     C     0.20035   0.17038   0.15308   0.00000  Uiso   1.00
C8     C     0.29234   0.22582   0.02760   0.00000  Uiso   1.00
C9     C     0.22038   0.17905   0.09815   0.00000  Uiso   1.00
C10    C     0.05162   0.13920   0.42398   0.00000  Uiso   1.00
C11    C     0.03358   0.12937   0.47578   0.00000  Uiso   1.00
C12    C     0.13939   0.16955   0.48794   0.00000  Uiso   1.00
C13    C     0.07689   0.14327   0.00737   0.00000  Uiso   1.00
C14    C     0.00525   0.13107   0.18670   0.00000  Uiso   1.00
C15    C     0.15557   0.18484   0.43630   0.00000  Uiso   1.00
C16    C     0.18620   0.18174   0.01812   0.00000  Uiso   1.00
C17    C     0.24597   0.21319   0.49808   0.00000  Uiso   1.00
C18    C     0.25832   0.23287   0.44935   0.00000  Uiso   1.00
C19    C     0.21359   0.21964   0.41922   0.00000  Uiso   1.00
C20    C     0.17558   0.16347   0.06768   0.00000  Uiso   1.00
C21    C     0.27947   0.20911   0.07760   0.00000  Uiso   1.00
Cu22   Cu    0.10710   0.16105   0.24436   0.00000  Uiso   1.00
Cu23   Cu    0.22623   0.17228   0.25565   0.00000  Uiso   1.00
H24    H     0.31459   0.22165   0.10077   0.00000  Uiso   1.00
H25    H     0.22475   0.23826   0.38284   0.00000  Uiso   1.00
H26    H     0.23554   0.01349   0.25636   0.00000  Uiso   1.00
H27    H     0.03784   0.10499   0.17081   0.00000  Uiso   1.00
H28    H     0.29210   0.10505   0.18932   0.00000  Uiso   1.00
H29    H     0.01467   0.16315   0.15951   0.00000  Uiso   1.00
H30    H     0.09788   0.31985   0.24348   0.00000  Uiso   1.00
H31    H     0.33243   0.19894   0.29556   0.00000  Uiso   1.00
H32    H     0.30283   0.25873   0.43439   0.00000  Uiso   1.00
H33    H     0.00468   0.24982   0.01245   0.00000  Uiso   1.00
H34    H     0.13212   0.13769   0.08414   0.00000  Uiso   1.00
H35    H     0.01790   0.12491   0.39979   0.00000  Uiso   1.00
H36    H     0.05940   0.13405   0.04705   0.00000  Uiso   1.00
H37    H     0.31933   0.10948   0.49138   0.00000  Uiso   1.00
N38    N     0.31574   0.18074   0.26416   0.00000  Uiso   1.00
N39    N     0.01759   0.15259   0.23584   0.00000  Uiso   1.00
O40    O     0.12797   0.23807   0.24633   0.00000  Uiso   1.00
O41    O     0.22858   0.24755   0.25587   0.00000  Uiso   1.00
O42    O     0.09181   0.15960   0.31840   0.00000  Uiso   1.00
O43    O     0.19242   0.16908   0.32793   0.00000  Uiso   1.00
O44    O     0.10476   0.08578   0.24414   0.00000  Uiso   1.00
O45    O     0.20536   0.09526   0.25367   0.00000  Uiso   1.00
O46    O     0.14092   0.16425   0.17207   0.00000  Uiso   1.00
O47    O     0.24152   0.17373   0.18161   0.00000  Uiso   1.00
C48    C     0.51516   0.26671   0.25152   0.00000  Uiso   1.00
C49    C     0.44625   0.16532   0.40332   0.00000  Uiso   1.00
C50    C     0.52358   0.32279   0.25217   0.00000  Uiso   1.00
C51    C     0.46672   0.16605   0.34717   0.00000  Uiso   1.00
C52    C     0.47649   0.01055   0.24769   0.00000  Uiso   1.00
C53    C     0.48486   0.06663   0.24844   0.00000  Uiso   1.00
C54    C     0.53368   0.17038   0.15308   0.00000  Uiso   1.00
C55    C     0.62567   0.22582   0.02760   0.00000  Uiso   1.00
C56    C     0.55371   0.17905   0.09815   0.00000  Uiso   1.00
C57    C     0.38496   0.13920   0.42398   0.00000  Uiso   1.00
C58    C     0.36692   0.12937   0.47578   0.00000  Uiso   1.00
C59    C     0.47273   0.16955   0.48794   0.00000  Uiso   1.00
C60    C     0.41022   0.14327   0.00737   0.00000  Uiso   1.00
C61    C     0.33859   0.13107   0.18670   0.00000  Uiso   1.00
C62    C     0.48890   0.18484   0.43630   0.00000  Uiso   1.00
C63    C     0.51954   0.18174   0.01812   0.00000  Uiso   1.00
C64    C     0.57931   0.21319   0.49808   0.00000  Uiso   1.00
C65    C     0.59166   0.23287   0.44935   0.00000  Uiso   1.00
C66    C     0.54692   0.21964   0.41922   0.00000  Uiso   1.00
C67    C     0.50891   0.16347   0.06768   0.00000  Uiso   1.00
C68    C     0.61280   0.20911   0.07760   0.00000  Uiso   1.00
Cu69   Cu    0.44043   0.16105   0.24436   0.00000  Uiso   1.00
Cu70   Cu    0.55957   0.17228   0.25565   0.00000  Uiso   1.00
H71    H     0.64792   0.22165   0.10077   0.00000  Uiso   1.00
H72    H     0.55808   0.23826   0.38284   0.00000  Uiso   1.00
H73    H     0.56887   0.01349   0.25636   0.00000  Uiso   1.00
H74    H     0.37117   0.10499   0.17081   0.00000  Uiso   1.00
H75    H     0.62544   0.10505   0.18932   0.00000  Uiso   1.00
H76    H     0.34800   0.16315   0.15951   0.00000  Uiso   1.00
H77    H     0.43121   0.31985   0.24348   0.00000  Uiso   1.00
H78    H     0.66576   0.19894   0.29556   0.00000  Uiso   1.00
H79    H     0.63617   0.25873   0.43439   0.00000  Uiso   1.00
H80    H     0.33801   0.24982   0.01245   0.00000  Uiso   1.00
H81    H     0.46546   0.13769   0.08414   0.00000  Uiso   1.00
H82    H     0.35124   0.12491   0.39979   0.00000  Uiso   1.00
H83    H     0.39273   0.13405   0.04705   0.00000  Uiso   1.00
H84    H     0.65267   0.10948   0.49138   0.00000  Uiso   1.00
N85    N     0.64908   0.18074   0.26416   0.00000  Uiso   1.00
N86    N     0.35092   0.15259   0.23584   0.00000  Uiso   1.00
O87    O     0.46131   0.23807   0.24633   0.00000  Uiso   1.00
O88    O     0.56191   0.24755   0.25587   0.00000  Uiso   1.00
O89    O     0.42515   0.15960   0.31840   0.00000  Uiso   1.00
O90    O     0.52575   0.16908   0.32793   0.00000  Uiso   1.00
O91    O     0.43809   0.08578   0.24414   0.00000  Uiso   1.00
O92    O     0.53869   0.09526   0.25367   0.00000  Uiso   1.00
O93    O     0.47425   0.16425   0.17207   0.00000  Uiso   1.00
O94    O     0.57485   0.17373   0.18161   0.00000  Uiso   1.00
C95    C     0.84850   0.26671   0.25152   0.00000  Uiso   1.00
C96    C     0.77958   0.16532   0.40332   0.00000  Uiso   1.00
C97    C     0.85692   0.32279   0.25217   0.00000  Uiso   1.00
C98    C     0.80006   0.16605   0.34717   0.00000  Uiso   1.00
C99    C     0.80982   0.01055   0.24769   0.00000  Uiso   1.00
C100   C     0.81819   0.06663   0.24844   0.00000  Uiso   1.00
C101   C     0.86702   0.17038   0.15308   0.00000  Uiso   1.00
C102   C     0.95900   0.22582   0.02760   0.00000  Uiso   1.00
C103   C     0.88704   0.17905   0.09815   0.00000  Uiso   1.00
C104   C     0.71829   0.13920   0.42398   0.00000  Uiso   1.00
C105   C     0.70025   0.12937   0.47578   0.00000  Uiso   1.00
C106   C     0.80606   0.16955   0.48794   0.00000  Uiso   1.00
C107   C     0.74355   0.14327   0.00737   0.00000  Uiso   1.00
C108   C     0.67192   0.13107   0.18670   0.00000  Uiso   1.00
C109   C     0.82224   0.18484   0.43630   0.00000  Uiso   1.00
C110   C     0.85287   0.18174   0.01812   0.00000  Uiso   1.00
C111   C     0.91264   0.21319   0.49808   0.00000  Uiso   1.00
C112   C     0.92499   0.23287   0.44935   0.00000  Uiso   1.00
C113   C     0.88025   0.21964   0.41922   0.00000  Uiso   1.00
C114   C     0.84224   0.16347   0.06768   0.00000  Uiso   1.00
C115   C     0.94614   0.20911   0.07760   0.00000  Uiso   1.00
Cu116  Cu    0.77377   0.16105   0.24436   0.00000  Uiso   1.00
Cu117  Cu    0.89290   0.17228   0.25565   0.00000  Uiso   1.00
H118   H     0.98125   0.22165   0.10077   0.00000  Uiso   1.00
H119   H     0.89141   0.23826   0.38284   0.00000  Uiso   1.00
H120   H     0.90220   0.01349   0.25636   0.00000  Uiso   1.00
H121   H     0.70451   0.10499   0.17081   0.00000  Uiso   1.00
H122   H     0.95877   0.10505   0.18932   0.00000  Uiso   1.00
H123   H     0.68134   0.16315   0.15951   0.00000  Uiso   1.00
H124   H     0.76454   0.31985   0.24348   0.00000  Uiso   1.00
H125   H     0.99909   0.19894   0.29556   0.00000  Uiso   1.00
H126   H     0.96950   0.25873   0.43439   0.00000  Uiso   1.00
H127   H     0.67135   0.24982   0.01245   0.00000  Uiso   1.00
H128   H     0.79879   0.13769   0.08414   0.00000  Uiso   1.00
H129   H     0.68457   0.12491   0.39979   0.00000  Uiso   1.00
H130   H     0.72607   0.13405   0.04705   0.00000  Uiso   1.00
H131   H     0.98600   0.10948   0.49138   0.00000  Uiso   1.00
N132   N     0.98241   0.18074   0.26416   0.00000  Uiso   1.00
N133   N     0.68426   0.15259   0.23584   0.00000  Uiso   1.00
O134   O     0.79464   0.23807   0.24633   0.00000  Uiso   1.00
O135   O     0.89524   0.24755   0.25587   0.00000  Uiso   1.00
O136   O     0.75848   0.15960   0.31840   0.00000  Uiso   1.00
O137   O     0.85908   0.16908   0.32793   0.00000  Uiso   1.00
O138   O     0.77142   0.08578   0.24414   0.00000  Uiso   1.00
O139   O     0.87203   0.09526   0.25367   0.00000  Uiso   1.00
O140   O     0.80758   0.16425   0.17207   0.00000  Uiso   1.00
O141   O     0.90819   0.17373   0.18161   0.00000  Uiso   1.00
C142   C     0.18183   0.60004   0.25152   0.00000  Uiso   1.00
C143   C     0.11291   0.49865   0.40332   0.00000  Uiso   1.00
C144   C     0.19025   0.65612   0.25217   0.00000  Uiso   1.00
C145   C     0.13339   0.49939   0.34717   0.00000  Uiso   1.00
C146   C     0.14315   0.34388   0.24769   0.00000  Uiso   1.00
C147   C     0.15152   0.39997   0.24844   0.00000  Uiso   1.00
C148   C     0.20035   0.50371   0.15308   0.00000  Uiso   1.00
C149   C     0.29234   0.55915   0.02760   0.00000  Uiso   1.00
C150   C     0.22038   0.51238   0.09815   0.00000  Uiso   1.00
C151   C     0.05162   0.47253   0.42398   0.00000  Uiso   1.00
C152   C     0.03358   0.46271   0.47578   0.00000  Uiso   1.00
C153   C     0.13939   0.50288   0.48794   0.00000  Uiso   1.00
C154   C     0.07689   0.47661   0.00737   0.00000  Uiso   1.00
C155   C     0.00525   0.46440   0.18670   0.00000  Uiso   1.00
C156   C     0.15557   0.51817   0.43630   0.00000  Uiso   1.00
C157   C     0.18620   0.51507   0.01812   0.00000  Uiso   1.00
C158   C     0.24597   0.54652   0.49808   0.00000  Uiso   1.00
C159   C     0.25832   0.56620   0.44935   0.00000  Uiso   1.00
C160   C     0.21359   0.55297   0.41922   0.00000  Uiso   1.00
C161   C     0.17558   0.49680   0.06768   0.00000  Uiso   1.00
C162   C     0.27947   0.54244   0.07760   0.00000  Uiso   1.00
Cu163  Cu    0.10710   0.49439   0.24436   0.00000  Uiso   1.00
Cu164  Cu    0.22623   0.50561   0.25565   0.00000  Uiso   1.00
H165   H     0.31459   0.55499   0.10077   0.00000  Uiso   1.00
H166   H     0.22475   0.57159   0.38284   0.00000  Uiso   1.00
H167   H     0.23554   0.34683   0.25636   0.00000  Uiso   1.00
H168   H     0.03784   0.43832   0.17081   0.00000  Uiso   1.00
H169   H     0.29210   0.43839   0.18932   0.00000  Uiso   1.00
H170   H     0.01467   0.49648   0.15951   0.00000  Uiso   1.00
H171   H     0.09788   0.65318   0.24348   0.00000  Uiso   1.00
H172   H     0.33243   0.53227   0.29556   0.00000  Uiso   1.00
H173   H     0.30283   0.59206   0.43439   0.00000  Uiso   1.00
H174   H     0.00468   0.58315   0.01245   0.00000  Uiso   1.00
H175   H     0.13212   0.47102   0.08414   0.00000  Uiso   1.00
H176   H     0.01790   0.45824   0.39979   0.00000  Uiso   1.00
H177   H     0.05940   0.46738   0.04705   0.00000  Uiso   1.00
H178   H     0.31933   0.44282   0.49138   0.00000  Uiso   1.00
N179   N     0.31574   0.51407   0.26416   0.00000  Uiso   1.00
N180   N     0.01759   0.48593   0.23584   0.00000  Uiso   1.00
O181   O     0.12797   0.57141   0.24633   0.00000  Uiso   1.00
O182   O     0.22858   0.58089   0.25587   0.00000  Uiso   1.00
O183   O     0.09181   0.49293   0.31840   0.00000  Uiso   1.00
O184   O     0.19242   0.50241   0.32793   0.00000  Uiso   1.00
O185   O     0.10476   0.41911   0.24414   0.00000  Uiso   1.00
O186   O     0.20536   0.42859   0.25367   0.00000  Uiso   1.00
O187   O     0.14092   0.49759   0.17207   0.00000  Uiso   1.00
O188   O     0.24152   0.50707   0.18161   0.00000  Uiso   1.00
C189   C     0.51516   0.60004   0.25152   0.00000  Uiso   1.00
C190   C     0.44625   0.49865   0.40332   0.00000  Uiso   1.00
C191   C     0.52358   0.65612   0.25217   0.00000  Uiso   1.00
C192   C     0.46672   0.49939   0.34717   0.00000  Uiso   1.00
C193   C     0.47649   0.34388   0.24769   0.00000  Uiso   1.00
C194   C     0.48486   0.39997   0.24844   0.00000  Uiso   1.00
C195   C     0.53368   0.50371   0.15308   0.00000  Uiso   1.00
C196   C     0.62567   0.55915   0.02760   0.00000  Uiso   1.00
C197   C     0.55371   0.51238   0.09815   0.00000  Uiso   1.00
C198   C     0.38496   0.47253   0.42398   0.00000  Uiso   1.00
C199   C     0.36692   0.46271   0.47578   0.00000  Uiso   1.00
C200   C     0.47273   0.50288   0.48794   0.00000  Uiso   1.00
C201   C     0.41022   0.47661   0.00737   0.00000  Uiso   1.00
C202   C     0.33859   0.46440   0.18670   0.00000  Uiso   1.00
C203   C     0.48890   0.51817   0.43630   0.00000  Uiso   1.00
C204   C     0.51954   0.51507   0.01812   0.00000  Uiso   1.00
C205   C     0.57931   0.54652   0.49808   0.00000  Uiso   1.00
C206   C     0.59166   0.56620   0.44935   0.00000  Uiso   1.00
C207   C     0.54692   0.55297   0.41922   0.00000  Uiso   1.00
C208   C     0.50891   0.49680   0.06768   0.00000  Uiso   1.00
C209   C     0.61280   0.54244   0.07760   0.00000  Uiso   1.00
Cu210  Cu    0.44043   0.49439   0.24436   0.00000  Uiso   1.00
Cu211  Cu    0.55957   0.50561   0.25565   0.00000  Uiso   1.00
H212   H     0.64792   0.55499   0.10077   0.00000  Uiso   1.00
H213   H     0.55808   0.57159   0.38284   0.00000  Uiso   1.00
H214   H     0.56887   0.34683   0.25636   0.00000  Uiso   1.00
H215   H     0.37117   0.43832   0.17081   0.00000  Uiso   1.00
H216   H     0.62544   0.43839   0.18932   0.00000  Uiso   1.00
H217   H     0.34800   0.49648   0.15951   0.00000  Uiso   1.00
H218   H     0.43121   0.65318   0.24348   0.00000  Uiso   1.00
H219   H     0.66576   0.53227   0.29556   0.00000  Uiso   1.00
H220   H     0.63617   0.59206   0.43439   0.00000  Uiso   1.00
H221   H     0.33801   0.58315   0.01245   0.00000  Uiso   1.00
H222   H     0.46546   0.47102   0.08414   0.00000  Uiso   1.00
H223   H     0.35124   0.45824   0.39979   0.00000  Uiso   1.00
H224   H     0.39273   0.46738   0.04705   0.00000  Uiso   1.00
H225   H     0.65267   0.44282   0.49138   0.00000  Uiso   1.00
N226   N     0.64908   0.51407   0.26416   0.00000  Uiso   1.00
N227   N     0.35092   0.48593   0.23584   0.00000  Uiso   1.00
O228   O     0.46131   0.57141   0.24633   0.00000  Uiso   1.00
O229   O     0.56191   0.58089   0.25587   0.00000  Uiso   1.00
O230   O     0.42515   0.49293   0.31840   0.00000  Uiso   1.00
O231   O     0.52575   0.50241   0.32793   0.00000  Uiso   1.00
O232   O     0.43809   0.41911   0.24414   0.00000  Uiso   1.00
O233   O     0.53869   0.42859   0.25367   0.00000  Uiso   1.00
O234   O     0.47425   0.49759   0.17207   0.00000  Uiso   1.00
O235   O     0.57485   0.50707   0.18161   0.00000  Uiso   1.00
C236   C     0.84850   0.60004   0.25152   0.00000  Uiso   1.00
C237   C     0.77958   0.49865   0.40332   0.00000  Uiso   1.00
C238   C     0.85692   0.65612   0.25217   0.00000  Uiso   1.00
C239   C     0.80006   0.49939   0.34717   0.00000  Uiso   1.00
C240   C     0.80982   0.34388   0.24769   0.00000  Uiso   1.00
C241   C     0.81819   0.39997   0.24844   0.00000  Uiso   1.00
C242   C     0.86702   0.50371   0.15308   0.00000  Uiso   1.00
C243   C     0.95900   0.55915   0.02760   0.00000  Uiso   1.00
C244   C     0.88704   0.51238   0.09815   0.00000  Uiso   1.00
C245   C     0.71829   0.47253   0.42398   0.00000  Uiso   1.00
C246   C     0.70025   0.46271   0.47578   0.00000  Uiso   1.00
C247   C     0.80606   0.50288   0.48794   0.00000  Uiso   1.00
C248   C     0.74355   0.47661   0.00737   0.00000  Uiso   1.00
C249   C     0.67192   0.46440   0.18670   0.00000  Uiso   1.00
C250   C     0.82224   0.51817   0.43630   0.00000  Uiso   1.00
C251   C     0.85287   0.51507   0.01812   0.00000  Uiso   1.00
C252   C     0.91264   0.54652   0.49808   0.00000  Uiso   1.00
C253   C     0.92499   0.56620   0.44935   0.00000  Uiso   1.00
C254   C     0.88025   0.55297   0.41922   0.00000  Uiso   1.00
C255   C     0.84224   0.49680   0.06768   0.00000  Uiso   1.00
C256   C     0.94614   0.54244   0.07760   0.00000  Uiso   1.00
Cu257  Cu    0.77377   0.49439   0.24436   0.00000  Uiso   1.00
Cu258  Cu    0.89290   0.50561   0.25565   0.00000  Uiso   1.00
H259   H     0.98125   0.55499   0.10077   0.00000  Uiso   1.00
H260   H     0.89141   0.57159   0.38284   0.00000  Uiso   1.00
H261   H     0.90220   0.34683   0.25636   0.00000  Uiso   1.00
H262   H     0.70451   0.43832   0.17081   0.00000  Uiso   1.00
H263   H     0.95877   0.43839   0.18932   0.00000  Uiso   1.00
H264   H     0.68134   0.49648   0.15951   0.00000  Uiso   1.00
H265   H     0.76454   0.65318   0.24348   0.00000  Uiso   1.00
H266   H     0.99909   0.53227   0.29556   0.00000  Uiso   1.00
H267   H     0.96950   0.59206   0.43439   0.00000  Uiso   1.00
H268   H     0.67135   0.58315   0.01245   0.00000  Uiso   1.00
H269   H     0.79879   0.47102   0.08414   0.00000  Uiso   1.00
H270   H     0.68457   0.45824   0.39979   0.00000  Uiso   1.00
H271   H     0.72607   0.46738   0.04705   0.00000  Uiso   1.00
H272   H     0.98600   0.44282   0.49138   0.00000  Uiso   1.00
N273   N     0.98241   0.51407   0.26416   0.00000  Uiso   1.00
N274   N     0.68426   0.48593   0.23584   0.00000  Uiso   1.00
O275   O     0.79464   0.57141   0.24633   0.00000  Uiso   1.00
O276   O     0.89524   0.58089   0.25587   0.00000  Uiso   1.00
O277   O     0.75848   0.49293   0.31840   0.00000  Uiso   1.00
O278   O     0.85908   0.50241   0.32793   0.00000  Uiso   1.00
O279   O     0.77142   0.41911   0.24414   0.00000  Uiso   1.00
O280   O     0.87203   0.42859   0.25367   0.00000  Uiso   1.00
O281   O     0.80758   0.49759   0.17207   0.00000  Uiso   1.00
O282   O     0.90819   0.50707   0.18161   0.00000  Uiso   1.00
C283   C     0.18183   0.93337   0.25152   0.00000  Uiso   1.00
C284   C     0.11291   0.83198   0.40332   0.00000  Uiso   1.00
C285   C     0.19025   0.98946   0.25217   0.00000  Uiso   1.00
C286   C     0.13339   0.83272   0.34717   0.00000  Uiso   1.00
C287   C     0.14315   0.67722   0.24769   0.00000  Uiso   1.00
C288   C     0.15152   0.73330   0.24844   0.00000  Uiso   1.00
C289   C     0.20035   0.83705   0.15308   0.00000  Uiso   1.00
C290   C     0.29234   0.89248   0.02760   0.00000  Uiso   1.00
C291   C     0.22038   0.84571   0.09815   0.00000  Uiso   1.00
C292   C     0.05162   0.80586   0.42398   0.00000  Uiso   1.00
C293   C     0.03358   0.79604   0.47578   0.00000  Uiso   1.00
C294   C     0.13939   0.83621   0.48794   0.00000  Uiso   1.00
C295   C     0.07689   0.80994   0.00737   0.00000  Uiso   1.00
C296   C     0.00525   0.79774   0.18670   0.00000  Uiso   1.00
C297   C     0.15557   0.85150   0.43630   0.00000  Uiso   1.00
C298   C     0.18620   0.84840   0.01812   0.00000  Uiso   1.00
C299   C     0.24597   0.87985   0.49808   0.00000  Uiso   1.00
C300   C     0.25832   0.89954   0.44935   0.00000  Uiso   1.00
C301   C     0.21359   0.88630   0.41922   0.00000  Uiso   1.00
C302   C     0.17558   0.83013   0.06768   0.00000  Uiso   1.00
C303   C     0.27947   0.87578   0.07760   0.00000  Uiso   1.00
Cu304  Cu    0.10710   0.82772   0.24436   0.00000  Uiso   1.00
Cu305  Cu    0.22623   0.83895   0.25565   0.00000  Uiso   1.00
H306   H     0.31459   0.88832   0.10077   0.00000  Uiso   1.00
H307   H     0.22475   0.90492   0.38284   0.00000  Uiso   1.00
H308   H     0.23554   0.68016   0.25636   0.00000  Uiso   1.00
H309   H     0.03784   0.77165   0.17081   0.00000  Uiso   1.00
H310   H     0.29210   0.77172   0.18932   0.00000  Uiso   1.00
H311   H     0.01467   0.82981   0.15951   0.00000  Uiso   1.00
H312   H     0.09788   0.98652   0.24348   0.00000  Uiso   1.00
H313   H     0.33243   0.86561   0.29556   0.00000  Uiso   1.00
H314   H     0.30283   0.92540   0.43439   0.00000  Uiso   1.00
H315   H     0.00468   0.91649   0.01245   0.00000  Uiso   1.00
H316   H     0.13212   0.80436   0.08414   0.00000  Uiso   1.00
H317   H     0.01790   0.79158   0.39979   0.00000  Uiso   1.00
H318   H     0.05940   0.80071   0.04705   0.00000  Uiso   1.00
H319   H     0.31933   0.77615   0.49138   0.00000  Uiso   1.00
N320   N     0.31574   0.84741   0.26416   0.00000  Uiso   1.00
N321   N     0.01759   0.81926   0.23584   0.00000  Uiso   1.00
O322   O     0.12797   0.90474   0.24633   0.00000  Uiso   1.00
O323   O     0.22858   0.91422   0.25587   0.00000  Uiso   1.00
O324   O     0.09181   0.82627   0.31840   0.00000  Uiso   1.00
O325   O     0.19242   0.83575   0.32793   0.00000  Uiso   1.00
O326   O     0.10476   0.75245   0.24414   0.00000  Uiso   1.00
O327   O     0.20536   0.76193   0.25367   0.00000  Uiso   1.00
O328   O     0.14092   0.83092   0.17207   0.00000  Uiso   1.00
O329   O     0.24152   0.84040   0.18161   0.00000  Uiso   1.00
C330   C     0.51516   0.93337   0.25152   0.00000  Uiso   1.00
C331   C     0.44625   0.83198   0.40332   0.00000  Uiso   1.00
C332   C     0.52358   0.98946   0.25217   0.00000  Uiso   1.00
C333   C     0.46672   0.83272   0.34717   0.00000  Uiso   1.00
C334   C     0.47649   0.67722   0.24769   0.00000  Uiso   1.00
C335   C     0.48486   0.73330   0.24844   0.00000  Uiso   1.00
C336   C     0.53368   0.83705   0.15308   0.00000  Uiso   1.00
C337   C     0.62567   0.89248   0.02760   0.00000  Uiso   1.00
C338   C     0.55371   0.84571   0.09815   0.00000  Uiso   1.00
C339   C     0.38496   0.80586   0.42398   0.00000  Uiso   1.00
C340   C     0.36692   0.79604   0.47578   0.00000  Uiso   1.00
C341   C     0.47273   0.83621   0.48794   0.00000  Uiso   1.00
C342   C     0.41022   0.80994   0.00737   0.00000  Uiso   1.00
C343   C     0.33859   0.79774   0.18670   0.00000  Uiso   1.00
C344   C     0.48890   0.85150   0.43630   0.00000  Uiso   1.00
C345   C     0.51954   0.84840   0.01812   0.00000  Uiso   1.00
C346   C     0.57931   0.87985   0.49808   0.00000  Uiso   1.00
C347   C     0.59166   0.89954   0.44935   0.00000  Uiso   1.00
C348   C     0.54692   0.88630   0.41922   0.00000  Uiso   1.00
C349   C     0.50891   0.83013   0.06768   0.00000  Uiso   1.00
C350   C     0.61280   0.87578   0.07760   0.00000  Uiso   1.00
Cu351  Cu    0.44043   0.82772   0.24436   0.00000  Uiso   1.00
Cu352  Cu    0.55957   0.83895   0.25565   0.00000  Uiso   1.00
H353   H     0.64792   0.88832   0.10077   0.00000  Uiso   1.00
H354   H     0.55808   0.90492   0.38284   0.00000  Uiso   1.00
H355   H     0.56887   0.68016   0.25636   0.00000  Uiso   1.00
H356   H     0.37117   0.77165   0.17081   0.00000  Uiso   1.00
H357   H     0.62544   0.77172   0.18932   0.00000  Uiso   1.00
H358   H     0.34800   0.82981   0.15951   0.00000  Uiso   1.00
H359   H     0.43121   0.98652   0.24348   0.00000  Uiso   1.00
H360   H     0.66576   0.86561   0.29556   0.00000  Uiso   1.00
H361   H     0.63617   0.92540   0.43439   0.00000  Uiso   1.00
H362   H     0.33801   0.91649   0.01245   0.00000  Uiso   1.00
H363   H     0.46546   0.80436   0.08414   0.00000  Uiso   1.00
H364   H     0.35124   0.79158   0.39979   0.00000  Uiso   1.00
H365   H     0.39273   0.80071   0.04705   0.00000  Uiso   1.00
H366   H     0.65267   0.77615   0.49138   0.00000  Uiso   1.00
N367   N     0.64908   0.84741   0.26416   0.00000  Uiso   1.00
N368   N     0.35092   0.81926   0.23584   0.00000  Uiso   1.00
O369   O     0.46131   0.90474   0.24633   0.00000  Uiso   1.00
O370   O     0.56191   0.91422   0.25587   0.00000  Uiso   1.00
O371   O     0.42515   0.82627   0.31840   0.00000  Uiso   1.00
O372   O     0.52575   0.83575   0.32793   0.00000  Uiso   1.00
O373   O     0.43809   0.75245   0.24414   0.00000  Uiso   1.00
O374   O     0.53869   0.76193   0.25367   0.00000  Uiso   1.00
O375   O     0.47425   0.83092   0.17207   0.00000  Uiso   1.00
O376   O     0.57485   0.84040   0.18161   0.00000  Uiso   1.00
C377   C     0.84850   0.93337   0.25152   0.00000  Uiso   1.00
C378   C     0.77958   0.83198   0.40332   0.00000  Uiso   1.00
C379   C     0.85692   0.98946   0.25217   0.00000  Uiso   1.00
C380   C     0.80006   0.83272   0.34717   0.00000  Uiso   1.00
C381   C     0.80982   0.67722   0.24769   0.00000  Uiso   1.00
C382   C     0.81819   0.73330   0.24844   0.00000  Uiso   1.00
C383   C     0.86702   0.83705   0.15308   0.00000  Uiso   1.00
C384   C     0.95900   0.89248   0.02760   0.00000  Uiso   1.00
C385   C     0.88704   0.84571   0.09815   0.00000  Uiso   1.00
C386   C     0.71829   0.80586   0.42398   0.00000  Uiso   1.00
C387   C     0.70025   0.79604   0.47578   0.00000  Uiso   1.00
C388   C     0.80606   0.83621   0.48794   0.00000  Uiso   1.00
C389   C     0.74355   0.80994   0.00737   0.00000  Uiso   1.00
C390   C     0.67192   0.79774   0.18670   0.00000  Uiso   1.00
C391   C     0.82224   0.85150   0.43630   0.00000  Uiso   1.00
C392   C     0.85287   0.84840   0.01812   0.00000  Uiso   1.00
C393   C     0.91264   0.87985   0.49808   0.00000  Uiso   1.00
C394   C     0.92499   0.89954   0.44935   0.00000  Uiso   1.00
C395   C     0.88025   0.88630   0.41922   0.00000  Uiso   1.00
C396   C     0.84224   0.83013   0.06768   0.00000  Uiso   1.00
C397   C     0.94614   0.87578   0.07760   0.00000  Uiso   1.00
Cu398  Cu    0.77377   0.82772   0.24436   0.00000  Uiso   1.00
Cu399  Cu    0.89290   0.83895   0.25565   0.00000  Uiso   1.00
H400   H     0.98125   0.88832   0.10077   0.00000  Uiso   1.00
H401   H     0.89141   0.90492   0.38284   0.00000  Uiso   1.00
H402   H     0.90220   0.68016   0.25636   0.00000  Uiso   1.00
H403   H     0.70451   0.77165   0.17081   0.00000  Uiso   1.00
H404   H     0.95877   0.77172   0.18932   0.00000  Uiso   1.00
H405   H     0.68134   0.82981   0.15951   0.00000  Uiso   1.00
H406   H     0.76454   0.98652   0.24348   0.00000  Uiso   1.00
H407   H     0.99909   0.86561   0.29556   0.00000  Uiso   1.00
H408   H     0.96950   0.92540   0.43439   0.00000  Uiso   1.00
H409   H     0.67135   0.91649   0.01245   0.00000  Uiso   1.00
H410   H     0.79879   0.80436   0.08414   0.00000  Uiso   1.00
H411   H     0.68457   0.79158   0.39979   0.00000  Uiso   1.00
H412   H     0.72607   0.80071   0.04705   0.00000  Uiso   1.00
H413   H     0.98600   0.77615   0.49138   0.00000  Uiso   1.00
N414   N     0.98241   0.84741   0.26416   0.00000  Uiso   1.00
N415   N     0.68426   0.81926   0.23584   0.00000  Uiso   1.00
O416   O     0.79464   0.90474   0.24633   0.00000  Uiso   1.00
O417   O     0.89524   0.91422   0.25587   0.00000  Uiso   1.00
O418   O     0.75848   0.82627   0.31840   0.00000  Uiso   1.00
O419   O     0.85908   0.83575   0.32793   0.00000  Uiso   1.00
O420   O     0.77142   0.75245   0.24414   0.00000  Uiso   1.00
O421   O     0.87203   0.76193   0.25367   0.00000  Uiso   1.00
O422   O     0.80758   0.83092   0.17207   0.00000  Uiso   1.00
O423   O     0.90819   0.84040   0.18161   0.00000  Uiso   1.00
C424   C     0.18183   0.26671   0.75152   0.00000  Uiso   1.00
C425   C     0.11291   0.16532   0.90332   0.00000  Uiso   1.00
C426   C     0.19025   0.32279   0.75217   0.00000  Uiso   1.00
C427   C     0.13339   0.16605   0.84717   0.00000  Uiso   1.00
C428   C     0.14315   0.01055   0.74769   0.00000  Uiso   1.00
C429   C     0.15152   0.06663   0.74844   0.00000  Uiso   1.00
C430   C     0.20035   0.17038   0.65308   0.00000  Uiso   1.00
C431   C     0.29234   0.22582   0.52760   0.00000  Uiso   1.00
C432   C     0.22038   0.17905   0.59815   0.00000  Uiso   1.00
C433   C     0.05162   0.13920   0.92398   0.00000  Uiso   1.00
C434   C     0.03358   0.12937   0.97578   0.00000  Uiso   1.00
C435   C     0.13939   0.16955   0.98794   0.00000  Uiso   1.00
C436   C     0.07689   0.14327   0.50737   0.00000  Uiso   1.00
C437   C     0.00525   0.13107   0.68670   0.00000  Uiso   1.00
C438   C     0.15557   0.18484   0.93630   0.00000  Uiso   1.00
C439   C     0.18620   0.18174   0.51812   0.00000  Uiso   1.00
C440   C     0.24597   0.21319   0.99808   0.00000  Uiso   1.00
C441   C     0.25832   0.23287   0.94935   0.00000  Uiso   1.00
C442   C     0.21359   0.21964   0.91922   0.00000  Uiso   1.00
C443   C     0.17558   0.16347   0.56768   0.00000  Uiso   1.00
C444   C     0.27947   0.20911   0.57760   0.00000  Uiso   1.00
Cu445  Cu    0.10710   0.16105   0.74436   0.00000  Uiso   1.00
Cu446  Cu    0.22623   0.17228   0.75565   0.00000  Uiso   1.00
H447   H     0.31459   0.22165   0.60077   0.00000  Uiso   1.00
H448   H     0.22475   0.23826   0.88284   0.00000  Uiso   1.00
H449   H     0.23554   0.01349   0.75636   0.00000  Uiso   1.00
H450   H     0.03784   0.10499   0.67081   0.00000  Uiso   1.00
H451   H     0.29210   0.10505   0.68932   0.00000  Uiso   1.00
H452   H     0.01467   0.16315   0.65951   0.00000  Uiso   1.00
H453   H     0.09788   0.31985   0.74348   0.00000  Uiso   1.00
H454   H     0.33243   0.19894   0.79556   0.00000  Uiso   1.00
H455   H     0.30283   0.25873   0.93439   0.00000  Uiso   1.00
H456   H     0.00468   0.24982   0.51245   0.00000  Uiso   1.00
H457   H     0.13212   0.13769   0.58414   0.00000  Uiso   1.00
H458   H     0.01790   0.12491   0.89979   0.00000  Uiso   1.00
H459   H     0.05940   0.13405   0.54705   0.00000  Uiso   1.00
H460   H     0.31933   0.10948   0.99138   0.00000  Uiso   1.00
N461   N     0.31574   0.18074   0.76416   0.00000  Uiso   1.00
N462   N     0.01759   0.15259   0.73584   0.00000  Uiso   1.00
O463   O     0.12797   0.23807   0.74633   0.00000  Uiso   1.00
O464   O     0.22858   0.24755   0.75587   0.00000  Uiso   1.00
O465   O     0.09181   0.15960   0.81840   0.00000  Uiso   1.00
O466   O     0.19242   0.16908   0.82793   0.00000  Uiso   1.00
O467   O     0.10476   0.08578   0.74414   0.00000  Uiso   1.00
O468   O     0.20536   0.09526   0.75367   0.00000  Uiso   1.00
O469   O     0.14092   0.16425   0.67207   0.00000  Uiso   1.00
O470   O     0.24152   0.17373   0.68161   0.00000  Uiso   1.00
C471   C     0.51516   0.26671   0.75152   0.00000  Uiso   1.00
C472   C     0.44625   0.16532   0.90332   0.00000  Uiso   1.00
C473   C     0.52358   0.32279   0.75217   0.00000  Uiso   1.00
C474   C     0.46672   0.16605   0.84717   0.00000  Uiso   1.00
C475   C     0.47649   0.01055   0.74769   0.00000  Uiso   1.00
C476   C     0.48486   0.06663   0.74844   0.00000  Uiso   1.00
C477   C     0.53368   0.17038   0.65308   0.00000  Uiso   1.00
C478   C     0.62567   0.22582   0.52760   0.00000  Uiso   1.00
C479   C     0.55371   0.17905   0.59815   0.00000  Uiso   1.00
C480   C     0.38496   0.13920   0.92398   0.00000  Uiso   1.00
C481   C     0.36692   0.12937   0.97578   0.00000  Uiso   1.00
C482   C     0.47273   0.16955   0.98794   0.00000  Uiso   1.00
C483   C     0.41022   0.14327   0.50737   0.00000  Uiso   1.00
C484   C     0.33859   0.13107   0.68670   0.00000  Uiso   1.00
C485   C     0.48890   0.18484   0.93630   0.00000  Uiso   1.00
C486   C     0.51954   0.18174   0.51812   0.00000  Uiso   1.00
C487   C     0.57931   0.21319   0.99808   0.00000  Uiso   1.00
C488   C     0.59166   0.23287   0.94935   0.00000  Uiso   1.00
C489   C     0.54692   0.21964   0.91922   0.00000  Uiso   1.00
C490   C     0.50891   0.16347   0.56768   0.00000  Uiso   1.00
C491   C     0.61280   0.20911   0.57760   0.00000  Uiso   1.00
Cu492  Cu    0.44043   0.16105   0.74436   0.00000  Uiso   1.00
Cu493  Cu    0.55957   0.17228   0.75565   0.00000  Uiso   1.00
H494   H     0.64792   0.22165   0.60077   0.00000  Uiso   1.00
H495   H     0.55808   0.23826   0.88284   0.00000  Uiso   1.00
H496   H     0.56887   0.01349   0.75636   0.00000  Uiso   1.00
H497   H     0.37117   0.10499   0.67081   0.00000  Uiso   1.00
H498   H     0.62544   0.10505   0.68932   0.00000  Uiso   1.00
H499   H     0.34800   0.16315   0.65951   0.00000  Uiso   1.00
H500   H     0.43121   0.31985   0.74348   0.00000  Uiso   1.00
H501   H     0.66576   0.19894   0.79556   0.00000  Uiso   1.00
H502   H     0.63617   0.25873   0.93439   0.00000  Uiso   1.00
H503   H     0.33801   0.24982   0.51245   0.00000  Uiso   1.00
H504   H     0.46546   0.13769   0.58414   0.00000  Uiso   1.00
H505   H     0.35124   0.12491   0.89979   0.00000  Uiso   1.00
H506   H     0.39273   0.13405   0.54705   0.00000  Uiso   1.00
H507   H     0.65267   0.10948   0.99138   0.00000  Uiso   1.00
N508   N     0.64908   0.18074   0.76416   0.00000  Uiso   1.00
N509   N     0.35092   0.15259   0.73584   0.00000  Uiso   1.00
O510   O     0.46131   0.23807   0.74633   0.00000  Uiso   1.00
O511   O     0.56191   0.24755   0.75587   0.00000  Uiso   1.00
O512   O     0.42515   0.15960   0.81840   0.00000  Uiso   1.00
O513   O     0.52575   0.16908   0.82793   0.00000  Uiso   1.00
O514   O     0.43809   0.08578   0.74414   0.00000  Uiso   1.00
O515   O     0.53869   0.09526   0.75367   0.00000  Uiso   1.00
O516   O     0.47425   0.16425   0.67207   0.00000  Uiso   1.00
O517   O     0.57485   0.17373   0.68161   0.00000  Uiso   1.00
C518   C     0.84850   0.26671   0.75152   0.00000  Uiso   1.00
C519   C     0.77958   0.16532   0.90332   0.00000  Uiso   1.00
C520   C     0.85692   0.32279   0.75217   0.00000  Uiso   1.00
C521   C     0.80006   0.16605   0.84717   0.00000  Uiso   1.00
C522   C     0.80982   0.01055   0.74769   0.00000  Uiso   1.00
C523   C     0.81819   0.06663   0.74844   0.00000  Uiso   1.00
C524   C     0.86702   0.17038   0.65308   0.00000  Uiso   1.00
C525   C     0.95900   0.22582   0.52760   0.00000  Uiso   1.00
C526   C     0.88704   0.17905   0.59815   0.00000  Uiso   1.00
C527   C     0.71829   0.13920   0.92398   0.00000  Uiso   1.00
C528   C     0.70025   0.12937   0.97578   0.00000  Uiso   1.00
C529   C     0.80606   0.16955   0.98794   0.00000  Uiso   1.00
C530   C     0.74355   0.14327   0.50737   0.00000  Uiso   1.00
C531   C     0.67192   0.13107   0.68670   0.00000  Uiso   1.00
C532   C     0.82224   0.18484   0.93630   0.00000  Uiso   1.00
C533   C     0.85287   0.18174   0.51812   0.00000  Uiso   1.00
C534   C     0.91264   0.21319   0.99808   0.00000  Uiso   1.00
C535   C     0.92499   0.23287   0.94935   0.00000  Uiso   1.00
C536   C     0.88025   0.21964   0.91922   0.00000  Uiso   1.00
C537   C     0.84224   0.16347   0.56768   0.00000  Uiso   1.00
C538   C     0.94614   0.20911   0.57760   0.00000  Uiso   1.00
Cu539  Cu    0.77377   0.16105   0.74436   0.00000  Uiso   1.00
Cu540  Cu    0.89290   0.17228   0.75565   0.00000  Uiso   1.00
H541   H     0.98125   0.22165   0.60077   0.00000  Uiso   1.00
H542   H     0.89141   0.23826   0.88284   0.00000  Uiso   1.00
H543   H     0.90220   0.01349   0.75636   0.00000  Uiso   1.00
H544   H     0.70451   0.10499   0.67081   0.00000  Uiso   1.00
H545   H     0.95877   0.10505   0.68932   0.00000  Uiso   1.00
H546   H     0.68134   0.16315   0.65951   0.00000  Uiso   1.00
H547   H     0.76454   0.31985   0.74348   0.00000  Uiso   1.00
H548   H     0.99909   0.19894   0.79556   0.00000  Uiso   1.00
H549   H     0.96950   0.25873   0.93439   0.00000  Uiso   1.00
H550   H     0.67135   0.24982   0.51245   0.00000  Uiso   1.00
H551   H     0.79879   0.13769   0.58414   0.00000  Uiso   1.00
H552   H     0.68457   0.12491   0.89979   0.00000  Uiso   1.00
H553   H     0.72607   0.13405   0.54705   0.00000  Uiso   1.00
H554   H     0.98600   0.10948   0.99138   0.00000  Uiso   1.00
N555   N     0.98241   0.18074   0.76416   0.00000  Uiso   1.00
N556   N     0.68426   0.15259   0.73584   0.00000  Uiso   1.00
O557   O     0.79464   0.23807   0.74633   0.00000  Uiso   1.00
O558   O     0.89524   0.24755   0.75587   0.00000  Uiso   1.00
O559   O     0.75848   0.15960   0.81840   0.00000  Uiso   1.00
O560   O     0.85908   0.16908   0.82793   0.00000  Uiso   1.00
O561   O     0.77142   0.08578   0.74414   0.00000  Uiso   1.00
O562   O     0.87203   0.09526   0.75367   0.00000  Uiso   1.00
O563   O     0.80758   0.16425   0.67207   0.00000  Uiso   1.00
O564   O     0.90819   0.17373   0.68161   0.00000  Uiso   1.00
C565   C     0.18183   0.60004   0.75152   0.00000  Uiso   1.00
C566   C     0.11291   0.49865   0.90332   0.00000  Uiso   1.00
C567   C     0.19025   0.65612   0.75217   0.00000  Uiso   1.00
C568   C     0.13339   0.49939   0.84717   0.00000  Uiso   1.00
C569   C     0.14315   0.34388   0.74769   0.00000  Uiso   1.00
C570   C     0.15152   0.39997   0.74844   0.00000  Uiso   1.00
C571   C     0.20035   0.50371   0.65308   0.00000  Uiso   1.00
C572   C     0.29234   0.55915   0.52760   0.00000  Uiso   1.00
C573   C     0.22038   0.51238   0.59815   0.00000  Uiso   1.00
C574   C     0.05162   0.47253   0.92398   0.00000  Uiso   1.00
C575   C     0.03358   0.46271   0.97578   0.00000  Uiso   1.00
C576   C     0.13939   0.50288   0.98794   0.00000  Uiso   1.00
C577   C     0.07689   0.47661   0.50737   0.00000  Uiso   1.00
C578   C     0.00525   0.46440   0.68670   0.00000  Uiso   1.00
C579   C     0.15557   0.51817   0.93630   0.00000  Uiso   1.00
C580   C     0.18620   0.51507   0.51812   0.00000  Uiso   1.00
C581   C     0.24597   0.54652   0.99808   0.00000  Uiso   1.00
C582   C     0.25832   0.56620   0.94935   0.00000  Uiso   1.00
C583   C     0.21359   0.55297   0.91922   0.00000  Uiso   1.00
C584   C     0.17558   0.49680   0.56768   0.00000  Uiso   1.00
C585   C     0.27947   0.54244   0.57760   0.00000  Uiso   1.00
Cu586  Cu    0.10710   0.49439   0.74436   0.00000  Uiso   1.00
Cu587  Cu    0.22623   0.50561   0.75565   0.00000  Uiso   1.00
H588   H     0.31459   0.55499   0.60077   0.00000  Uiso   1.00
H589   H     0.22475   0.57159   0.88284   0.00000  Uiso   1.00
H590   H     0.23554   0.34683   0.75636   0.00000  Uiso   1.00
H591   H     0.03784   0.43832   0.67081   0.00000  Uiso   1.00
H592   H     0.29210   0.43839   0.68932   0.00000  Uiso   1.00
H593   H     0.01467   0.49648   0.65951   0.00000  Uiso   1.00
H594   H     0.09788   0.65318   0.74348   0.00000  Uiso   1.00
H595   H     0.33243   0.53227   0.79556   0.00000  Uiso   1.00
H596   H     0.30283   0.59206   0.93439   0.00000  Uiso   1.00
H597   H     0.00468   0.58315   0.51245   0.00000  Uiso   1.00
H598   H     0.13212   0.47102   0.58414   0.00000  Uiso   1.00
H599   H     0.01790   0.45824   0.89979   0.00000  Uiso   1.00
H600   H     0.05940   0.46738   0.54705   0.00000  Uiso   1.00
H601   H     0.31933   0.44282   0.99138   0.00000  Uiso   1.00
N602   N     0.31574   0.51407   0.76416   0.00000  Uiso   1.00
N603   N     0.01759   0.48593   0.73584   0.00000  Uiso   1.00
O604   O     0.12797   0.57141   0.74633   0.00000  Uiso   1.00
O605   O     0.22858   0.58089   0.75587   0.00000  Uiso   1.00
O606   O     0.09181   0.49293   0.81840   0.00000  Uiso   1.00
O607   O     0.19242   0.50241   0.82793   0.00000  Uiso   1.00
O608   O     0.10476   0.41911   0.74414   0.00000  Uiso   1.00
O609   O     0.20536   0.42859   0.75367   0.00000  Uiso   1.00
O610   O     0.14092   0.49759   0.67207   0.00000  Uiso   1.00
O611   O     0.24152   0.50707   0.68161   0.00000  Uiso   1.00
C612   C     0.51516   0.60004   0.75152   0.00000  Uiso   1.00
C613   C     0.44625   0.49865   0.90332   0.00000  Uiso   1.00
C614   C     0.52358   0.65612   0.75217   0.00000  Uiso   1.00
C615   C     0.46672   0.49939   0.84717   0.00000  Uiso   1.00
C616   C     0.47649   0.34388   0.74769   0.00000  Uiso   1.00
C617   C     0.48486   0.39997   0.74844   0.00000  Uiso   1.00
C618   C     0.53368   0.50371   0.65308   0.00000  Uiso   1.00
C619   C     0.62567   0.55915   0.52760   0.00000  Uiso   1.00
C620   C     0.55371   0.51238   0.59815   0.00000  Uiso   1.00
C621   C     0.38496   0.47253   0.92398   0.00000  Uiso   1.00
C622   C     0.36692   0.46271   0.97578   0.00000  Uiso   1.00
C623   C     0.47273   0.50288   0.98794   0.00000  Uiso   1.00
C624   C     0.41022   0.47661   0.50737   0.00000  Uiso   1.00
C625   C     0.33859   0.46440   0.68670   0.00000  Uiso   1.00
C626   C     0.48890   0.51817   0.93630   0.00000  Uiso   1.00
C627   C     0.51954   0.51507   0.51812   0.00000  Uiso   1.00
C628   C     0.57931   0.54652   0.99808   0.00000  Uiso   1.00
C629   C     0.59166   0.56620   0.94935   0.00000  Uiso   1.00
C630   C     0.54692   0.55297   0.91922   0.00000  Uiso   1.00
C631   C     0.50891   0.49680   0.56768   0.00000  Uiso   1.00
C632   C     0.61280   0.54244   0.57760   0.00000  Uiso   1.00
Cu633  Cu    0.44043   0.49439   0.74436   0.00000  Uiso   1.00
Cu634  Cu    0.55957   0.50561   0.75565   0.00000  Uiso   1.00
H635   H     0.64792   0.55499   0.60077   0.00000  Uiso   1.00
H636   H     0.55808   0.57159   0.88284   0.00000  Uiso   1.00
H637   H     0.56887   0.34683   0.75636   0.00000  Uiso   1.00
H638   H     0.37117   0.43832   0.67081   0.00000  Uiso   1.00
H639   H     0.62544   0.43839   0.68932   0.00000  Uiso   1.00
H640   H     0.34800   0.49648   0.65951   0.00000  Uiso   1.00
H641   H     0.43121   0.65318   0.74348   0.00000  Uiso   1.00
H642   H     0.66576   0.53227   0.79556   0.00000  Uiso   1.00
H643   H     0.63617   0.59206   0.93439   0.00000  Uiso   1.00
H644   H     0.33801   0.58315   0.51245   0.00000  Uiso   1.00
H645   H     0.46546   0.47102   0.58414   0.00000  Uiso   1.00
H646   H     0.35124   0.45824   0.89979   0.00000  Uiso   1.00
H647   H     0.39273   0.46738   0.54705   0.00000  Uiso   1.00
H648   H     0.65267   0.44282   0.99138   0.00000  Uiso   1.00
N649   N     0.64908   0.51407   0.76416   0.00000  Uiso   1.00
N650   N     0.35092   0.48593   0.73584   0.00000  Uiso   1.00
O651   O     0.46131   0.57141   0.74633   0.00000  Uiso   1.00
O652   O     0.56191   0.58089   0.75587   0.00000  Uiso   1.00
O653   O     0.42515   0.49293   0.81840   0.00000  Uiso   1.00
O654   O     0.52575   0.50241   0.82793   0.00000  Uiso   1.00
O655   O     0.43809   0.41911   0.74414   0.00000  Uiso   1.00
O656   O     0.53869   0.42859   0.75367   0.00000  Uiso   1.00
O657   O     0.47425   0.49759   0.67207   0.00000  Uiso   1.00
O658   O     0.57485   0.50707   0.68161   0.00000  Uiso   1.00
C659   C     0.84850   0.60004   0.75152   0.00000  Uiso   1.00
C660   C     0.77958   0.49865   0.90332   0.00000  Uiso   1.00
C661   C     0.85692   0.65612   0.75217   0.00000  Uiso   1.00
C662   C     0.80006   0.49939   0.84717   0.00000  Uiso   1.00
C663   C     0.80982   0.34388   0.74769   0.00000  Uiso   1.00
C664   C     0.81819   0.39997   0.74844   0.00000  Uiso   1.00
C665   C     0.86702   0.50371   0.65308   0.00000  Uiso   1.00
C666   C     0.95900   0.55915   0.52760   0.00000  Uiso   1.00
C667   C     0.88704   0.51238   0.59815   0.00000  Uiso   1.00
C668   C     0.71829   0.47253   0.92398   0.00000  Uiso   1.00
C669   C     0.70025   0.46271   0.97578   0.00000  Uiso   1.00
C670   C     0.80606   0.50288   0.98794   0.00000  Uiso   1.00
C671   C     0.74355   0.47661   0.50737   0.00000  Uiso   1.00
C672   C     0.67192   0.46440   0.68670   0.00000  Uiso   1.00
C673   C     0.82224   0.51817   0.93630   0.00000  Uiso   1.00
C674   C     0.85287   0.51507   0.51812   0.00000  Uiso   1.00
C675   C     0.91264   0.54652   0.99808   0.00000  Uiso   1.00
C676   C     0.92499   0.56620   0.94935   0.00000  Uiso   1.00
C677   C     0.88025   0.55297   0.91922   0.00000  Uiso   1.00
C678   C     0.84224   0.49680   0.56768   0.00000  Uiso   1.00
C679   C     0.94614   0.54244   0.57760   0.00000  Uiso   1.00
Cu680  Cu    0.77377   0.49439   0.74436   0.00000  Uiso   1.00
Cu681  Cu    0.89290   0.50561   0.75565   0.00000  Uiso   1.00
H682   H     0.98125   0.55499   0.60077   0.00000  Uiso   1.00
H683   H     0.89141   0.57159   0.88284   0.00000  Uiso   1.00
H684   H     0.90220   0.34683   0.75636   0.00000  Uiso   1.00
H685   H     0.70451   0.43832   0.67081   0.00000  Uiso   1.00
H686   H     0.95877   0.43839   0.68932   0.00000  Uiso   1.00
H687   H     0.68134   0.49648   0.65951   0.00000  Uiso   1.00
H688   H     0.76454   0.65318   0.74348   0.00000  Uiso   1.00
H689   H     0.99909   0.53227   0.79556   0.00000  Uiso   1.00
H690   H     0.96950   0.59206   0.93439   0.00000  Uiso   1.00
H691   H     0.67135   0.58315   0.51245   0.00000  Uiso   1.00
H692   H     0.79879   0.47102   0.58414   0.00000  Uiso   1.00
H693   H     0.68457   0.45824   0.89979   0.00000  Uiso   1.00
H694   H     0.72607   0.46738   0.54705   0.00000  Uiso   1.00
H695   H     0.98600   0.44282   0.99138   0.00000  Uiso   1.00
N696   N     0.98241   0.51407   0.76416   0.00000  Uiso   1.00
N697   N     0.68426   0.48593   0.73584   0.00000  Uiso   1.00
O698   O     0.79464   0.57141   0.74633   0.00000  Uiso   1.00
O699   O     0.89524   0.58089   0.75587   0.00000  Uiso   1.00
O700   O     0.75848   0.49293   0.81840   0.00000  Uiso   1.00
O701   O     0.85908   0.50241   0.82793   0.00000  Uiso   1.00
O702   O     0.77142   0.41911   0.74414   0.00000  Uiso   1.00
O703   O     0.87203   0.42859   0.75367   0.00000  Uiso   1.00
O704   O     0.80758   0.49759   0.67207   0.00000  Uiso   1.00
O705   O     0.90819   0.50707   0.68161   0.00000  Uiso   1.00
C706   C     0.18183   0.93337   0.75152   0.00000  Uiso   1.00
C707   C     0.11291   0.83198   0.90332   0.00000  Uiso   1.00
C708   C     0.19025   0.98946   0.75217   0.00000  Uiso   1.00
C709   C     0.13339   0.83272   0.84717   0.00000  Uiso   1.00
C710   C     0.14315   0.67722   0.74769   0.00000  Uiso   1.00
C711   C     0.15152   0.73330   0.74844   0.00000  Uiso   1.00
C712   C     0.20035   0.83705   0.65308   0.00000  Uiso   1.00
C713   C     0.29234   0.89248   0.52760   0.00000  Uiso   1.00
C714   C     0.22038   0.84571   0.59815   0.00000  Uiso   1.00
C715   C     0.05162   0.80586   0.92398   0.00000  Uiso   1.00
C716   C     0.03358   0.79604   0.97578   0.00000  Uiso   1.00
C717   C     0.13939   0.83621   0.98794   0.00000  Uiso   1.00
C718   C     0.07689   0.80994   0.50737   0.00000  Uiso   1.00
C719   C     0.00525   0.79774   0.68670   0.00000  Uiso   1.00
C720   C     0.15557   0.85150   0.93630   0.00000  Uiso   1.00
C721   C     0.18620   0.84840   0.51812   0.00000  Uiso   1.00
C722   C     0.24597   0.87985   0.99808   0.00000  Uiso   1.00
C723   C     0.25832   0.89954   0.94935   0.00000  Uiso   1.00
C724   C     0.21359   0.88630   0.91922   0.00000  Uiso   1.00
C725   C     0.17558   0.83013   0.56768   0.00000  Uiso   1.00
C726   C     0.27947   0.87578   0.57760   0.00000  Uiso   1.00
Cu727  Cu    0.10710   0.82772   0.74436   0.00000  Uiso   1.00
Cu728  Cu    0.22623   0.83895   0.75565   0.00000  Uiso   1.00
H729   H     0.31459   0.88832   0.60077   0.00000  Uiso   1.00
H730   H     0.22475   0.90492   0.88284   0.00000  Uiso   1.00
H731   H     0.23554   0.68016   0.75636   0.00000  Uiso   1.00
H732   H     0.03784   0.77165   0.67081   0.00000  Uiso   1.00
H733   H     0.29210   0.77172   0.68932   0.00000  Uiso   1.00
H734   H     0.01467   0.82981   0.65951   0.00000  Uiso   1.00
H735   H     0.09788   0.98652   0.74348   0.00000  Uiso   1.00
H736   H     0.33243   0.86561   0.79556   0.00000  Uiso   1.00
H737   H     0.30283   0.92540   0.93439   0.00000  Uiso   1.00
H738   H     0.00468   0.91649   0.51245   0.00000  Uiso   1.00
H739   H     0.13212   0.80436   0.58414   0.00000  Uiso   1.00
H740   H     0.01790   0.79158   0.89979   0.00000  Uiso   1.00
H741   H     0.05940   0.80071   0.54705   0.00000  Uiso   1.00
H742   H     0.31933   0.77615   0.99138   0.00000  Uiso   1.00
N743   N     0.31574   0.84741   0.76416   0.00000  Uiso   1.00
N744   N     0.01759   0.81926   0.73584   0.00000  Uiso   1.00
O745   O     0.12797   0.90474   0.74633   0.00000  Uiso   1.00
O746   O     0.22858   0.91422   0.75587   0.00000  Uiso   1.00
O747   O     0.09181   0.82627   0.81840   0.00000  Uiso   1.00
O748   O     0.19242   0.83575   0.82793   0.00000  Uiso   1.00
O749   O     0.10476   0.75245   0.74414   0.00000  Uiso   1.00
O750   O     0.20536   0.76193   0.75367   0.00000  Uiso   1.00
O751   O     0.14092   0.83092   0.67207   0.00000  Uiso   1.00
O752   O     0.24152   0.84040   0.68161   0.00000  Uiso   1.00
C753   C     0.51516   0.93337   0.75152   0.00000  Uiso   1.00
C754   C     0.44625   0.83198   0.90332   0.00000  Uiso   1.00
C755   C     0.52358   0.98946   0.75217   0.00000  Uiso   1.00
C756   C     0.46672   0.83272   0.84717   0.00000  Uiso   1.00
C757   C     0.47649   0.67722   0.74769   0.00000  Uiso   1.00
C758   C     0.48486   0.73330   0.74844   0.00000  Uiso   1.00
C759   C     0.53368   0.83705   0.65308   0.00000  Uiso   1.00
C760   C     0.62567   0.89248   0.52760   0.00000  Uiso   1.00
C761   C     0.55371   0.84571   0.59815   0.00000  Uiso   1.00
C762   C     0.38496   0.80586   0.92398   0.00000  Uiso   1.00
C763   C     0.36692   0.79604   0.97578   0.00000  Uiso   1.00
C764   C     0.47273   0.83621   0.98794   0.00000  Uiso   1.00
C765   C     0.41022   0.80994   0.50737   0.00000  Uiso   1.00
C766   C     0.33859   0.79774   0.68670   0.00000  Uiso   1.00
C767   C     0.48890   0.85150   0.93630   0.00000  Uiso   1.00
C768   C     0.51954   0.84840   0.51812   0.00000  Uiso   1.00
C769   C     0.57931   0.87985   0.99808   0.00000  Uiso   1.00
C770   C     0.59166   0.89954   0.94935   0.00000  Uiso   1.00
C771   C     0.54692   0.88630   0.91922   0.00000  Uiso   1.00
C772   C     0.50891   0.83013   0.56768   0.00000  Uiso   1.00
C773   C     0.61280   0.87578   0.57760   0.00000  Uiso   1.00
Cu774  Cu    0.44043   0.82772   0.74436   0.00000  Uiso   1.00
Cu775  Cu    0.55957   0.83895   0.75565   0.00000  Uiso   1.00
H776   H     0.64792   0.88832   0.60077   0.00000  Uiso   1.00
H777   H     0.55808   0.90492   0.88284   0.00000  Uiso   1.00
H778   H     0.56887   0.68016   0.75636   0.00000  Uiso   1.00
H779   H     0.37117   0.77165   0.67081   0.00000  Uiso   1.00
H780   H     0.62544   0.77172   0.68932   0.00000  Uiso   1.00
H781   H     0.34800   0.82981   0.65951   0.00000  Uiso   1.00
H782   H     0.43121   0.98652   0.74348   0.00000  Uiso   1.00
H783   H     0.66576   0.86561   0.79556   0.00000  Uiso   1.00
H784   H     0.63617   0.92540   0.93439   0.00000  Uiso   1.00
H785   H     0.33801   0.91649   0.51245   0.00000  Uiso   1.00
H786   H     0.46546   0.80436   0.58414   0.00000  Uiso   1.00
H787   H     0.35124   0.79158   0.89979   0.00000  Uiso   1.00
H788   H     0.39273   0.80071   0.54705   0.00000  Uiso   1.00
H789   H     0.65267   0.77615   0.99138   0.00000  Uiso   1.00
N790   N     0.64908   0.84741   0.76416   0.00000  Uiso   1.00
N791   N     0.35092   0.81926   0.73584   0.00000  Uiso   1.00
O792   O     0.46131   0.90474   0.74633   0.00000  Uiso   1.00
O793   O     0.56191   0.91422   0.75587   0.00000  Uiso   1.00
O794   O     0.42515   0.82627   0.81840   0.00000  Uiso   1.00
O795   O     0.52575   0.83575   0.82793   0.00000  Uiso   1.00
O796   O     0.43809   0.75245   0.74414   0.00000  Uiso   1.00
O797   O     0.53869   0.76193   0.75367   0.00000  Uiso   1.00
O798   O     0.47425   0.83092   0.67207   0.00000  Uiso   1.00
O799   O     0.57485   0.84040   0.68161   0.00000  Uiso   1.00
C800   C     0.84850   0.93337   0.75152   0.00000  Uiso   1.00
C801   C     0.77958   0.83198   0.90332   0.00000  Uiso   1.00
C802   C     0.85692   0.98946   0.75217   0.00000  Uiso   1.00
C803   C     0.80006   0.83272   0.84717   0.00000  Uiso   1.00
C804   C     0.80982   0.67722   0.74769   0.00000  Uiso   1.00
C805   C     0.81819   0.73330   0.74844   0.00000  Uiso   1.00
C806   C     0.86702   0.83705   0.65308   0.00000  Uiso   1.00
C807   C     0.95900   0.89248   0.52760   0.00000  Uiso   1.00
C808   C     0.88704   0.84571   0.59815   0.00000  Uiso   1.00
C809   C     0.71829   0.80586   0.92398   0.00000  Uiso   1.00
C810   C     0.70025   0.79604   0.97578   0.00000  Uiso   1.00
C811   C     0.80606   0.83621   0.98794   0.00000  Uiso   1.00
C812   C     0.74355   0.80994   0.50737   0.00000  Uiso   1.00
C813   C     0.67192   0.79774   0.68670   0.00000  Uiso   1.00
C814   C     0.82224   0.85150   0.93630   0.00000  Uiso   1.00
C815   C     0.85287   0.84840   0.51812   0.00000  Uiso   1.00
C816   C     0.91264   0.87985   0.99808   0.00000  Uiso   1.00
C817   C     0.92499   0.89954   0.94935   0.00000  Uiso   1.00
C818   C     0.88025   0.88630   0.91922   0.00000  Uiso   1.00
C819   C     0.84224   0.83013   0.56768   0.00000  Uiso   1.00
C820   C     0.94614   0.87578   0.57760   0.00000  Uiso   1.00
Cu821  Cu    0.77377   0.82772   0.74436   0.00000  Uiso   1.00
Cu822  Cu    0.89290   0.83895   0.75565   0.00000  Uiso   1.00
H823   H     0.98125   0.88832   0.60077   0.00000  Uiso   1.00
H824   H     0.89141   0.90492   0.88284   0.00000  Uiso   1.00
H825   H     0.90220   0.68016   0.75636   0.00000  Uiso   1.00
H826   H     0.70451   0.77165   0.67081   0.00000  Uiso   1.00
H827   H     0.95877   0.77172   0.68932   0.00000  Uiso   1.00
H828   H     0.68134   0.82981   0.65951   0.00000  Uiso   1.00
H829   H     0.76454   0.98652   0.74348   0.00000  Uiso   1.00
H830   H     0.99909   0.86561   0.79556   0.00000  Uiso   1.00
H831   H     0.96950   0.92540   0.93439   0.00000  Uiso   1.00
H832   H     0.67135   0.91649   0.51245   0.00000  Uiso   1.00
H833   H     0.79879   0.80436   0.58414   0.00000  Uiso   1.00
H834   H     0.68457   0.79158   0.89979   0.00000  Uiso   1.00
H835   H     0.72607   0.80071   0.54705   0.00000  Uiso   1.00
H836   H     0.98600   0.77615   0.99138   0.00000  Uiso   1.00
N837   N     0.98241   0.84741   0.76416   0.00000  Uiso   1.00
N838   N     0.68426   0.81926   0.73584   0.00000  Uiso   1.00
O839   O     0.79464   0.90474   0.74633   0.00000  Uiso   1.00
O840   O     0.89524   0.91422   0.75587   0.00000  Uiso   1.00
O841   O     0.75848   0.82627   0.81840   0.00000  Uiso   1.00
O842   O     0.85908   0.83575   0.82793   0.00000  Uiso   1.00
O843   O     0.77142   0.75245   0.74414   0.00000  Uiso   1.00
O844   O     0.87203   0.76193   0.75367   0.00000  Uiso   1.00
O845   O     0.80758   0.83092   0.67207   0.00000  Uiso   1.00
O846   O     0.90819   0.84040   0.68161   0.00000  Uiso   1.00
loop_
_geom_bond_atom_site_label_1
_geom_bond_atom_site_label_2
_geom_bond_distance
_geom_bond_site_symmetry_2
_ccdc_geom_bond_type
C1     O41     1.294   .     A
C1     O40     1.295   .     A
C1     C3      1.431   .     S
C2     C4      1.475   .     S
C2     C15     1.422   .     A
C2     C10     1.402   .     A
C3     C146    1.332   .     S
C3     H167    1.088   .     S
C4     O43     1.301   .     A
C4     O42     1.308   .     A
C5     C6      1.431   .     S
C5     C285    1.332   1_545 S
C5     H312    1.087   1_545 S
C6     O44     1.293   .     A
C6     O45     1.295   .     A
C7     O46     1.299   .     A
C7     C9      1.463   .     S
C7     O47     1.306   .     A
C8     C21     1.393   .     A
C8     C440    1.404   1_554 S
C8     H80     1.084   .     S
C9     C20     1.398   .     A
C9     C21     1.398   .     A
C10    H35     1.083   .     S
C10    C11     1.387   .     A
C11    C436    1.391   .     S
C11    H131    1.083   1_455 S
C12    C15     1.419   .     A
C12    C436    1.418   .     S
C12    C439    1.425   .     S
C13    H36     1.077   .     S
C13    C434    1.391   1_554 S
C13    C435    1.418   1_554 S
C14    H27     1.108   .     S
C14    H29     1.110   .     S
C14    N39     1.444   .     S
C14    H122    1.097   1_455 S
C15    C19     1.413   .     A
C16    C20     1.402   .     A
C16    C435    1.425   1_554 S
C16    C440    1.420   1_554 S
C17    C18     1.392   .     A
C17    C439    1.420   .     S
C17    C431    1.404   .     S
C18    H32     1.084   .     S
C18    C19     1.387   .     A
C19    H25     1.080   .     S
C20    H34     1.077   .     S
C21    H24     1.083   .     S
Cu22   O40     1.954   .     S
Cu22   O42     1.940   .     S
Cu22   N39     2.032   .     S
Cu22   O46     1.922   .     S
Cu22   Cu23    2.705   .     S
Cu22   O44     1.952   .     S
Cu23   O45     1.954   .     S
Cu23   N38     2.032   .     S
Cu23   O41     1.952   .     S
Cu23   O47     1.940   .     S
Cu23   O43     1.922   .     S
H26    C285    1.088   1_545 S
H28    C61     1.097   .     S
H30    C146    1.087   .     S
H31    N38     1.029   .     S
H33    C102    1.084   1_455 S
H37    C58     1.083   .     S
N38    N86     1.286   .     S
N39    N132    1.286   1_455 S
C48    O88     1.294   .     A
C48    O87     1.295   .     A
C48    C50     1.431   .     S
C49    C51     1.475   .     S
C49    C62     1.422   .     A
C49    C57     1.402   .     A
C50    C193    1.332   .     S
C50    H214    1.088   .     S
C51    O90     1.301   .     A
C51    O89     1.308   .     A
C52    C53     1.431   .     S
C52    C332    1.332   1_545 S
C52    H359    1.087   1_545 S
C53    O91     1.293   .     A
C53    O92     1.295   .     A
C54    O93     1.299   .     A
C54    C56     1.463   .     S
C54    O94     1.306   .     A
C55    C68     1.393   .     A
C55    C487    1.404   1_554 S
C55    H127    1.084   .     S
C56    C67     1.398   .     A
C56    C68     1.398   .     A
C57    H82     1.083   .     S
C57    C58     1.387   .     A
C58    C483    1.391   .     S
C59    C62     1.419   .     A
C59    C483    1.418   .     S
C59    C486    1.425   .     S
C60    H83     1.077   .     S
C60    C481    1.391   1_554 S
C60    C482    1.418   1_554 S
C61    H74     1.108   .     S
C61    H76     1.110   .     S
C61    N86     1.444   .     S
C62    C66     1.413   .     A
C63    C67     1.402   .     A
C63    C482    1.425   1_554 S
C63    C487    1.420   1_554 S
C64    C65     1.392   .     A
C64    C486    1.420   .     S
C64    C478    1.404   .     S
C65    H79     1.084   .     S
C65    C66     1.387   .     A
C66    H72     1.080   .     S
C67    H81     1.077   .     S
C68    H71     1.083   .     S
Cu69   O87     1.954   .     S
Cu69   O89     1.940   .     S
Cu69   N86     2.032   .     S
Cu69   O93     1.922   .     S
Cu69   Cu70    2.705   .     S
Cu69   O91     1.952   .     S
Cu70   O92     1.954   .     S
Cu70   N85     2.032   .     S
Cu70   O88     1.952   .     S
Cu70   O94     1.940   .     S
Cu70   O90     1.922   .     S
H73    C332    1.088   1_545 S
H75    C108    1.097   .     S
H77    C193    1.087   .     S
H78    N85     1.029   .     S
H84    C105    1.083   .     S
N85    N133    1.286   .     S
C95    O135    1.294   .     A
C95    O134    1.295   .     A
C95    C97     1.431   .     S
C96    C98     1.475   .     S
C96    C109    1.422   .     A
C96    C104    1.402   .     A
C97    C240    1.332   .     S
C97    H261    1.088   .     S
C98    O137    1.301   .     A
C98    O136    1.308   .     A
C99    C100    1.431   .     S
C99    C379    1.332   1_545 S
C99    H406    1.087   1_545 S
C100   O138    1.293   .     A
C100   O139    1.295   .     A
C101   O140    1.299   .     A
C101   C103    1.463   .     S
C101   O141    1.306   .     A
C102   C115    1.393   .     A
C102   C534    1.404   1_554 S
C102   H33     1.084   1_655 S
C103   C114    1.398   .     A
C103   C115    1.398   .     A
C104   H129    1.083   .     S
C104   C105    1.387   .     A
C105   C530    1.391   .     S
C106   C109    1.419   .     A
C106   C530    1.418   .     S
C106   C533    1.425   .     S
C107   H130    1.077   .     S
C107   C528    1.391   1_554 S
C107   C529    1.418   1_554 S
C108   H121    1.108   .     S
C108   H123    1.110   .     S
C108   N133    1.444   .     S
C109   C113    1.413   .     A
C110   C114    1.402   .     A
C110   C529    1.425   1_554 S
C110   C534    1.420   1_554 S
C111   C112    1.392   .     A
C111   C533    1.420   .     S
C111   C525    1.404   .     S
C112   H126    1.084   .     S
C112   C113    1.387   .     A
C113   H119    1.080   .     S
C114   H128    1.077   .     S
C115   H118    1.083   .     S
Cu116  O134    1.954   .     S
Cu116  O136    1.940   .     S
Cu116  N133    2.032   .     S
Cu116  O140    1.922   .     S
Cu116  Cu117   2.705   .     S
Cu116  O138    1.952   .     S
Cu117  O139    1.954   .     S
Cu117  N132    2.032   .     S
Cu117  O135    1.952   .     S
Cu117  O141    1.940   .     S
Cu117  O137    1.922   .     S
H120   C379    1.088   1_545 S
H122   C14     1.097   1_655 S
H124   C240    1.087   .     S
H125   N132    1.029   .     S
H131   C11     1.083   1_655 S
N132   N39     1.286   1_655 S
C142   O182    1.294   .     A
C142   O181    1.295   .     A
C142   C144    1.431   .     S
C143   C145    1.475   .     S
C143   C156    1.422   .     A
C143   C151    1.402   .     A
C144   C287    1.332   .     S
C144   H308    1.088   .     S
C145   O184    1.301   .     A
C145   O183    1.308   .     A
C146   C147    1.431   .     S
C147   O185    1.293   .     A
C147   O186    1.295   .     A
C148   O187    1.299   .     A
C148   C150    1.463   .     S
C148   O188    1.306   .     A
C149   C162    1.393   .     A
C149   C581    1.404   1_554 S
C149   H221    1.084   .     S
C150   C161    1.398   .     A
C150   C162    1.398   .     A
C151   H176    1.083   .     S
C151   C152    1.387   .     A
C152   C577    1.391   .     S
C152   H272    1.083   1_455 S
C153   C156    1.419   .     A
C153   C577    1.418   .     S
C153   C580    1.425   .     S
C154   H177    1.077   .     S
C154   C575    1.391   1_554 S
C154   C576    1.418   1_554 S
C155   H168    1.108   .     S
C155   H170    1.110   .     S
C155   N180    1.444   .     S
C155   H263    1.097   1_455 S
C156   C160    1.413   .     A
C157   C161    1.402   .     A
C157   C576    1.425   1_554 S
C157   C581    1.420   1_554 S
C158   C159    1.392   .     A
C158   C580    1.420   .     S
C158   C572    1.404   .     S
C159   H173    1.084   .     S
C159   C160    1.387   .     A
C160   H166    1.080   .     S
C161   H175    1.077   .     S
C162   H165    1.083   .     S
Cu163  O181    1.954   .     S
Cu163  O183    1.940   .     S
Cu163  N180    2.032   .     S
Cu163  O187    1.922   .     S
Cu163  Cu164   2.705   .     S
Cu163  O185    1.952   .     S
Cu164  O186    1.954   .     S
Cu164  N179    2.032   .     S
Cu164  O182    1.952   .     S
Cu164  O188    1.940   .     S
Cu164  O184    1.922   .     S
H169   C202    1.097   .     S
H171   C287    1.087   .     S
H172   N179    1.029   .     S
H174   C243    1.084   1_455 S
H178   C199    1.083   .     S
N179   N227    1.286   .     S
N180   N273    1.286   1_455 S
C189   O229    1.294   .     A
C189   O228    1.295   .     A
C189   C191    1.431   .     S
C190   C192    1.475   .     S
C190   C203    1.422   .     A
C190   C198    1.402   .     A
C191   C334    1.332   .     S
C191   H355    1.088   .     S
C192   O231    1.301   .     A
C192   O230    1.308   .     A
C193   C194    1.431   .     S
C194   O232    1.293   .     A
C194   O233    1.295   .     A
C195   O234    1.299   .     A
C195   C197    1.463   .     S
C195   O235    1.306   .     A
C196   C209    1.393   .     A
C196   C628    1.404   1_554 S
C196   H268    1.084   .     S
C197   C208    1.398   .     A
C197   C209    1.398   .     A
C198   H223    1.083   .     S
C198   C199    1.387   .     A
C199   C624    1.391   .     S
C200   C203    1.419   .     A
C200   C624    1.418   .     S
C200   C627    1.425   .     S
C201   H224    1.077   .     S
C201   C622    1.391   1_554 S
C201   C623    1.418   1_554 S
C202   H215    1.108   .     S
C202   H217    1.110   .     S
C202   N227    1.444   .     S
C203   C207    1.413   .     A
C204   C208    1.402   .     A
C204   C623    1.425   1_554 S
C204   C628    1.420   1_554 S
C205   C206    1.392   .     A
C205   C627    1.420   .     S
C205   C619    1.404   .     S
C206   H220    1.084   .     S
C206   C207    1.387   .     A
C207   H213    1.080   .     S
C208   H222    1.077   .     S
C209   H212    1.083   .     S
Cu210  O228    1.954   .     S
Cu210  O230    1.940   .     S
Cu210  N227    2.032   .     S
Cu210  O234    1.922   .     S
Cu210  Cu211   2.705   .     S
Cu210  O232    1.952   .     S
Cu211  O233    1.954   .     S
Cu211  N226    2.032   .     S
Cu211  O229    1.952   .     S
Cu211  O235    1.940   .     S
Cu211  O231    1.922   .     S
H216   C249    1.097   .     S
H218   C334    1.087   .     S
H219   N226    1.029   .     S
H225   C246    1.083   .     S
N226   N274    1.286   .     S
C236   O276    1.294   .     A
C236   O275    1.295   .     A
C236   C238    1.431   .     S
C237   C239    1.475   .     S
C237   C250    1.422   .     A
C237   C245    1.402   .     A
C238   C381    1.332   .     S
C238   H402    1.088   .     S
C239   O278    1.301   .     A
C239   O277    1.308   .     A
C240   C241    1.431   .     S
C241   O279    1.293   .     A
C241   O280    1.295   .     A
C242   O281    1.299   .     A
C242   C244    1.463   .     S
C242   O282    1.306   .     A
C243   C256    1.393   .     A
C243   C675    1.404   1_554 S
C243   H174    1.084   1_655 S
C244   C255    1.398   .     A
C244   C256    1.398   .     A
C245   H270    1.083   .     S
C245   C246    1.387   .     A
C246   C671    1.391   .     S
C247   C250    1.419   .     A
C247   C671    1.418   .     S
C247   C674    1.425   .     S
C248   H271    1.077   .     S
C248   C669    1.391   1_554 S
C248   C670    1.418   1_554 S
C249   H262    1.108   .     S
C249   H264    1.110   .     S
C249   N274    1.444   .     S
C250   C254    1.413   .     A
C251   C255    1.402   .     A
C251   C670    1.425   1_554 S
C251   C675    1.420   1_554 S
C252   C253    1.392   .     A
C252   C674    1.420   .     S
C252   C666    1.404   .     S
C253   H267    1.084   .     S
C253   C254    1.387   .     A
C254   H260    1.080   .     S
C255   H269    1.077   .     S
C256   H259    1.083   .     S
Cu257  O275    1.954   .     S
Cu257  O277    1.940   .     S
Cu257  N274    2.032   .     S
Cu257  O281    1.922   .     S
Cu257  Cu258   2.705   .     S
Cu257  O279    1.952   .     S
Cu258  O280    1.954   .     S
Cu258  N273    2.032   .     S
Cu258  O276    1.952   .     S
Cu258  O282    1.940   .     S
Cu258  O278    1.922   .     S
H263   C155    1.097   1_655 S
H265   C381    1.087   .     S
H266   N273    1.029   .     S
H272   C152    1.083   1_655 S
N273   N180    1.286   1_655 S
C283   O323    1.294   .     A
C283   O322    1.295   .     A
C283   C285    1.431   .     S
C284   C286    1.475   .     S
C284   C297    1.422   .     A
C284   C292    1.402   .     A
C285   C5      1.332   1_565 S
C285   H26     1.088   1_565 S
C286   O325    1.301   .     A
C286   O324    1.308   .     A
C287   C288    1.431   .     S
C288   O326    1.293   .     A
C288   O327    1.295   .     A
C289   O328    1.299   .     A
C289   C291    1.463   .     S
C289   O329    1.306   .     A
C290   C303    1.393   .     A
C290   C722    1.404   1_554 S
C290   H362    1.084   .     S
C291   C302    1.398   .     A
C291   C303    1.398   .     A
C292   H317    1.083   .     S
C292   C293    1.387   .     A
C293   C718    1.391   .     S
C293   H413    1.083   1_455 S
C294   C297    1.419   .     A
C294   C718    1.418   .     S
C294   C721    1.425   .     S
C295   H318    1.077   .     S
C295   C716    1.391   1_554 S
C295   C717    1.418   1_554 S
C296   H309    1.108   .     S
C296   H311    1.110   .     S
C296   N321    1.444   .     S
C296   H404    1.097   1_455 S
C297   C301    1.413   .     A
C298   C302    1.402   .     A
C298   C717    1.425   1_554 S
C298   C722    1.420   1_554 S
C299   C300    1.392   .     A
C299   C721    1.420   .     S
C299   C713    1.404   .     S
C300   H314    1.084   .     S
C300   C301    1.387   .     A
C301   H307    1.080   .     S
C302   H316    1.077   .     S
C303   H306    1.083   .     S
Cu304  O322    1.954   .     S
Cu304  O324    1.940   .     S
Cu304  N321    2.032   .     S
Cu304  O328    1.922   .     S
Cu304  Cu305   2.705   .     S
Cu304  O326    1.952   .     S
Cu305  O327    1.954   .     S
Cu305  N320    2.032   .     S
Cu305  O323    1.952   .     S
Cu305  O329    1.940   .     S
Cu305  O325    1.922   .     S
H310   C343    1.097   .     S
H312   C5      1.087   1_565 S
H313   N320    1.029   .     S
H315   C384    1.084   1_455 S
H319   C340    1.083   .     S
N320   N368    1.286   .     S
N321   N414    1.286   1_455 S
C330   O370    1.294   .     A
C330   O369    1.295   .     A
C330   C332    1.431   .     S
C331   C333    1.475   .     S
C331   C344    1.422   .     A
C331   C339    1.402   .     A
C332   C52     1.332   1_565 S
C332   H73     1.088   1_565 S
C333   O372    1.301   .     A
C333   O371    1.308   .     A
C334   C335    1.431   .     S
C335   O373    1.293   .     A
C335   O374    1.295   .     A
C336   O375    1.299   .     A
C336   C338    1.463   .     S
C336   O376    1.306   .     A
C337   C350    1.393   .     A
C337   C769    1.404   1_554 S
C337   H409    1.084   .     S
C338   C349    1.398   .     A
C338   C350    1.398   .     A
C339   H364    1.083   .     S
C339   C340    1.387   .     A
C340   C765    1.391   .     S
C341   C344    1.419   .     A
C341   C765    1.418   .     S
C341   C768    1.425   .     S
C342   H365    1.077   .     S
C342   C763    1.391   1_554 S
C342   C764    1.418   1_554 S
C343   H356    1.108   .     S
C343   H358    1.110   .     S
C343   N368    1.444   .     S
C344   C348    1.413   .     A
C345   C349    1.402   .     A
C345   C764    1.425   1_554 S
C345   C769    1.420   1_554 S
C346   C347    1.392   .     A
C346   C768    1.420   .     S
C346   C760    1.404   .     S
C347   H361    1.084   .     S
C347   C348    1.387   .     A
C348   H354    1.080   .     S
C349   H363    1.077   .     S
C350   H353    1.083   .     S
Cu351  O369    1.954   .     S
Cu351  O371    1.940   .     S
Cu351  N368    2.032   .     S
Cu351  O375    1.922   .     S
Cu351  Cu352   2.705   .     S
Cu351  O373    1.952   .     S
Cu352  O374    1.954   .     S
Cu352  N367    2.032   .     S
Cu352  O370    1.952   .     S
Cu352  O376    1.940   .     S
Cu352  O372    1.922   .     S
H357   C390    1.097   .     S
H359   C52     1.087   1_565 S
H360   N367    1.029   .     S
H366   C387    1.083   .     S
N367   N415    1.286   .     S
C377   O417    1.294   .     A
C377   O416    1.295   .     A
C377   C379    1.431   .     S
C378   C380    1.475   .     S
C378   C391    1.422   .     A
C378   C386    1.402   .     A
C379   C99     1.332   1_565 S
C379   H120    1.088   1_565 S
C380   O419    1.301   .     A
C380   O418    1.308   .     A
C381   C382    1.431   .     S
C382   O420    1.293   .     A
C382   O421    1.295   .     A
C383   O422    1.299   .     A
C383   C385    1.463   .     S
C383   O423    1.306   .     A
C384   C397    1.393   .     A
C384   C816    1.404   1_554 S
C384   H315    1.084   1_655 S
C385   C396    1.398   .     A
C385   C397    1.398   .     A
C386   H411    1.083   .     S
C386   C387    1.387   .     A
C387   C812    1.391   .     S
C388   C391    1.419   .     A
C388   C812    1.418   .     S
C388   C815    1.425   .     S
C389   H412    1.077   .     S
C389   C810    1.391   1_554 S
C389   C811    1.418   1_554 S
C390   H403    1.108   .     S
C390   H405    1.110   .     S
C390   N415    1.444   .     S
C391   C395    1.413   .     A
C392   C396    1.402   .     A
C392   C811    1.425   1_554 S
C392   C816    1.420   1_554 S
C393   C394    1.392   .     A
C393   C815    1.420   .     S
C393   C807    1.404   .     S
C394   H408    1.084   .     S
C394   C395    1.387   .     A
C395   H401    1.080   .     S
C396   H410    1.077   .     S
C397   H400    1.083   .     S
Cu398  O416    1.954   .     S
Cu398  O418    1.940   .     S
Cu398  N415    2.032   .     S
Cu398  O422    1.922   .     S
Cu398  Cu399   2.705   .     S
Cu398  O420    1.952   .     S
Cu399  O421    1.954   .     S
Cu399  N414    2.032   .     S
Cu399  O417    1.952   .     S
Cu399  O423    1.940   .     S
Cu399  O419    1.922   .     S
H404   C296    1.097   1_655 S
H406   C99     1.087   1_565 S
H407   N414    1.029   .     S
H413   C293    1.083   1_655 S
N414   N321    1.286   1_655 S
C424   O464    1.294   .     A
C424   O463    1.295   .     A
C424   C426    1.431   .     S
C425   C427    1.475   .     S
C425   C438    1.422   .     A
C425   C433    1.402   .     A
C426   C569    1.332   .     S
C426   H590    1.088   .     S
C427   O466    1.301   .     A
C427   O465    1.308   .     A
C428   C429    1.431   .     S
C428   C708    1.332   1_545 S
C428   H735    1.087   1_545 S
C429   O467    1.293   .     A
C429   O468    1.295   .     A
C430   O469    1.299   .     A
C430   C432    1.463   .     S
C430   O470    1.306   .     A
C431   C444    1.393   .     A
C431   H503    1.084   .     S
C432   C443    1.398   .     A
C432   C444    1.398   .     A
C433   H458    1.083   .     S
C433   C434    1.387   .     A
C434   C13     1.391   1_556 S
C434   H554    1.083   1_455 S
C435   C438    1.419   .     A
C435   C13     1.418   1_556 S
C435   C16     1.425   1_556 S
C436   H459    1.077   .     S
C437   H450    1.108   .     S
C437   H452    1.110   .     S
C437   N462    1.444   .     S
C437   H545    1.097   1_455 S
C438   C442    1.413   .     A
C439   C443    1.402   .     A
C440   C441    1.392   .     A
C440   C16     1.420   1_556 S
C440   C8      1.404   1_556 S
C441   H455    1.084   .     S
C441   C442    1.387   .     A
C442   H448    1.080   .     S
C443   H457    1.077   .     S
C444   H447    1.083   .     S
Cu445  O463    1.954   .     S
Cu445  O465    1.940   .     S
Cu445  N462    2.032   .     S
Cu445  O469    1.922   .     S
Cu445  Cu446   2.705   .     S
Cu445  O467    1.952   .     S
Cu446  O468    1.954   .     S
Cu446  N461    2.032   .     S
Cu446  O464    1.952   .     S
Cu446  O470    1.940   .     S
Cu446  O466    1.922   .     S
H449   C708    1.088   1_545 S
H451   C484    1.097   .     S
H453   C569    1.087   .     S
H454   N461    1.029   .     S
H456   C525    1.084   1_455 S
H460   C481    1.083   .     S
N461   N509    1.286   .     S
N462   N555    1.286   1_455 S
C471   O511    1.294   .     A
C471   O510    1.295   .     A
C471   C473    1.431   .     S
C472   C474    1.475   .     S
C472   C485    1.422   .     A
C472   C480    1.402   .     A
C473   C616    1.332   .     S
C473   H637    1.088   .     S
C474   O513    1.301   .     A
C474   O512    1.308   .     A
C475   C476    1.431   .     S
C475   C755    1.332   1_545 S
C475   H782    1.087   1_545 S
C476   O514    1.293   .     A
C476   O515    1.295   .     A
C477   O516    1.299   .     A
C477   C479    1.463   .     S
C477   O517    1.306   .     A
C478   C491    1.393   .     A
C478   H550    1.084   .     S
C479   C490    1.398   .     A
C479   C491    1.398   .     A
C480   H505    1.083   .     S
C480   C481    1.387   .     A
C481   C60     1.391   1_556 S
C482   C485    1.419   .     A
C482   C60     1.418   1_556 S
C482   C63     1.425   1_556 S
C483   H506    1.077   .     S
C484   H497    1.108   .     S
C484   H499    1.110   .     S
C484   N509    1.444   .     S
C485   C489    1.413   .     A
C486   C490    1.402   .     A
C487   C488    1.392   .     A
C487   C63     1.420   1_556 S
C487   C55     1.404   1_556 S
C488   H502    1.084   .     S
C488   C489    1.387   .     A
C489   H495    1.080   .     S
C490   H504    1.077   .     S
C491   H494    1.083   .     S
Cu492  O510    1.954   .     S
Cu492  O512    1.940   .     S
Cu492  N509    2.032   .     S
Cu492  O516    1.922   .     S
Cu492  Cu493   2.705   .     S
Cu492  O514    1.952   .     S
Cu493  O515    1.954   .     S
Cu493  N508    2.032   .     S
Cu493  O511    1.952   .     S
Cu493  O517    1.940   .     S
Cu493  O513    1.922   .     S
H496   C755    1.088   1_545 S
H498   C531    1.097   .     S
H500   C616    1.087   .     S
H501   N508    1.029   .     S
H507   C528    1.083   .     S
N508   N556    1.286   .     S
C518   O558    1.294   .     A
C518   O557    1.295   .     A
C518   C520    1.431   .     S
C519   C521    1.475   .     S
C519   C532    1.422   .     A
C519   C527    1.402   .     A
C520   C663    1.332   .     S
C520   H684    1.088   .     S
C521   O560    1.301   .     A
C521   O559    1.308   .     A
C522   C523    1.431   .     S
C522   C802    1.332   1_545 S
C522   H829    1.087   1_545 S
C523   O561    1.293   .     A
C523   O562    1.295   .     A
C524   O563    1.299   .     A
C524   C526    1.463   .     S
C524   O564    1.306   .     A
C525   C538    1.393   .     A
C525   H456    1.084   1_655 S
C526   C537    1.398   .     A
C526   C538    1.398   .     A
C527   H552    1.083   .     S
C527   C528    1.387   .     A
C528   C107    1.391   1_556 S
C529   C532    1.419   .     A
C529   C107    1.418   1_556 S
C529   C110    1.425   1_556 S
C530   H553    1.077   .     S
C531   H544    1.108   .     S
C531   H546    1.110   .     S
C531   N556    1.444   .     S
C532   C536    1.413   .     A
C533   C537    1.402   .     A
C534   C535    1.392   .     A
C534   C110    1.420   1_556 S
C534   C102    1.404   1_556 S
C535   H549    1.084   .     S
C535   C536    1.387   .     A
C536   H542    1.080   .     S
C537   H551    1.077   .     S
C538   H541    1.083   .     S
Cu539  O557    1.954   .     S
Cu539  O559    1.940   .     S
Cu539  N556    2.032   .     S
Cu539  O563    1.922   .     S
Cu539  Cu540   2.705   .     S
Cu539  O561    1.952   .     S
Cu540  O562    1.954   .     S
Cu540  N555    2.032   .     S
Cu540  O558    1.952   .     S
Cu540  O564    1.940   .     S
Cu540  O560    1.922   .     S
H543   C802    1.088   1_545 S
H545   C437    1.097   1_655 S
H547   C663    1.087   .     S
H548   N555    1.029   .     S
H554   C434    1.083   1_655 S
N555   N462    1.286   1_655 S
C565   O605    1.294   .     A
C565   O604    1.295   .     A
C565   C567    1.431   .     S
C566   C568    1.475   .     S
C566   C579    1.422   .     A
C566   C574    1.402   .     A
C567   C710    1.332   .     S
C567   H731    1.088   .     S
C568   O607    1.301   .     A
C568   O606    1.308   .     A
C569   C570    1.431   .     S
C570   O608    1.293   .     A
C570   O609    1.295   .     A
C571   O610    1.299   .     A
C571   C573    1.463   .     S
C571   O611    1.306   .     A
C572   C585    1.393   .     A
C572   H644    1.084   .     S
C573   C584    1.398   .     A
C573   C585    1.398   .     A
C574   H599    1.083   .     S
C574   C575    1.387   .     A
C575   C154    1.391   1_556 S
C575   H695    1.083   1_455 S
C576   C579    1.419   .     A
C576   C154    1.418   1_556 S
C576   C157    1.425   1_556 S
C577   H600    1.077   .     S
C578   H591    1.108   .     S
C578   H593    1.110   .     S
C578   N603    1.444   .     S
C578   H686    1.097   1_455 S
C579   C583    1.413   .     A
C580   C584    1.402   .     A
C581   C582    1.392   .     A
C581   C157    1.420   1_556 S
C581   C149    1.404   1_556 S
C582   H596    1.084   .     S
C582   C583    1.387   .     A
C583   H589    1.080   .     S
C584   H598    1.077   .     S
C585   H588    1.083   .     S
Cu586  O604    1.954   .     S
Cu586  O606    1.940   .     S
Cu586  N603    2.032   .     S
Cu586  O610    1.922   .     S
Cu586  Cu587   2.705   .     S
Cu586  O608    1.952   .     S
Cu587  O609    1.954   .     S
Cu587  N602    2.032   .     S
Cu587  O605    1.952   .     S
Cu587  O611    1.940   .     S
Cu587  O607    1.922   .     S
H592   C625    1.097   .     S
H594   C710    1.087   .     S
H595   N602    1.029   .     S
H597   C666    1.084   1_455 S
H601   C622    1.083   .     S
N602   N650    1.286   .     S
N603   N696    1.286   1_455 S
C612   O652    1.294   .     A
C612   O651    1.295   .     A
C612   C614    1.431   .     S
C613   C615    1.475   .     S
C613   C626    1.422   .     A
C613   C621    1.402   .     A
C614   C757    1.332   .     S
C614   H778    1.088   .     S
C615   O654    1.301   .     A
C615   O653    1.308   .     A
C616   C617    1.431   .     S
C617   O655    1.293   .     A
C617   O656    1.295   .     A
C618   O657    1.299   .     A
C618   C620    1.463   .     S
C618   O658    1.306   .     A
C619   C632    1.393   .     A
C619   H691    1.084   .     S
C620   C631    1.398   .     A
C620   C632    1.398   .     A
C621   H646    1.083   .     S
C621   C622    1.387   .     A
C622   C201    1.391   1_556 S
C623   C626    1.419   .     A
C623   C201    1.418   1_556 S
C623   C204    1.425   1_556 S
C624   H647    1.077   .     S
C625   H638    1.108   .     S
C625   H640    1.110   .     S
C625   N650    1.444   .     S
C626   C630    1.413   .     A
C627   C631    1.402   .     A
C628   C629    1.392   .     A
C628   C204    1.420   1_556 S
C628   C196    1.404   1_556 S
C629   H643    1.084   .     S
C629   C630    1.387   .     A
C630   H636    1.080   .     S
C631   H645    1.077   .     S
C632   H635    1.083   .     S
Cu633  O651    1.954   .     S
Cu633  O653    1.940   .     S
Cu633  N650    2.032   .     S
Cu633  O657    1.922   .     S
Cu633  Cu634   2.705   .     S
Cu633  O655    1.952   .     S
Cu634  O656    1.954   .     S
Cu634  N649    2.032   .     S
Cu634  O652    1.952   .     S
Cu634  O658    1.940   .     S
Cu634  O654    1.922   .     S
H639   C672    1.097   .     S
H641   C757    1.087   .     S
H642   N649    1.029   .     S
H648   C669    1.083   .     S
N649   N697    1.286   .     S
C659   O699    1.294   .     A
C659   O698    1.295   .     A
C659   C661    1.431   .     S
C660   C662    1.475   .     S
C660   C673    1.422   .     A
C660   C668    1.402   .     A
C661   C804    1.332   .     S
C661   H825    1.088   .     S
C662   O701    1.301   .     A
C662   O700    1.308   .     A
C663   C664    1.431   .     S
C664   O702    1.293   .     A
C664   O703    1.295   .     A
C665   O704    1.299   .     A
C665   C667    1.463   .     S
C665   O705    1.306   .     A
C666   C679    1.393   .     A
C666   H597    1.084   1_655 S
C667   C678    1.398   .     A
C667   C679    1.398   .     A
C668   H693    1.083   .     S
C668   C669    1.387   .     A
C669   C248    1.391   1_556 S
C670   C673    1.419   .     A
C670   C248    1.418   1_556 S
C670   C251    1.425   1_556 S
C671   H694    1.077   .     S
C672   H685    1.108   .     S
C672   H687    1.110   .     S
C672   N697    1.444   .     S
C673   C677    1.413   .     A
C674   C678    1.402   .     A
C675   C676    1.392   .     A
C675   C251    1.420   1_556 S
C675   C243    1.404   1_556 S
C676   H690    1.084   .     S
C676   C677    1.387   .     A
C677   H683    1.080   .     S
C678   H692    1.077   .     S
C679   H682    1.083   .     S
Cu680  O698    1.954   .     S
Cu680  O700    1.940   .     S
Cu680  N697    2.032   .     S
Cu680  O704    1.922   .     S
Cu680  Cu681   2.705   .     S
Cu680  O702    1.952   .     S
Cu681  O703    1.954   .     S
Cu681  N696    2.032   .     S
Cu681  O699    1.952   .     S
Cu681  O705    1.940   .     S
Cu681  O701    1.922   .     S
H686   C578    1.097   1_655 S
H688   C804    1.087   .     S
H689   N696    1.029   .     S
H695   C575    1.083   1_655 S
N696   N603    1.286   1_655 S
C706   O746    1.294   .     A
C706   O745    1.295   .     A
C706   C708    1.431   .     S
C707   C709    1.475   .     S
C707   C720    1.422   .     A
C707   C715    1.402   .     A
C708   C428    1.332   1_565 S
C708   H449    1.088   1_565 S
C709   O748    1.301   .     A
C709   O747    1.308   .     A
C710   C711    1.431   .     S
C711   O749    1.293   .     A
C711   O750    1.295   .     A
C712   O751    1.299   .     A
C712   C714    1.463   .     S
C712   O752    1.306   .     A
C713   C726    1.393   .     A
C713   H785    1.084   .     S
C714   C725    1.398   .     A
C714   C726    1.398   .     A
C715   H740    1.083   .     S
C715   C716    1.387   .     A
C716   C295    1.391   1_556 S
C716   H836    1.083   1_455 S
C717   C720    1.419   .     A
C717   C295    1.418   1_556 S
C717   C298    1.425   1_556 S
C718   H741    1.077   .     S
C719   H732    1.108   .     S
C719   H734    1.110   .     S
C719   N744    1.444   .     S
C719   H827    1.097   1_455 S
C720   C724    1.413   .     A
C721   C725    1.402   .     A
C722   C723    1.392   .     A
C722   C298    1.420   1_556 S
C722   C290    1.404   1_556 S
C723   H737    1.084   .     S
C723   C724    1.387   .     A
C724   H730    1.080   .     S
C725   H739    1.077   .     S
C726   H729    1.083   .     S
Cu727  O745    1.954   .     S
Cu727  O747    1.940   .     S
Cu727  N744    2.032   .     S
Cu727  O751    1.922   .     S
Cu727  Cu728   2.705   .     S
Cu727  O749    1.952   .     S
Cu728  O750    1.954   .     S
Cu728  N743    2.032   .     S
Cu728  O746    1.952   .     S
Cu728  O752    1.940   .     S
Cu728  O748    1.922   .     S
H733   C766    1.097   .     S
H735   C428    1.087   1_565 S
H736   N743    1.029   .     S
H738   C807    1.084   1_455 S
H742   C763    1.083   .     S
N743   N791    1.286   .     S
N744   N837    1.286   1_455 S
C753   O793    1.294   .     A
C753   O792    1.295   .     A
C753   C755    1.431   .     S
C754   C756    1.475   .     S
C754   C767    1.422   .     A
C754   C762    1.402   .     A
C755   C475    1.332   1_565 S
C755   H496    1.088   1_565 S
C756   O795    1.301   .     A
C756   O794    1.308   .     A
C757   C758    1.431   .     S
C758   O796    1.293   .     A
C758   O797    1.295   .     A
C759   O798    1.299   .     A
C759   C761    1.463   .     S
C759   O799    1.306   .     A
C760   C773    1.393   .     A
C760   H832    1.084   .     S
C761   C772    1.398   .     A
C761   C773    1.398   .     A
C762   H787    1.083   .     S
C762   C763    1.387   .     A
C763   C342    1.391   1_556 S
C764   C767    1.419   .     A
C764   C342    1.418   1_556 S
C764   C345    1.425   1_556 S
C765   H788    1.077   .     S
C766   H779    1.108   .     S
C766   H781    1.110   .     S
C766   N791    1.444   .     S
C767   C771    1.413   .     A
C768   C772    1.402   .     A
C769   C770    1.392   .     A
C769   C345    1.420   1_556 S
C769   C337    1.404   1_556 S
C770   H784    1.084   .     S
C770   C771    1.387   .     A
C771   H777    1.080   .     S
C772   H786    1.077   .     S
C773   H776    1.083   .     S
Cu774  O792    1.954   .     S
Cu774  O794    1.940   .     S
Cu774  N791    2.032   .     S
Cu774  O798    1.922   .     S
Cu774  Cu775   2.705   .     S
Cu774  O796    1.952   .     S
Cu775  O797    1.954   .     S
Cu775  N790    2.032   .     S
Cu775  O793    1.952   .     S
Cu775  O799    1.940   .     S
Cu775  O795    1.922   .     S
H780   C813    1.097   .     S
H782   C475    1.087   1_565 S
H783   N790    1.029   .     S
H789   C810    1.083   .     S
N790   N838    1.286   .     S
C800   O840    1.294   .     A
C800   O839    1.295   .     A
C800   C802    1.431   .     S
C801   C803    1.475   .     S
C801   C814    1.422   .     A
C801   C809    1.402   .     A
C802   C522    1.332   1_565 S
C802   H543    1.088   1_565 S
C803   O842    1.301   .     A
C803   O841    1.308   .     A
C804   C805    1.431   .     S
C805   O843    1.293   .     A
C805   O844    1.295   .     A
C806   O845    1.299   .     A
C806   C808    1.463   .     S
C806   O846    1.306   .     A
C807   C820    1.393   .     A
C807   H738    1.084   1_655 S
C808   C819    1.398   .     A
C808   C820    1.398   .     A
C809   H834    1.083   .     S
C809   C810    1.387   .     A
C810   C389    1.391   1_556 S
C811   C814    1.419   .     A
C811   C389    1.418   1_556 S
C811   C392    1.425   1_556 S
C812   H835    1.077   .     S
C813   H826    1.108   .     S
C813   H828    1.110   .     S
C813   N838    1.444   .     S
C814   C818    1.413   .     A
C815   C819    1.402   .     A
C816   C817    1.392   .     A
C816   C392    1.420   1_556 S
C816   C384    1.404   1_556 S
C817   H831    1.084   .     S
C817   C818    1.387   .     A
C818   H824    1.080   .     S
C819   H833    1.077   .     S
C820   H823    1.083   .     S
Cu821  O839    1.954   .     S
Cu821  O841    1.940   .     S
Cu821  N838    2.032   .     S
Cu821  O845    1.922   .     S
Cu821  Cu822   2.705   .     S
Cu821  O843    1.952   .     S
Cu822  O844    1.954   .     S
Cu822  N837    2.032   .     S
Cu822  O840    1.952   .     S
Cu822  O846    1.940   .     S
Cu822  O842    1.922   .     S
H827   C719    1.097   1_655 S
H829   C522    1.087   1_565 S
H830   N837    1.029   .     S
H836   C716    1.083   1_655 S
N837   N744    1.286   1_655 S
